MODEL 1
REMARK VINA RESULT:      -8.5      0.000      0.000
REMARK  Name = 
REMARK  8 active torsions:
REMARK  status: ('A' for Active; 'I' for Inactive)
REMARK    1  A    between atoms: C_1  and  C_2
REMARK    2  A    between atoms: C_7  and  C_8
REMARK    3  A    between atoms: N_9  and  S_10
REMARK    4  A    between atoms: S_10  and  C_13
REMARK    5  A    between atoms: C_16  and  C_17
REMARK    6  A    between atoms: C_17  and  C_18
REMARK    7  A    between atoms: C_17  and  C_19
REMARK    8  A    between atoms: C_17  and  C_20
REMARK                            x       y       z     vdW  Elec       q    Type
REMARK                         _______ _______ _______ _____ _____    ______ ____
ROOT
ATOM      1  C   UNL     1       1.125   1.453  18.844  0.00  0.00    +0.000 C 
ATOM      2  C   UNL     1       1.527   2.839  19.275  0.00  0.00    +0.000 A 
ATOM      3  C   UNL     1       1.143   3.296  20.542  0.00  0.00    +0.000 A 
ATOM      4  C   UNL     1       1.479   4.582  20.971  0.00  0.00    +0.000 A 
ATOM      5  C   UNL     1       2.222   5.436  20.148  0.00  0.00    +0.000 A 
ATOM      6  C   UNL     1       2.641   4.968  18.893  0.00  0.00    +0.000 A 
ATOM      7  C   UNL     1       2.277   3.686  18.427  0.00  0.00    +0.000 A 
ATOM      8  C   UNL     1       2.579   3.248  17.015  0.00  0.00    +0.000 C 
ATOM      9  N   UNL     1       3.376   5.856  18.044  0.00  0.00    +0.000 N 
ATOM     10  C   UNL     1       2.663   6.989  17.474  0.00  0.00    +0.000 C 
ATOM     11  C   UNL     1       2.065   8.004  18.415  0.00  0.00    +0.000 A 
ATOM     12  C   UNL     1       1.496   9.148  17.824  0.00  0.00    +0.000 A 
ATOM     13  C   UNL     1       0.911  10.130  18.609  0.00  0.00    +0.000 A 
ATOM     14  C   UNL     1       0.930   9.939  19.973  0.00  0.00    +0.000 A 
ATOM     15 CL   UNL     1       0.228  11.090  21.031  0.00  0.00    +0.000 Cl
ATOM     16  N   UNL     1       1.458   8.862  20.585  0.00  0.00    +0.000 NA
ATOM     17  C   UNL     1       1.997   7.893  19.809  0.00  0.00    +0.000 A 
ATOM     18  N   UNL     1       2.424   6.778  20.540  0.00  0.00    +0.000 N 
ATOM     19  H   UNL     1       2.183   6.960  21.512  0.00  0.00    +0.000 HD
ENDROOT
BRANCH   9  20
ATOM     20  S   UNL     1       5.052   5.765  17.968  0.00  0.00    +0.000 S 
ATOM     21  O   UNL     1       5.631   7.088  18.077  0.00  0.00    +0.000 OA
ATOM     22  O   UNL     1       5.461   4.719  18.893  0.00  0.00    +0.000 OA
BRANCH  20  23
ATOM     23  C   UNL     1       5.414   5.147  16.336  0.00  0.00    +0.000 A 
ATOM     24  C   UNL     1       5.761   3.811  16.166  0.00  0.00    +0.000 A 
ATOM     25  C   UNL     1       5.959   3.301  14.875  0.00  0.00    +0.000 A 
ATOM     26  C   UNL     1       5.811   4.106  13.729  0.00  0.00    +0.000 A 
ATOM     27  C   UNL     1       5.417   5.442  13.929  0.00  0.00    +0.000 A 
ATOM     28  C   UNL     1       5.209   5.958  15.216  0.00  0.00    +0.000 A 
BRANCH  26  29
ATOM     29  C   UNL     1       6.075   3.568  12.307  0.00  0.00    +0.000 C 
ATOM     30  C   UNL     1       6.567   2.102  12.295  0.00  0.00    +0.000 C 
ATOM     31  C   UNL     1       4.791   3.630  11.452  0.00  0.00    +0.000 C 
ATOM     32  C   UNL     1       7.166   4.413  11.614  0.00  0.00    +0.000 C 
ENDBRANCH  26  29
ENDBRANCH  20  23
ENDBRANCH   9  20
TORSDOF 3
ENDMDL
MODEL 2
REMARK VINA RESULT:      -8.1      0.206      1.174
REMARK  Name = 
REMARK  8 active torsions:
REMARK  status: ('A' for Active; 'I' for Inactive)
REMARK    1  A    between atoms: C_1  and  C_2
REMARK    2  A    between atoms: C_7  and  C_8
REMARK    3  A    between atoms: N_9  and  S_10
REMARK    4  A    between atoms: S_10  and  C_13
REMARK    5  A    between atoms: C_16  and  C_17
REMARK    6  A    between atoms: C_17  and  C_18
REMARK    7  A    between atoms: C_17  and  C_19
REMARK    8  A    between atoms: C_17  and  C_20
REMARK                            x       y       z     vdW  Elec       q    Type
REMARK                         _______ _______ _______ _____ _____    ______ ____
ROOT
ATOM      1  C   UNL     1       0.868   1.627  18.831  0.00  0.00    +0.000 C 
ATOM      2  C   UNL     1       1.318   2.992  19.280  0.00  0.00    +0.000 A 
ATOM      3  C   UNL     1       0.987   3.428  20.570  0.00  0.00    +0.000 A 
ATOM      4  C   UNL     1       1.369   4.695  21.016  0.00  0.00    +0.000 A 
ATOM      5  C   UNL     1       2.107   5.550  20.190  0.00  0.00    +0.000 A 
ATOM      6  C   UNL     1       2.474   5.101  18.911  0.00  0.00    +0.000 A 
ATOM      7  C   UNL     1       2.062   3.840  18.427  0.00  0.00    +0.000 A 
ATOM      8  C   UNL     1       2.308   3.429  16.997  0.00  0.00    +0.000 C 
ATOM      9  N   UNL     1       3.204   5.991  18.060  0.00  0.00    +0.000 N 
ATOM     10  C   UNL     1       2.502   7.154  17.539  0.00  0.00    +0.000 C 
ATOM     11  C   UNL     1       1.960   8.161  18.522  0.00  0.00    +0.000 A 
ATOM     12  C   UNL     1       1.403   9.333  17.976  0.00  0.00    +0.000 A 
ATOM     13  C   UNL     1       0.869  10.310  18.802  0.00  0.00    +0.000 A 
ATOM     14  C   UNL     1       0.926  10.086  20.160  0.00  0.00    +0.000 A 
ATOM     15 CL   UNL     1       0.288  11.229  21.267  0.00  0.00    +0.000 Cl
ATOM     16  N   UNL     1       1.445   8.982  20.729  0.00  0.00    +0.000 NA
ATOM     17  C   UNL     1       1.934   8.018  19.915  0.00  0.00    +0.000 A 
ATOM     18  N   UNL     1       2.356   6.876  20.606  0.00  0.00    +0.000 N 
ATOM     19  H   UNL     1       2.151   7.041  21.588  0.00  0.00    +0.000 HD
ENDROOT
BRANCH   9  20
ATOM     20  S   UNL     1       4.874   5.860  17.927  0.00  0.00    +0.000 S 
ATOM     21  O   UNL     1       5.485   7.172  17.979  0.00  0.00    +0.000 OA
ATOM     22  O   UNL     1       5.293   4.830  18.866  0.00  0.00    +0.000 OA
BRANCH  20  23
ATOM     23  C   UNL     1       5.164   5.191  16.301  0.00  0.00    +0.000 A 
ATOM     24  C   UNL     1       5.162   6.038  15.197  0.00  0.00    +0.000 A 
ATOM     25  C   UNL     1       5.477   5.531  13.929  0.00  0.00    +0.000 A 
ATOM     26  C   UNL     1       5.805   4.175  13.732  0.00  0.00    +0.000 A 
ATOM     27  C   UNL     1       5.840   3.352  14.874  0.00  0.00    +0.000 A 
ATOM     28  C   UNL     1       5.534   3.852  16.147  0.00  0.00    +0.000 A 
BRANCH  26  29
ATOM     29  C   UNL     1       6.105   3.596  12.334  0.00  0.00    +0.000 C 
ATOM     30  C   UNL     1       7.225   4.360  11.590  0.00  0.00    +0.000 C 
ATOM     31  C   UNL     1       6.542   2.120  12.436  0.00  0.00    +0.000 C 
ATOM     32  C   UNL     1       4.843   3.673  11.446  0.00  0.00    +0.000 C 
ENDBRANCH  26  29
ENDBRANCH  20  23
ENDBRANCH   9  20
TORSDOF 3
ENDMDL
MODEL 3
REMARK VINA RESULT:      -7.7      3.874      6.874
REMARK  Name = 
REMARK  8 active torsions:
REMARK  status: ('A' for Active; 'I' for Inactive)
REMARK    1  A    between atoms: C_1  and  C_2
REMARK    2  A    between atoms: C_7  and  C_8
REMARK    3  A    between atoms: N_9  and  S_10
REMARK    4  A    between atoms: S_10  and  C_13
REMARK    5  A    between atoms: C_16  and  C_17
REMARK    6  A    between atoms: C_17  and  C_18
REMARK    7  A    between atoms: C_17  and  C_19
REMARK    8  A    between atoms: C_17  and  C_20
REMARK                            x       y       z     vdW  Elec       q    Type
REMARK                         _______ _______ _______ _____ _____    ______ ____
ROOT
ATOM      1  C   UNL     1      -3.092  10.170  16.729  0.00  0.00    +0.000 C 
ATOM      2  C   UNL     1      -2.542  10.774  17.994  0.00  0.00    +0.000 A 
ATOM      3  C   UNL     1      -3.286  11.757  18.659  0.00  0.00    +0.000 A 
ATOM      4  C   UNL     1      -2.802  12.355  19.824  0.00  0.00    +0.000 A 
ATOM      5  C   UNL     1      -1.569  11.972  20.363  0.00  0.00    +0.000 A 
ATOM      6  C   UNL     1      -0.838  10.959  19.721  0.00  0.00    +0.000 A 
ATOM      7  C   UNL     1      -1.293  10.372  18.520  0.00  0.00    +0.000 A 
ATOM      8  C   UNL     1      -0.431   9.411  17.740  0.00  0.00    +0.000 C 
ATOM      9  N   UNL     1       0.435  10.591  20.261  0.00  0.00    +0.000 N 
ATOM     10  C   UNL     1       1.519  11.555  20.150  0.00  0.00    +0.000 C 
ATOM     11  C   UNL     1       1.356  12.894  20.825  0.00  0.00    +0.000 A 
ATOM     12  C   UNL     1       2.476  13.748  20.803  0.00  0.00    +0.000 A 
ATOM     13  C   UNL     1       2.416  15.004  21.388  0.00  0.00    +0.000 A 
ATOM     14  C   UNL     1       1.231  15.359  21.993  0.00  0.00    +0.000 A 
ATOM     15 CL   UNL     1       1.051  16.893  22.738  0.00  0.00    +0.000 Cl
ATOM     16  N   UNL     1       0.133  14.581  22.037  0.00  0.00    +0.000 NA
ATOM     17  C   UNL     1       0.190  13.371  21.436  0.00  0.00    +0.000 A 
ATOM     18  N   UNL     1      -1.033  12.689  21.455  0.00  0.00    +0.000 N 
ATOM     19  H   UNL     1      -1.702  13.311  21.903  0.00  0.00    +0.000 HD
ENDROOT
BRANCH   9  20
ATOM     20  S   UNL     1       0.581   9.239  21.248  0.00  0.00    +0.000 S 
ATOM     21  O   UNL     1       1.308   9.576  22.454  0.00  0.00    +0.000 OA
ATOM     22  O   UNL     1      -0.743   8.643  21.346  0.00  0.00    +0.000 OA
BRANCH  20  23
ATOM     23  C   UNL     1       1.574   8.086  20.320  0.00  0.00    +0.000 A 
ATOM     24  C   UNL     1       1.701   6.774  20.764  0.00  0.00    +0.000 A 
ATOM     25  C   UNL     1       2.407   5.842  19.991  0.00  0.00    +0.000 A 
ATOM     26  C   UNL     1       2.996   6.193  18.760  0.00  0.00    +0.000 A 
ATOM     27  C   UNL     1       2.814   7.517  18.317  0.00  0.00    +0.000 A 
ATOM     28  C   UNL     1       2.103   8.453  19.080  0.00  0.00    +0.000 A 
BRANCH  26  29
ATOM     29  C   UNL     1       3.817   5.189  17.925  0.00  0.00    +0.000 C 
ATOM     30  C   UNL     1       2.951   4.073  17.296  0.00  0.00    +0.000 C 
ATOM     31  C   UNL     1       4.552   5.907  16.774  0.00  0.00    +0.000 C 
ATOM     32  C   UNL     1       4.868   4.491  18.818  0.00  0.00    +0.000 C 
ENDBRANCH  26  29
ENDBRANCH  20  23
ENDBRANCH   9  20
TORSDOF 3
ENDMDL
MODEL 4
REMARK VINA RESULT:      -7.7      3.785      6.874
REMARK  Name = 
REMARK  8 active torsions:
REMARK  status: ('A' for Active; 'I' for Inactive)
REMARK    1  A    between atoms: C_1  and  C_2
REMARK    2  A    between atoms: C_7  and  C_8
REMARK    3  A    between atoms: N_9  and  S_10
REMARK    4  A    between atoms: S_10  and  C_13
REMARK    5  A    between atoms: C_16  and  C_17
REMARK    6  A    between atoms: C_17  and  C_18
REMARK    7  A    between atoms: C_17  and  C_19
REMARK    8  A    between atoms: C_17  and  C_20
REMARK                            x       y       z     vdW  Elec       q    Type
REMARK                         _______ _______ _______ _____ _____    ______ ____
ROOT
ATOM      1  C   UNL     1      -2.974  10.101  16.659  0.00  0.00    +0.000 C 
ATOM      2  C   UNL     1      -2.429  10.714  17.923  0.00  0.00    +0.000 A 
ATOM      3  C   UNL     1      -3.175  11.705  18.575  0.00  0.00    +0.000 A 
ATOM      4  C   UNL     1      -2.695  12.312  19.738  0.00  0.00    +0.000 A 
ATOM      5  C   UNL     1      -1.466  11.929  20.287  0.00  0.00    +0.000 A 
ATOM      6  C   UNL     1      -0.734  10.909  19.658  0.00  0.00    +0.000 A 
ATOM      7  C   UNL     1      -1.184  10.313  18.459  0.00  0.00    +0.000 A 
ATOM      8  C   UNL     1      -0.320   9.343  17.692  0.00  0.00    +0.000 C 
ATOM      9  N   UNL     1       0.535  10.542  20.208  0.00  0.00    +0.000 N 
ATOM     10  C   UNL     1       1.622  11.503  20.095  0.00  0.00    +0.000 C 
ATOM     11  C   UNL     1       1.459  12.847  20.758  0.00  0.00    +0.000 A 
ATOM     12  C   UNL     1       2.581  13.698  20.736  0.00  0.00    +0.000 A 
ATOM     13  C   UNL     1       2.521  14.959  21.309  0.00  0.00    +0.000 A 
ATOM     14  C   UNL     1       1.333  15.323  21.904  0.00  0.00    +0.000 A 
ATOM     15 CL   UNL     1       1.153  16.863  22.636  0.00  0.00    +0.000 Cl
ATOM     16  N   UNL     1       0.234  14.548  21.949  0.00  0.00    +0.000 NA
ATOM     17  C   UNL     1       0.290  13.332  21.358  0.00  0.00    +0.000 A 
ATOM     18  N   UNL     1      -0.935  12.654  21.376  0.00  0.00    +0.000 N 
ATOM     19  H   UNL     1      -1.605  13.281  21.815  0.00  0.00    +0.000 HD
ENDROOT
BRANCH   9  20
ATOM     20  S   UNL     1       0.671   9.198  21.207  0.00  0.00    +0.000 S 
ATOM     21  O   UNL     1       1.502   9.508  22.352  0.00  0.00    +0.000 OA
ATOM     22  O   UNL     1      -0.675   8.685  21.410  0.00  0.00    +0.000 OA
BRANCH  20  23
ATOM     23  C   UNL     1       1.524   7.974  20.233  0.00  0.00    +0.000 A 
ATOM     24  C   UNL     1       2.145   8.349  19.046  0.00  0.00    +0.000 A 
ATOM     25  C   UNL     1       2.892   7.408  18.323  0.00  0.00    +0.000 A 
ATOM     26  C   UNL     1       3.040   6.079  18.766  0.00  0.00    +0.000 A 
ATOM     27  C   UNL     1       2.436   5.741  19.992  0.00  0.00    +0.000 A 
ATOM     28  C   UNL     1       1.695   6.678  20.726  0.00  0.00    +0.000 A 
BRANCH  26  29
ATOM     29  C   UNL     1       3.818   5.023  17.954  0.00  0.00    +0.000 C 
ATOM     30  C   UNL     1       4.581   5.626  16.751  0.00  0.00    +0.000 C 
ATOM     31  C   UNL     1       4.854   4.304  18.844  0.00  0.00    +0.000 C 
ATOM     32  C   UNL     1       2.844   3.969  17.385  0.00  0.00    +0.000 C 
ENDBRANCH  26  29
ENDBRANCH  20  23
ENDBRANCH   9  20
TORSDOF 3
ENDMDL
MODEL 5
REMARK VINA RESULT:      -7.4      4.121      7.235
REMARK  Name = 
REMARK  8 active torsions:
REMARK  status: ('A' for Active; 'I' for Inactive)
REMARK    1  A    between atoms: C_1  and  C_2
REMARK    2  A    between atoms: C_7  and  C_8
REMARK    3  A    between atoms: N_9  and  S_10
REMARK    4  A    between atoms: S_10  and  C_13
REMARK    5  A    between atoms: C_16  and  C_17
REMARK    6  A    between atoms: C_17  and  C_18
REMARK    7  A    between atoms: C_17  and  C_19
REMARK    8  A    between atoms: C_17  and  C_20
REMARK                            x       y       z     vdW  Elec       q    Type
REMARK                         _______ _______ _______ _____ _____    ______ ____
ROOT
ATOM      1  C   UNL     1      -3.981  11.211  17.587  0.00  0.00    +0.000 C 
ATOM      2  C   UNL     1      -3.106  11.650  18.732  0.00  0.00    +0.000 A 
ATOM      3  C   UNL     1      -3.544  12.688  19.565  0.00  0.00    +0.000 A 
ATOM      4  C   UNL     1      -2.754  13.136  20.625  0.00  0.00    +0.000 A 
ATOM      5  C   UNL     1      -1.513  12.546  20.888  0.00  0.00    +0.000 A 
ATOM      6  C   UNL     1      -1.087  11.480  20.080  0.00  0.00    +0.000 A 
ATOM      7  C   UNL     1      -1.855  11.040  18.979  0.00  0.00    +0.000 A 
ATOM      8  C   UNL     1      -1.322  10.015  18.009  0.00  0.00    +0.000 C 
ATOM      9  N   UNL     1       0.195  10.899  20.336  0.00  0.00    +0.000 N 
ATOM     10  C   UNL     1       1.371  11.702  20.037  0.00  0.00    +0.000 C 
ATOM     11  C   UNL     1       1.553  13.006  20.772  0.00  0.00    +0.000 A 
ATOM     12  C   UNL     1       2.764  13.689  20.550  0.00  0.00    +0.000 A 
ATOM     13  C   UNL     1       3.014  14.902  21.173  0.00  0.00    +0.000 A 
ATOM     14  C   UNL     1       2.040  15.387  22.018  0.00  0.00    +0.000 A 
ATOM     15 CL   UNL     1       2.249  16.881  22.832  0.00  0.00    +0.000 Cl
ATOM     16  N   UNL     1       0.867  14.774  22.261  0.00  0.00    +0.000 NA
ATOM     17  C   UNL     1       0.616  13.607  21.623  0.00  0.00    +0.000 A 
ATOM     18  N   UNL     1      -0.668  13.109  21.870  0.00  0.00    +0.000 N 
ATOM     19  H   UNL     1      -1.132  13.792  22.465  0.00  0.00    +0.000 HD
ENDROOT
BRANCH   9  20
ATOM     20  S   UNL     1       0.323   9.483  21.230  0.00  0.00    +0.000 S 
ATOM     21  O   UNL     1       0.955   9.750  22.505  0.00  0.00    +0.000 OA
ATOM     22  O   UNL     1      -0.982   8.840  21.191  0.00  0.00    +0.000 OA
BRANCH  20  23
ATOM     23  C   UNL     1       1.417   8.434  20.292  0.00  0.00    +0.000 A 
ATOM     24  C   UNL     1       1.794   7.197  20.806  0.00  0.00    +0.000 A 
ATOM     25  C   UNL     1       2.582   6.333  20.033  0.00  0.00    +0.000 A 
ATOM     26  C   UNL     1       3.006   6.677  18.735  0.00  0.00    +0.000 A 
ATOM     27  C   UNL     1       2.573   7.915  18.226  0.00  0.00    +0.000 A 
ATOM     28  C   UNL     1       1.779   8.783  18.988  0.00  0.00    +0.000 A 
BRANCH  26  29
ATOM     29  C   UNL     1       3.914   5.754  17.895  0.00  0.00    +0.000 C 
ATOM     30  C   UNL     1       5.122   5.205  18.691  0.00  0.00    +0.000 C 
ATOM     31  C   UNL     1       3.120   4.541  17.366  0.00  0.00    +0.000 C 
ATOM     32  C   UNL     1       4.487   6.529  16.688  0.00  0.00    +0.000 C 
ENDBRANCH  26  29
ENDBRANCH  20  23
ENDBRANCH   9  20
TORSDOF 3
ENDMDL
MODEL 6
REMARK VINA RESULT:      -7.4      5.789     11.603
REMARK  Name = 
REMARK  8 active torsions:
REMARK  status: ('A' for Active; 'I' for Inactive)
REMARK    1  A    between atoms: C_1  and  C_2
REMARK    2  A    between atoms: C_7  and  C_8
REMARK    3  A    between atoms: N_9  and  S_10
REMARK    4  A    between atoms: S_10  and  C_13
REMARK    5  A    between atoms: C_16  and  C_17
REMARK    6  A    between atoms: C_17  and  C_18
REMARK    7  A    between atoms: C_17  and  C_19
REMARK    8  A    between atoms: C_17  and  C_20
REMARK                            x       y       z     vdW  Elec       q    Type
REMARK                         _______ _______ _______ _____ _____    ______ ____
ROOT
ATOM      1  C   UNL     1      -5.330  11.810  18.033  0.00  0.00    +0.000 C 
ATOM      2  C   UNL     1      -3.864  11.475  17.959  0.00  0.00    +0.000 A 
ATOM      3  C   UNL     1      -3.383  10.763  16.852  0.00  0.00    +0.000 A 
ATOM      4  C   UNL     1      -2.034  10.416  16.756  0.00  0.00    +0.000 A 
ATOM      5  C   UNL     1      -1.129  10.788  17.757  0.00  0.00    +0.000 A 
ATOM      6  C   UNL     1      -1.599  11.535  18.849  0.00  0.00    +0.000 A 
ATOM      7  C   UNL     1      -2.967  11.860  18.983  0.00  0.00    +0.000 A 
ATOM      8  C   UNL     1      -3.501  12.509  20.235  0.00  0.00    +0.000 C 
ATOM      9  N   UNL     1      -0.675  11.887  19.883  0.00  0.00    +0.000 N 
ATOM     10  C   UNL     1      -0.169  10.817  20.729  0.00  0.00    +0.000 C 
ATOM     11  C   UNL     1       0.616   9.704  20.081  0.00  0.00    +0.000 A 
ATOM     12  C   UNL     1       1.197   8.759  20.948  0.00  0.00    +0.000 A 
ATOM     13  C   UNL     1       1.926   7.694  20.442  0.00  0.00    +0.000 A 
ATOM     14  C   UNL     1       2.065   7.620  19.074  0.00  0.00    +0.000 A 
ATOM     15 CL   UNL     1       2.942   6.338  18.348  0.00  0.00    +0.000 Cl
ATOM     16  N   UNL     1       1.527   8.495  18.205  0.00  0.00    +0.000 NA
ATOM     17  C   UNL     1       0.789   9.513  18.704  0.00  0.00    +0.000 A 
ATOM     18  N   UNL     1       0.197  10.303  17.711  0.00  0.00    +0.000 N 
ATOM     19  H   UNL     1       0.447   9.880  16.820  0.00  0.00    +0.000 HD
ENDROOT
BRANCH   9  20
ATOM     20  S   UNL     1       0.025  13.414  19.911  0.00  0.00    +0.000 S 
ATOM     21  O   UNL     1       1.449  13.307  20.152  0.00  0.00    +0.000 OA
ATOM     22  O   UNL     1      -0.457  14.122  18.735  0.00  0.00    +0.000 OA
BRANCH  20  23
ATOM     23  C   UNL     1      -0.702  14.237  21.315  0.00  0.00    +0.000 A 
ATOM     24  C   UNL     1      -0.707  13.607  22.556  0.00  0.00    +0.000 A 
ATOM     25  C   UNL     1      -1.197  14.287  23.679  0.00  0.00    +0.000 A 
ATOM     26  C   UNL     1      -1.687  15.605  23.595  0.00  0.00    +0.000 A 
ATOM     27  C   UNL     1      -1.628  16.231  22.335  0.00  0.00    +0.000 A 
ATOM     28  C   UNL     1      -1.132  15.562  21.208  0.00  0.00    +0.000 A 
BRANCH  26  29
ATOM     29  C   UNL     1      -2.274  16.345  24.815  0.00  0.00    +0.000 C 
ATOM     30  C   UNL     1      -2.109  17.880  24.730  0.00  0.00    +0.000 C 
ATOM     31  C   UNL     1      -3.782  16.049  24.959  0.00  0.00    +0.000 C 
ATOM     32  C   UNL     1      -1.559  15.887  26.106  0.00  0.00    +0.000 C 
ENDBRANCH  26  29
ENDBRANCH  20  23
ENDBRANCH   9  20
TORSDOF 3
ENDMDL
MODEL 7
REMARK VINA RESULT:      -7.3      7.752     10.956
REMARK  Name = 
REMARK  8 active torsions:
REMARK  status: ('A' for Active; 'I' for Inactive)
REMARK    1  A    between atoms: C_1  and  C_2
REMARK    2  A    between atoms: C_7  and  C_8
REMARK    3  A    between atoms: N_9  and  S_10
REMARK    4  A    between atoms: S_10  and  C_13
REMARK    5  A    between atoms: C_16  and  C_17
REMARK    6  A    between atoms: C_17  and  C_18
REMARK    7  A    between atoms: C_17  and  C_19
REMARK    8  A    between atoms: C_17  and  C_20
REMARK                            x       y       z     vdW  Elec       q    Type
REMARK                         _______ _______ _______ _____ _____    ______ ____
ROOT
ATOM      1  C   UNL     1      -7.460  12.139  21.079  0.00  0.00    +0.000 C 
ATOM      2  C   UNL     1      -6.073  12.208  20.497  0.00  0.00    +0.000 A 
ATOM      3  C   UNL     1      -5.865  11.786  19.178  0.00  0.00    +0.000 A 
ATOM      4  C   UNL     1      -4.590  11.816  18.610  0.00  0.00    +0.000 A 
ATOM      5  C   UNL     1      -3.494  12.287  19.341  0.00  0.00    +0.000 A 
ATOM      6  C   UNL     1      -3.705  12.749  20.651  0.00  0.00    +0.000 A 
ATOM      7  C   UNL     1      -4.980  12.687  21.256  0.00  0.00    +0.000 A 
ATOM      8  C   UNL     1      -5.173  13.020  22.714  0.00  0.00    +0.000 C 
ATOM      9  N   UNL     1      -2.576  13.202  21.404  0.00  0.00    +0.000 N 
ATOM     10  C   UNL     1      -1.601  12.207  21.825  0.00  0.00    +0.000 C 
ATOM     11  C   UNL     1      -0.874  11.424  20.761  0.00  0.00    +0.000 A 
ATOM     12  C   UNL     1       0.150  10.565  21.203  0.00  0.00    +0.000 A 
ATOM     13  C   UNL     1       0.865   9.796  20.298  0.00  0.00    +0.000 A 
ATOM     14  C   UNL     1       0.538   9.926  18.967  0.00  0.00    +0.000 A 
ATOM     15 CL   UNL     1       1.357   9.015  17.768  0.00  0.00    +0.000 Cl
ATOM     16  N   UNL     1      -0.433  10.730  18.495  0.00  0.00    +0.000 NA
ATOM     17  C   UNL     1      -1.149  11.452  19.387  0.00  0.00    +0.000 A 
ATOM     18  N   UNL     1      -2.195  12.174  18.800  0.00  0.00    +0.000 N 
ATOM     19  H   UNL     1      -2.184  11.942  17.809  0.00  0.00    +0.000 HD
ENDROOT
BRANCH   9  20
ATOM     20  S   UNL     1      -2.239  14.844  21.523  0.00  0.00    +0.000 S 
ATOM     21  O   UNL     1      -3.210  15.610  20.770  0.00  0.00    +0.000 OA
ATOM     22  O   UNL     1      -2.030  15.131  22.934  0.00  0.00    +0.000 OA
BRANCH  20  23
ATOM     23  C   UNL     1      -0.653  15.055  20.737  0.00  0.00    +0.000 A 
ATOM     24  C   UNL     1      -0.585  15.219  19.357  0.00  0.00    +0.000 A 
ATOM     25  C   UNL     1       0.650  15.473  18.746  0.00  0.00    +0.000 A 
ATOM     26  C   UNL     1       1.840  15.576  19.492  0.00  0.00    +0.000 A 
ATOM     27  C   UNL     1       1.733  15.450  20.890  0.00  0.00    +0.000 A 
ATOM     28  C   UNL     1       0.501  15.202  21.510  0.00  0.00    +0.000 A 
BRANCH  26  29
ATOM     29  C   UNL     1       3.212  15.808  18.825  0.00  0.00    +0.000 C 
ATOM     30  C   UNL     1       3.931  14.492  18.446  0.00  0.00    +0.000 C 
ATOM     31  C   UNL     1       3.058  16.638  17.533  0.00  0.00    +0.000 C 
ATOM     32  C   UNL     1       4.149  16.570  19.789  0.00  0.00    +0.000 C 
ENDBRANCH  26  29
ENDBRANCH  20  23
ENDBRANCH   9  20
TORSDOF 3
ENDMDL
MODEL 8
REMARK VINA RESULT:      -7.3      5.963     11.650
REMARK  Name = 
REMARK  8 active torsions:
REMARK  status: ('A' for Active; 'I' for Inactive)
REMARK    1  A    between atoms: C_1  and  C_2
REMARK    2  A    between atoms: C_7  and  C_8
REMARK    3  A    between atoms: N_9  and  S_10
REMARK    4  A    between atoms: S_10  and  C_13
REMARK    5  A    between atoms: C_16  and  C_17
REMARK    6  A    between atoms: C_17  and  C_18
REMARK    7  A    between atoms: C_17  and  C_19
REMARK    8  A    between atoms: C_17  and  C_20
REMARK                            x       y       z     vdW  Elec       q    Type
REMARK                         _______ _______ _______ _____ _____    ______ ____
ROOT
ATOM      1  C   UNL     1      -5.237  11.808  17.988  0.00  0.00    +0.000 C 
ATOM      2  C   UNL     1      -3.776  11.442  17.996  0.00  0.00    +0.000 A 
ATOM      3  C   UNL     1      -3.270  10.636  16.968  0.00  0.00    +0.000 A 
ATOM      4  C   UNL     1      -1.926  10.259  16.950  0.00  0.00    +0.000 A 
ATOM      5  C   UNL     1      -1.051  10.693  17.951  0.00  0.00    +0.000 A 
ATOM      6  C   UNL     1      -1.544  11.534  18.962  0.00  0.00    +0.000 A 
ATOM      7  C   UNL     1      -2.909  11.892  19.018  0.00  0.00    +0.000 A 
ATOM      8  C   UNL     1      -3.474  12.649  20.194  0.00  0.00    +0.000 C 
ATOM      9  N   UNL     1      -0.651  11.952  19.998  0.00  0.00    +0.000 N 
ATOM     10  C   UNL     1      -0.198  10.944  20.945  0.00  0.00    +0.000 C 
ATOM     11  C   UNL     1       0.588   9.770  20.418  0.00  0.00    +0.000 A 
ATOM     12  C   UNL     1       1.117   8.887  21.378  0.00  0.00    +0.000 A 
ATOM     13  C   UNL     1       1.843   7.772  20.986  0.00  0.00    +0.000 A 
ATOM     14  C   UNL     1       2.028   7.586  19.635  0.00  0.00    +0.000 A 
ATOM     15 CL   UNL     1       2.905   6.235  19.046  0.00  0.00    +0.000 Cl
ATOM     16  N   UNL     1       1.541   8.398  18.679  0.00  0.00    +0.000 NA
ATOM     17  C   UNL     1       0.805   9.466  19.068  0.00  0.00    +0.000 A 
ATOM     18  N   UNL     1       0.266  10.183  17.994  0.00  0.00    +0.000 N 
ATOM     19  H   UNL     1       0.539   9.687  17.149  0.00  0.00    +0.000 HD
ENDROOT
BRANCH   9  20
ATOM     20  S   UNL     1       0.079  13.463  19.932  0.00  0.00    +0.000 S 
ATOM     21  O   UNL     1       1.508  13.338  20.131  0.00  0.00    +0.000 OA
ATOM     22  O   UNL     1      -0.429  14.126  18.741  0.00  0.00    +0.000 OA
BRANCH  20  23
ATOM     23  C   UNL     1      -0.584  14.365  21.319  0.00  0.00    +0.000 A 
ATOM     24  C   UNL     1      -1.217  15.586  21.107  0.00  0.00    +0.000 A 
ATOM     25  C   UNL     1      -1.817  16.255  22.183  0.00  0.00    +0.000 A 
ATOM     26  C   UNL     1      -1.806  15.723  23.487  0.00  0.00    +0.000 A 
ATOM     27  C   UNL     1      -1.196  14.466  23.662  0.00  0.00    +0.000 A 
ATOM     28  C   UNL     1      -0.600  13.787  22.591  0.00  0.00    +0.000 A 
BRANCH  26  29
ATOM     29  C   UNL     1      -2.420  16.474  24.687  0.00  0.00    +0.000 C 
ATOM     30  C   UNL     1      -1.688  16.190  26.019  0.00  0.00    +0.000 C 
ATOM     31  C   UNL     1      -2.380  17.999  24.455  0.00  0.00    +0.000 C 
ATOM     32  C   UNL     1      -3.892  16.046  24.883  0.00  0.00    +0.000 C 
ENDBRANCH  26  29
ENDBRANCH  20  23
ENDBRANCH   9  20
TORSDOF 3
ENDMDL
MODEL 9
REMARK VINA RESULT:      -7.2      6.344     12.049
REMARK  Name = 
REMARK  8 active torsions:
REMARK  status: ('A' for Active; 'I' for Inactive)
REMARK    1  A    between atoms: C_1  and  C_2
REMARK    2  A    between atoms: C_7  and  C_8
REMARK    3  A    between atoms: N_9  and  S_10
REMARK    4  A    between atoms: S_10  and  C_13
REMARK    5  A    between atoms: C_16  and  C_17
REMARK    6  A    between atoms: C_17  and  C_18
REMARK    7  A    between atoms: C_17  and  C_19
REMARK    8  A    between atoms: C_17  and  C_20
REMARK                            x       y       z     vdW  Elec       q    Type
REMARK                         _______ _______ _______ _____ _____    ______ ____
ROOT
ATOM      1  C   UNL     1      -5.460  11.709  17.533  0.00  0.00    +0.000 C 
ATOM      2  C   UNL     1      -3.989  11.450  17.725  0.00  0.00    +0.000 A 
ATOM      3  C   UNL     1      -3.285  10.751  16.736  0.00  0.00    +0.000 A 
ATOM      4  C   UNL     1      -1.925  10.474  16.886  0.00  0.00    +0.000 A 
ATOM      5  C   UNL     1      -1.230  10.905  18.022  0.00  0.00    +0.000 A 
ATOM      6  C   UNL     1      -1.923  11.640  18.997  0.00  0.00    +0.000 A 
ATOM      7  C   UNL     1      -3.307  11.895  18.882  0.00  0.00    +0.000 A 
ATOM      8  C   UNL     1      -4.085  12.531  20.006  0.00  0.00    +0.000 C 
ATOM      9  N   UNL     1      -1.214  12.054  20.170  0.00  0.00    +0.000 N 
ATOM     10  C   UNL     1      -0.813  11.023  21.115  0.00  0.00    +0.000 C 
ATOM     11  C   UNL     1       0.128   9.945  20.640  0.00  0.00    +0.000 A 
ATOM     12  C   UNL     1       0.593   9.043  21.616  0.00  0.00    +0.000 A 
ATOM     13  C   UNL     1       1.452   8.011  21.270  0.00  0.00    +0.000 A 
ATOM     14  C   UNL     1       1.833   7.927  19.949  0.00  0.00    +0.000 A 
ATOM     15 CL   UNL     1       2.887   6.684  19.417  0.00  0.00    +0.000 Cl
ATOM     16  N   UNL     1       1.415   8.762  18.980  0.00  0.00    +0.000 NA
ATOM     17  C   UNL     1       0.550   9.746  19.319  0.00  0.00    +0.000 A 
ATOM     18  N   UNL     1       0.105  10.490  18.221  0.00  0.00    +0.000 N 
ATOM     19  H   UNL     1       0.529  10.070  17.397  0.00  0.00    +0.000 HD
ENDROOT
BRANCH   9  20
ATOM     20  S   UNL     1      -0.606  13.616  20.287  0.00  0.00    +0.000 S 
ATOM     21  O   UNL     1       0.657  13.610  20.995  0.00  0.00    +0.000 OA
ATOM     22  O   UNL     1      -0.686  14.202  18.958  0.00  0.00    +0.000 OA
BRANCH  20  23
ATOM     23  C   UNL     1      -1.784  14.503  21.289  0.00  0.00    +0.000 A 
ATOM     24  C   UNL     1      -2.459  15.595  20.754  0.00  0.00    +0.000 A 
ATOM     25  C   UNL     1      -3.449  16.240  21.508  0.00  0.00    +0.000 A 
ATOM     26  C   UNL     1      -3.792  15.810  22.805  0.00  0.00    +0.000 A 
ATOM     27  C   UNL     1      -3.123  14.676  23.302  0.00  0.00    +0.000 A 
ATOM     28  C   UNL     1      -2.136  14.021  22.552  0.00  0.00    +0.000 A 
BRANCH  26  29
ATOM     29  C   UNL     1      -4.846  16.542  23.662  0.00  0.00    +0.000 C 
ATOM     30  C   UNL     1      -6.104  15.686  23.938  0.00  0.00    +0.000 C 
ATOM     31  C   UNL     1      -4.253  16.945  25.029  0.00  0.00    +0.000 C 
ATOM     32  C   UNL     1      -5.322  17.821  22.938  0.00  0.00    +0.000 C 
ENDBRANCH  26  29
ENDBRANCH  20  23
ENDBRANCH   9  20
TORSDOF 3
ENDMDL
