MODEL 1
REMARK VINA RESULT:      -8.1      0.000      0.000
REMARK  Name = 
REMARK  4 active torsions:
REMARK  status: ('A' for Active; 'I' for Inactive)
REMARK    1  A    between atoms: C_1  and  N_2
REMARK    2  A    between atoms: C_6  and  C_7
REMARK    3  A    between atoms: N_10  and  S_11
REMARK    4  A    between atoms: S_11  and  C_14
REMARK                            x       y       z     vdW  Elec       q    Type
REMARK                         _______ _______ _______ _____ _____    ______ ____
ROOT
ATOM      1  C   UNL     1       2.209   7.443  19.804  0.00  0.00    +0.000 C 
ATOM      2  C   UNL     1       1.806   6.039  20.242  0.00  0.00    +0.000 C 
ATOM      3  C   UNL     1       3.071   5.206  20.243  0.00  0.00    +0.000 C 
ATOM      4  N   UNL     1       3.718   5.183  18.895  0.00  0.00    +0.000 NA
ATOM      5  C   UNL     1       3.807   6.513  18.185  0.00  0.00    +0.000 C 
ATOM      6  C   UNL     1       2.533   7.370  18.322  0.00  0.00    +0.000 C 
ENDROOT
BRANCH   1  12
ATOM      7  C   UNL     1       1.532   9.939  18.274  0.00  0.00    +0.000 C 
ATOM      8  N   UNL     1       0.988   9.609  19.572  0.00  0.00    +0.000 N 
ATOM      9  C   UNL     1       0.161  10.402  20.306  0.00  0.00    +0.000 A 
ATOM     10  N   UNL     1      -0.157   9.833  21.444  0.00  0.00    +0.000 NA
ATOM     11  C   UNL     1       0.512   8.630  21.457  0.00  0.00    +0.000 A 
ATOM     12  C   UNL     1       1.248   8.464  20.303  0.00  0.00    +0.000 A 
ENDBRANCH   1  12
BRANCH   4  13
ATOM     13  S   UNL     1       5.271   4.395  18.948  0.00  0.00    +0.000 S 
ATOM     14  O   UNL     1       6.173   5.226  19.721  0.00  0.00    +0.000 OA
ATOM     15  O   UNL     1       5.014   3.028  19.349  0.00  0.00    +0.000 OA
BRANCH  13  16
ATOM     16  C   UNL     1       5.810   4.437  17.284  0.00  0.00    +0.000 A 
ATOM     17  C   UNL     1       4.937   4.010  16.292  0.00  0.00    +0.000 A 
ATOM     18  F   UNL     1       3.720   3.538  16.592  0.00  0.00    +0.000 F 
ATOM     19  C   UNL     1       5.313   4.050  14.950  0.00  0.00    +0.000 A 
ATOM     20  C   UNL     1       6.574   4.525  14.594  0.00  0.00    +0.000 A 
ATOM     21  C   UNL     1       7.451   4.956  15.589  0.00  0.00    +0.000 A 
ATOM     22  C   UNL     1       7.064   4.911  16.933  0.00  0.00    +0.000 A 
ATOM     23  F   UNL     1       7.948   5.334  17.845  0.00  0.00    +0.000 F 
ENDBRANCH  13  16
ENDBRANCH   4  13
TORSDOF 3
ENDMDL
MODEL 2
REMARK VINA RESULT:      -8.0      0.086      1.726
REMARK  Name = 
REMARK  4 active torsions:
REMARK  status: ('A' for Active; 'I' for Inactive)
REMARK    1  A    between atoms: C_1  and  N_2
REMARK    2  A    between atoms: C_6  and  C_7
REMARK    3  A    between atoms: N_10  and  S_11
REMARK    4  A    between atoms: S_11  and  C_14
REMARK                            x       y       z     vdW  Elec       q    Type
REMARK                         _______ _______ _______ _____ _____    ______ ____
ROOT
ATOM      1  C   UNL     1       2.175   7.433  19.864  0.00  0.00    +0.000 C 
ATOM      2  C   UNL     1       1.799   6.024  20.310  0.00  0.00    +0.000 C 
ATOM      3  C   UNL     1       3.073   5.206  20.287  0.00  0.00    +0.000 C 
ATOM      4  N   UNL     1       3.695   5.191  18.927  0.00  0.00    +0.000 NA
ATOM      5  C   UNL     1       3.754   6.522  18.215  0.00  0.00    +0.000 C 
ATOM      6  C   UNL     1       2.473   7.363  18.375  0.00  0.00    +0.000 C 
ENDROOT
BRANCH   1  12
ATOM      7  C   UNL     1       1.475   9.943  18.368  0.00  0.00    +0.000 C 
ATOM      8  N   UNL     1       0.941   9.594  19.665  0.00  0.00    +0.000 N 
ATOM      9  C   UNL     1       0.114  10.373  20.413  0.00  0.00    +0.000 A 
ATOM     10  N   UNL     1      -0.195   9.788  21.547  0.00  0.00    +0.000 NA
ATOM     11  C   UNL     1       0.481   8.589  21.541  0.00  0.00    +0.000 A 
ATOM     12  C   UNL     1       1.212   8.442  20.381  0.00  0.00    +0.000 A 
ENDBRANCH   1  12
BRANCH   4  13
ATOM     13  S   UNL     1       5.258   4.423  18.950  0.00  0.00    +0.000 S 
ATOM     14  O   UNL     1       6.167   5.269  19.699  0.00  0.00    +0.000 OA
ATOM     15  O   UNL     1       5.027   3.055  19.365  0.00  0.00    +0.000 OA
BRANCH  13  16
ATOM     16  C   UNL     1       5.761   4.461  17.275  0.00  0.00    +0.000 A 
ATOM     17  C   UNL     1       7.048   4.888  16.977  0.00  0.00    +0.000 A 
ATOM     18  F   UNL     1       7.884   5.302  17.940  0.00  0.00    +0.000 F 
ATOM     19  C   UNL     1       7.503   4.911  15.660  0.00  0.00    +0.000 A 
ATOM     20  C   UNL     1       6.662   4.499  14.627  0.00  0.00    +0.000 A 
ATOM     21  C   UNL     1       5.370   4.067  14.924  0.00  0.00    +0.000 A 
ATOM     22  C   UNL     1       4.924   4.049  16.250  0.00  0.00    +0.000 A 
ATOM     23  F   UNL     1       3.673   3.629  16.476  0.00  0.00    +0.000 F 
ENDBRANCH  13  16
ENDBRANCH   4  13
TORSDOF 3
ENDMDL
MODEL 3
REMARK VINA RESULT:      -7.9      0.729      1.216
REMARK  Name = 
REMARK  4 active torsions:
REMARK  status: ('A' for Active; 'I' for Inactive)
REMARK    1  A    between atoms: C_1  and  N_2
REMARK    2  A    between atoms: C_6  and  C_7
REMARK    3  A    between atoms: N_10  and  S_11
REMARK    4  A    between atoms: S_11  and  C_14
REMARK                            x       y       z     vdW  Elec       q    Type
REMARK                         _______ _______ _______ _____ _____    ______ ____
ROOT
ATOM      1  C   UNL     1       2.170   7.953  19.243  0.00  0.00    +0.000 C 
ATOM      2  C   UNL     1       1.708   6.621  19.823  0.00  0.00    +0.000 C 
ATOM      3  C   UNL     1       2.946   5.762  19.977  0.00  0.00    +0.000 C 
ATOM      4  N   UNL     1       3.649   5.565  18.672  0.00  0.00    +0.000 NA
ATOM      5  C   UNL     1       3.807   6.801  17.817  0.00  0.00    +0.000 C 
ATOM      6  C   UNL     1       2.555   7.699  17.795  0.00  0.00    +0.000 C 
ENDROOT
BRANCH   1  12
ATOM      7  C   UNL     1       1.568   8.797  22.064  0.00  0.00    +0.000 C 
ATOM      8  N   UNL     1       0.958   9.384  20.892  0.00  0.00    +0.000 N 
ATOM      9  C   UNL     1      -0.012  10.338  20.901  0.00  0.00    +0.000 A 
ATOM     10  N   UNL     1      -0.369  10.666  19.682  0.00  0.00    +0.000 NA
ATOM     11  C   UNL     1       0.387   9.872  18.849  0.00  0.00    +0.000 A 
ATOM     12  C   UNL     1       1.220   9.050  19.576  0.00  0.00    +0.000 A 
ENDBRANCH   1  12
BRANCH   4  13
ATOM     13  S   UNL     1       5.174   4.751  18.887  0.00  0.00    +0.000 S 
ATOM     14  O   UNL     1       6.055   5.631  19.629  0.00  0.00    +0.000 OA
ATOM     15  O   UNL     1       4.857   3.435  19.399  0.00  0.00    +0.000 OA
BRANCH  13  16
ATOM     16  C   UNL     1       5.805   4.623  17.260  0.00  0.00    +0.000 A 
ATOM     17  C   UNL     1       5.003   4.053  16.280  0.00  0.00    +0.000 A 
ATOM     18  F   UNL     1       3.786   3.573  16.569  0.00  0.00    +0.000 F 
ATOM     19  C   UNL     1       5.451   3.953  14.964  0.00  0.00    +0.000 A 
ATOM     20  C   UNL     1       6.715   4.432  14.622  0.00  0.00    +0.000 A 
ATOM     21  C   UNL     1       7.521   5.007  15.604  0.00  0.00    +0.000 A 
ATOM     22  C   UNL     1       7.061   5.101  16.922  0.00  0.00    +0.000 A 
ATOM     23  F   UNL     1       7.878   5.658  17.824  0.00  0.00    +0.000 F 
ENDBRANCH  13  16
ENDBRANCH   4  13
TORSDOF 3
ENDMDL
MODEL 4
REMARK VINA RESULT:      -7.7      1.239      2.002
REMARK  Name = 
REMARK  4 active torsions:
REMARK  status: ('A' for Active; 'I' for Inactive)
REMARK    1  A    between atoms: C_1  and  N_2
REMARK    2  A    between atoms: C_6  and  C_7
REMARK    3  A    between atoms: N_10  and  S_11
REMARK    4  A    between atoms: S_11  and  C_14
REMARK                            x       y       z     vdW  Elec       q    Type
REMARK                         _______ _______ _______ _____ _____    ______ ____
ROOT
ATOM      1  C   UNL     1       2.161   6.960  19.709  0.00  0.00    +0.000 C 
ATOM      2  C   UNL     1       1.827   5.736  20.555  0.00  0.00    +0.000 C 
ATOM      3  C   UNL     1       2.924   4.723  20.305  0.00  0.00    +0.000 C 
ATOM      4  N   UNL     1       3.025   4.363  18.857  0.00  0.00    +0.000 NA
ATOM      5  C   UNL     1       2.962   5.518  17.886  0.00  0.00    +0.000 C 
ATOM      6  C   UNL     1       1.909   6.579  18.259  0.00  0.00    +0.000 C 
ENDROOT
BRANCH   1  12
ATOM      7  C   UNL     1       1.680   9.436  18.076  0.00  0.00    +0.000 C 
ATOM      8  N   UNL     1       1.367   9.316  19.482  0.00  0.00    +0.000 N 
ATOM      9  C   UNL     1       0.883  10.313  20.271  0.00  0.00    +0.000 A 
ATOM     10  N   UNL     1       0.705   9.902  21.504  0.00  0.00    +0.000 NA
ATOM     11  C   UNL     1       1.114   8.587  21.518  0.00  0.00    +0.000 A 
ATOM     12  C   UNL     1       1.545   8.193  20.269  0.00  0.00    +0.000 A 
ENDBRANCH   1  12
BRANCH   4  13
ATOM     13  S   UNL     1       4.413   3.357  18.546  0.00  0.00    +0.000 S 
ATOM     14  O   UNL     1       4.978   2.960  19.821  0.00  0.00    +0.000 OA
ATOM     15  O   UNL     1       3.977   2.354  17.599  0.00  0.00    +0.000 OA
BRANCH  13  16
ATOM     16  C   UNL     1       5.548   4.447  17.782  0.00  0.00    +0.000 A 
ATOM     17  C   UNL     1       6.188   5.397  18.568  0.00  0.00    +0.000 A 
ATOM     18  F   UNL     1       5.922   5.512  19.876  0.00  0.00    +0.000 F 
ATOM     19  C   UNL     1       7.120   6.269  18.009  0.00  0.00    +0.000 A 
ATOM     20  C   UNL     1       7.419   6.191  16.650  0.00  0.00    +0.000 A 
ATOM     21  C   UNL     1       6.779   5.236  15.860  0.00  0.00    +0.000 A 
ATOM     22  C   UNL     1       5.845   4.365  16.431  0.00  0.00    +0.000 A 
ATOM     23  F   UNL     1       5.258   3.472  15.625  0.00  0.00    +0.000 F 
ENDBRANCH  13  16
ENDBRANCH   4  13
TORSDOF 3
ENDMDL
MODEL 5
REMARK VINA RESULT:      -7.7      0.783      2.123
REMARK  Name = 
REMARK  4 active torsions:
REMARK  status: ('A' for Active; 'I' for Inactive)
REMARK    1  A    between atoms: C_1  and  N_2
REMARK    2  A    between atoms: C_6  and  C_7
REMARK    3  A    between atoms: N_10  and  S_11
REMARK    4  A    between atoms: S_11  and  C_14
REMARK                            x       y       z     vdW  Elec       q    Type
REMARK                         _______ _______ _______ _____ _____    ______ ____
ROOT
ATOM      1  C   UNL     1       2.081   8.056  19.328  0.00  0.00    +0.000 C 
ATOM      2  C   UNL     1       1.577   6.716  19.852  0.00  0.00    +0.000 C 
ATOM      3  C   UNL     1       2.790   5.821  19.993  0.00  0.00    +0.000 C 
ATOM      4  N   UNL     1       3.508   5.653  18.692  0.00  0.00    +0.000 NA
ATOM      5  C   UNL     1       3.711   6.914  17.886  0.00  0.00    +0.000 C 
ATOM      6  C   UNL     1       2.482   7.844  17.878  0.00  0.00    +0.000 C 
ENDROOT
BRANCH   1  12
ATOM      7  C   UNL     1       1.564   8.904  22.164  0.00  0.00    +0.000 C 
ATOM      8  N   UNL     1       0.931   9.500  21.009  0.00  0.00    +0.000 N 
ATOM      9  C   UNL     1      -0.027  10.466  21.045  0.00  0.00    +0.000 A 
ATOM     10  N   UNL     1      -0.413  10.799  19.836  0.00  0.00    +0.000 NA
ATOM     11  C   UNL     1       0.311   9.997  18.983  0.00  0.00    +0.000 A 
ATOM     12  C   UNL     1       1.154   9.163  19.687  0.00  0.00    +0.000 A 
ENDBRANCH   1  12
BRANCH   4  13
ATOM     13  S   UNL     1       5.009   4.793  18.899  0.00  0.00    +0.000 S 
ATOM     14  O   UNL     1       5.917   5.642  19.647  0.00  0.00    +0.000 OA
ATOM     15  O   UNL     1       4.655   3.484  19.404  0.00  0.00    +0.000 OA
BRANCH  13  16
ATOM     16  C   UNL     1       5.634   4.658  17.271  0.00  0.00    +0.000 A 
ATOM     17  C   UNL     1       6.930   5.087  17.019  0.00  0.00    +0.000 A 
ATOM     18  F   UNL     1       7.683   5.631  17.985  0.00  0.00    +0.000 F 
ATOM     19  C   UNL     1       7.481   4.975  15.744  0.00  0.00    +0.000 A 
ATOM     20  C   UNL     1       6.729   4.424  14.708  0.00  0.00    +0.000 A 
ATOM     21  C   UNL     1       5.427   3.990  14.959  0.00  0.00    +0.000 A 
ATOM     22  C   UNL     1       4.885   4.108  16.243  0.00  0.00    +0.000 A 
ATOM     23  F   UNL     1       3.630   3.679  16.426  0.00  0.00    +0.000 F 
ENDBRANCH  13  16
ENDBRANCH   4  13
TORSDOF 3
ENDMDL
MODEL 6
REMARK VINA RESULT:      -7.7      1.234      1.555
REMARK  Name = 
REMARK  4 active torsions:
REMARK  status: ('A' for Active; 'I' for Inactive)
REMARK    1  A    between atoms: C_1  and  N_2
REMARK    2  A    between atoms: C_6  and  C_7
REMARK    3  A    between atoms: N_10  and  S_11
REMARK    4  A    between atoms: S_11  and  C_14
REMARK                            x       y       z     vdW  Elec       q    Type
REMARK                         _______ _______ _______ _____ _____    ______ ____
ROOT
ATOM      1  C   UNL     1       2.173   6.966  19.707  0.00  0.00    +0.000 C 
ATOM      2  C   UNL     1       1.853   5.746  20.564  0.00  0.00    +0.000 C 
ATOM      3  C   UNL     1       2.951   4.736  20.307  0.00  0.00    +0.000 C 
ATOM      4  N   UNL     1       3.037   4.368  18.860  0.00  0.00    +0.000 NA
ATOM      5  C   UNL     1       2.959   5.517  17.884  0.00  0.00    +0.000 C 
ATOM      6  C   UNL     1       1.906   6.577  18.262  0.00  0.00    +0.000 C 
ENDROOT
BRANCH   1  12
ATOM      7  C   UNL     1       1.712   9.449  18.078  0.00  0.00    +0.000 C 
ATOM      8  N   UNL     1       1.390   9.326  19.482  0.00  0.00    +0.000 N 
ATOM      9  C   UNL     1       0.906  10.324  20.271  0.00  0.00    +0.000 A 
ATOM     10  N   UNL     1       0.719   9.910  21.502  0.00  0.00    +0.000 NA
ATOM     11  C   UNL     1       1.122   8.593  21.514  0.00  0.00    +0.000 A 
ATOM     12  C   UNL     1       1.559   8.200  20.267  0.00  0.00    +0.000 A 
ENDBRANCH   1  12
BRANCH   4  13
ATOM     13  S   UNL     1       4.424   3.365  18.540  0.00  0.00    +0.000 S 
ATOM     14  O   UNL     1       4.965   2.921  19.810  0.00  0.00    +0.000 OA
ATOM     15  O   UNL     1       4.000   2.396  17.551  0.00  0.00    +0.000 OA
BRANCH  13  16
ATOM     16  C   UNL     1       5.579   4.473  17.833  0.00  0.00    +0.000 A 
ATOM     17  C   UNL     1       5.787   4.430  16.460  0.00  0.00    +0.000 A 
ATOM     18  F   UNL     1       5.152   3.536  15.689  0.00  0.00    +0.000 F 
ATOM     19  C   UNL     1       6.676   5.310  15.848  0.00  0.00    +0.000 A 
ATOM     20  C   UNL     1       7.365   6.249  16.616  0.00  0.00    +0.000 A 
ATOM     21  C   UNL     1       7.156   6.296  17.994  0.00  0.00    +0.000 A 
ATOM     22  C   UNL     1       6.260   5.406  18.597  0.00  0.00    +0.000 A 
ATOM     23  F   UNL     1       6.102   5.494  19.924  0.00  0.00    +0.000 F 
ENDBRANCH  13  16
ENDBRANCH   4  13
TORSDOF 3
ENDMDL
MODEL 7
REMARK VINA RESULT:      -7.7      1.969      2.652
REMARK  Name = 
REMARK  4 active torsions:
REMARK  status: ('A' for Active; 'I' for Inactive)
REMARK    1  A    between atoms: C_1  and  N_2
REMARK    2  A    between atoms: C_6  and  C_7
REMARK    3  A    between atoms: N_10  and  S_11
REMARK    4  A    between atoms: S_11  and  C_14
REMARK                            x       y       z     vdW  Elec       q    Type
REMARK                         _______ _______ _______ _____ _____    ______ ____
ROOT
ATOM      1  C   UNL     1       1.064   9.009  19.378  0.00  0.00    +0.000 C 
ATOM      2  C   UNL     1       2.242   8.938  18.413  0.00  0.00    +0.000 C 
ATOM      3  C   UNL     1       2.423   7.478  18.055  0.00  0.00    +0.000 C 
ATOM      4  N   UNL     1       2.670   6.638  19.267  0.00  0.00    +0.000 NA
ATOM      5  C   UNL     1       1.781   6.919  20.455  0.00  0.00    +0.000 C 
ATOM      6  C   UNL     1       1.534   8.421  20.698  0.00  0.00    +0.000 C 
ENDROOT
BRANCH   1  12
ATOM      7  C   UNL     1      -1.208   9.698  17.536  0.00  0.00    +0.000 C 
ATOM      8  N   UNL     1      -0.607  10.625  18.468  0.00  0.00    +0.000 N 
ATOM      9  C   UNL     1      -0.932  11.941  18.592  0.00  0.00    +0.000 A 
ATOM     10  N   UNL     1      -0.209  12.524  19.518  0.00  0.00    +0.000 NA
ATOM     11  C   UNL     1       0.636  11.549  19.997  0.00  0.00    +0.000 A 
ATOM     12  C   UNL     1       0.420  10.350  19.352  0.00  0.00    +0.000 A 
ENDBRANCH   1  12
BRANCH   4  13
ATOM     13  S   UNL     1       2.676   4.941  18.875  0.00  0.00    +0.000 S 
ATOM     14  O   UNL     1       2.729   4.191  20.115  0.00  0.00    +0.000 OA
ATOM     15  O   UNL     1       1.581   4.740  17.949  0.00  0.00    +0.000 OA
BRANCH  13  16
ATOM     16  C   UNL     1       4.203   4.712  18.053  0.00  0.00    +0.000 A 
ATOM     17  C   UNL     1       4.204   4.083  16.816  0.00  0.00    +0.000 A 
ATOM     18  F   UNL     1       3.071   3.621  16.270  0.00  0.00    +0.000 F 
ATOM     19  C   UNL     1       5.393   3.902  16.111  0.00  0.00    +0.000 A 
ATOM     20  C   UNL     1       6.596   4.358  16.648  0.00  0.00    +0.000 A 
ATOM     21  C   UNL     1       6.597   4.993  17.890  0.00  0.00    +0.000 A 
ATOM     22  C   UNL     1       5.397   5.169  18.588  0.00  0.00    +0.000 A 
ATOM     23  F   UNL     1       5.458   5.781  19.777  0.00  0.00    +0.000 F 
ENDBRANCH  13  16
ENDBRANCH   4  13
TORSDOF 3
ENDMDL
MODEL 8
REMARK VINA RESULT:      -7.6      1.987      3.078
REMARK  Name = 
REMARK  4 active torsions:
REMARK  status: ('A' for Active; 'I' for Inactive)
REMARK    1  A    between atoms: C_1  and  N_2
REMARK    2  A    between atoms: C_6  and  C_7
REMARK    3  A    between atoms: N_10  and  S_11
REMARK    4  A    between atoms: S_11  and  C_14
REMARK                            x       y       z     vdW  Elec       q    Type
REMARK                         _______ _______ _______ _____ _____    ______ ____
ROOT
ATOM      1  C   UNL     1       1.086   9.048  19.279  0.00  0.00    +0.000 C 
ATOM      2  C   UNL     1       2.253   8.976  18.301  0.00  0.00    +0.000 C 
ATOM      3  C   UNL     1       2.437   7.513  17.953  0.00  0.00    +0.000 C 
ATOM      4  N   UNL     1       2.703   6.685  19.169  0.00  0.00    +0.000 NA
ATOM      5  C   UNL     1       1.826   6.972  20.365  0.00  0.00    +0.000 C 
ATOM      6  C   UNL     1       1.575   8.474  20.598  0.00  0.00    +0.000 C 
ENDROOT
BRANCH   1  12
ATOM      7  C   UNL     1      -1.242   9.695  17.492  0.00  0.00    +0.000 C 
ATOM      8  N   UNL     1      -0.619  10.641  18.390  0.00  0.00    +0.000 N 
ATOM      9  C   UNL     1      -0.947  11.957  18.502  0.00  0.00    +0.000 A 
ATOM     10  N   UNL     1      -0.201  12.560  19.397  0.00  0.00    +0.000 NA
ATOM     11  C   UNL     1       0.663  11.596  19.867  0.00  0.00    +0.000 A 
ATOM     12  C   UNL     1       0.434  10.386  19.249  0.00  0.00    +0.000 A 
ENDBRANCH   1  12
BRANCH   4  13
ATOM     13  S   UNL     1       2.713   4.984  18.792  0.00  0.00    +0.000 S 
ATOM     14  O   UNL     1       2.774   4.245  20.038  0.00  0.00    +0.000 OA
ATOM     15  O   UNL     1       1.616   4.772  17.871  0.00  0.00    +0.000 OA
BRANCH  13  16
ATOM     16  C   UNL     1       4.239   4.754  17.967  0.00  0.00    +0.000 A 
ATOM     17  C   UNL     1       5.402   5.189  18.589  0.00  0.00    +0.000 A 
ATOM     18  F   UNL     1       5.366   5.808  19.777  0.00  0.00    +0.000 F 
ATOM     19  C   UNL     1       6.643   5.004  17.983  0.00  0.00    +0.000 A 
ATOM     20  C   UNL     1       6.725   4.374  16.742  0.00  0.00    +0.000 A 
ATOM     21  C   UNL     1       5.558   3.935  16.117  0.00  0.00    +0.000 A 
ATOM     22  C   UNL     1       4.317   4.126  16.734  0.00  0.00    +0.000 A 
ATOM     23  F   UNL     1       3.230   3.688  16.087  0.00  0.00    +0.000 F 
ENDBRANCH  13  16
ENDBRANCH   4  13
TORSDOF 3
ENDMDL
MODEL 9
REMARK VINA RESULT:      -7.5      4.426      8.056
REMARK  Name = 
REMARK  4 active torsions:
REMARK  status: ('A' for Active; 'I' for Inactive)
REMARK    1  A    between atoms: C_1  and  N_2
REMARK    2  A    between atoms: C_6  and  C_7
REMARK    3  A    between atoms: N_10  and  S_11
REMARK    4  A    between atoms: S_11  and  C_14
REMARK                            x       y       z     vdW  Elec       q    Type
REMARK                         _______ _______ _______ _____ _____    ______ ____
ROOT
ATOM      1  C   UNL     1       2.963   6.733  19.398  0.00  0.00    +0.000 C 
ATOM      2  C   UNL     1       2.386   7.133  18.044  0.00  0.00    +0.000 C 
ATOM      3  C   UNL     1       2.103   8.619  18.116  0.00  0.00    +0.000 C 
ATOM      4  N   UNL     1       1.152   8.948  19.223  0.00  0.00    +0.000 NA
ATOM      5  C   UNL     1       1.418   8.264  20.543  0.00  0.00    +0.000 C 
ATOM      6  C   UNL     1       1.821   6.783  20.399  0.00  0.00    +0.000 C 
ENDROOT
BRANCH   1  12
ATOM      7  C   UNL     1       1.802   3.972  19.162  0.00  0.00    +0.000 C 
ATOM      8  N   UNL     1       3.218   4.257  19.208  0.00  0.00    +0.000 N 
ATOM      9  C   UNL     1       4.211   3.326  19.223  0.00  0.00    +0.000 A 
ATOM     10  N   UNL     1       5.393   3.891  19.275  0.00  0.00    +0.000 NA
ATOM     11  C   UNL     1       5.154   5.246  19.319  0.00  0.00    +0.000 A 
ATOM     12  C   UNL     1       3.801   5.508  19.290  0.00  0.00    +0.000 A 
ENDBRANCH   1  12
BRANCH   4  13
ATOM     13  S   UNL     1       0.987  10.669  19.430  0.00  0.00    +0.000 S 
ATOM     14  O   UNL     1       1.175  10.976  20.835  0.00  0.00    +0.000 OA
ATOM     15  O   UNL     1       1.840  11.277  18.431  0.00  0.00    +0.000 OA
BRANCH  13  16
ATOM     16  C   UNL     1      -0.693  10.971  19.045  0.00  0.00    +0.000 A 
ATOM     17  C   UNL     1      -1.395  11.893  19.810  0.00  0.00    +0.000 A 
ATOM     18  F   UNL     1      -0.821  12.515  20.849  0.00  0.00    +0.000 F 
ATOM     19  C   UNL     1      -2.727  12.186  19.525  0.00  0.00    +0.000 A 
ATOM     20  C   UNL     1      -3.366  11.553  18.460  0.00  0.00    +0.000 A 
ATOM     21  C   UNL     1      -2.662  10.628  17.688  0.00  0.00    +0.000 A 
ATOM     22  C   UNL     1      -1.325  10.342  17.984  0.00  0.00    +0.000 A 
ATOM     23  F   UNL     1      -0.700   9.443  17.213  0.00  0.00    +0.000 F 
ENDBRANCH  13  16
ENDBRANCH   4  13
TORSDOF 3
ENDMDL
