MODEL 1
REMARK VINA RESULT:      -7.8      0.000      0.000
REMARK  Name = 
REMARK  13 active torsions:
REMARK  status: ('A' for Active; 'I' for Inactive)
REMARK    1  A    between atoms: C_1  and  C_2
REMARK    2  A    between atoms: C_2  and  N_3
REMARK    3  A    between atoms: N_3  and  C_4
REMARK    4  A    between atoms: N_7  and  C_8
REMARK    5  A    between atoms: C_8  and  C_9
REMARK    6  A    between atoms: C_8  and  C_10
REMARK    7  A    between atoms: C_13  and  O_14
REMARK    8  A    between atoms: O_14  and  C_15
REMARK    9  A    between atoms: N_18  and  C_19
REMARK   10  A    between atoms: C_22  and  O_23
REMARK   11  A    between atoms: O_23  and  C_24
REMARK   12  A    between atoms: C_24  and  C_25
REMARK   13  A    between atoms: C_24  and  C_26
REMARK                            x       y       z     vdW  Elec       q    Type
REMARK                         _______ _______ _______ _____ _____    ______ ____
ROOT
ATOM      1  C   UNL     1       4.990   4.432  16.948  0.00  0.00    +0.000 A 
ATOM      2  C   UNL     1       5.644   4.393  18.187  0.00  0.00    +0.000 A 
ATOM      3  C   UNL     1       5.120   3.653  19.258  0.00  0.00    +0.000 A 
ATOM      4  C   UNL     1       3.933   2.934  19.110  0.00  0.00    +0.000 A 
ATOM      5  C   UNL     1       3.291   2.947  17.871  0.00  0.00    +0.000 A 
ATOM      6  C   UNL     1       3.809   3.688  16.802  0.00  0.00    +0.000 A 
ENDROOT
BRANCH   1   7
ATOM      7  C   UNL     1       5.559   5.267  15.810  0.00  0.00    +0.000 C 
ATOM      8  C   UNL     1       4.926   6.661  15.771  0.00  0.00    +0.000 C 
BRANCH   7  13
ATOM      9  N   UNL     1       6.079   3.632  12.539  0.00  0.00    +0.000 N 
ATOM     10  C   UNL     1       4.714   3.301  12.161  0.00  0.00    +0.000 C 
ATOM     11  C   UNL     1       6.433   4.204  13.753  0.00  0.00    +0.000 C 
ATOM     12  O   UNL     1       7.599   4.366  14.106  0.00  0.00    +0.000 OA
ATOM     13  N   UNL     1       5.374   4.575  14.542  0.00  0.00    +0.000 N 
ATOM     14  H   UNL     1       4.490   4.716  14.087  0.00  0.00    +0.000 HD
BRANCH   9  16
ATOM     15  C   UNL     1       7.032   1.787  11.173  0.00  0.00    +0.000 C 
ATOM     16  C   UNL     1       7.144   3.238  11.618  0.00  0.00    +0.000 C 
ENDBRANCH   9  16
ENDBRANCH   7  13
ENDBRANCH   1   7
BRANCH   4  17
ATOM     17  O   UNL     1       3.305   2.191  20.079  0.00  0.00    +0.000 OA
BRANCH  17  18
ATOM     18  C   UNL     1       2.742   2.896  21.194  0.00  0.00    +0.000 C 
ATOM     19  C   UNL     1       1.218   2.814  21.132  0.00  0.00    +0.000 C 
ATOM     20  C   UNL     1       0.803   3.992  20.255  0.00  0.00    +0.000 C 
ATOM     21  N   UNL     1       1.811   5.007  20.530  0.00  0.00    +0.000 N 
ATOM     22  C   UNL     1       3.015   4.408  21.120  0.00  0.00    +0.000 C 
BRANCH  21  23
ATOM     23  C   UNL     1       1.761   6.311  20.093  0.00  0.00    +0.000 A 
ATOM     24  C   UNL     1       1.263   7.360  20.879  0.00  0.00    +0.000 A 
ATOM     25  C   UNL     1       1.208   8.682  20.402  0.00  0.00    +0.000 A 
ATOM     26  C   UNL     1       1.671   9.000  19.128  0.00  0.00    +0.000 A 
ATOM     27  C   UNL     1       2.202   7.984  18.347  0.00  0.00    +0.000 A 
ATOM     28  C   UNL     1       2.235   6.669  18.822  0.00  0.00    +0.000 A 
BRANCH  26  29
ATOM     29  O   UNL     1       1.506  10.298  18.731  0.00  0.00    +0.000 OA
BRANCH  29  30
ATOM     30  C   UNL     1       0.249  10.931  19.016  0.00  0.00    +0.000 C 
ATOM     31  C   UNL     1       0.304  12.438  18.763  0.00  0.00    +0.000 C 
ATOM     32  C   UNL     1      -0.774  10.314  18.061  0.00  0.00    +0.000 C 
ENDBRANCH  29  30
ENDBRANCH  26  29
ENDBRANCH  21  23
ENDBRANCH  17  18
ENDBRANCH   4  17
TORSDOF 8
ENDMDL
MODEL 2
REMARK VINA RESULT:      -7.2      0.470      1.295
REMARK  Name = 
REMARK  13 active torsions:
REMARK  status: ('A' for Active; 'I' for Inactive)
REMARK    1  A    between atoms: C_1  and  C_2
REMARK    2  A    between atoms: C_2  and  N_3
REMARK    3  A    between atoms: N_3  and  C_4
REMARK    4  A    between atoms: N_7  and  C_8
REMARK    5  A    between atoms: C_8  and  C_9
REMARK    6  A    between atoms: C_8  and  C_10
REMARK    7  A    between atoms: C_13  and  O_14
REMARK    8  A    between atoms: O_14  and  C_15
REMARK    9  A    between atoms: N_18  and  C_19
REMARK   10  A    between atoms: C_22  and  O_23
REMARK   11  A    between atoms: O_23  and  C_24
REMARK   12  A    between atoms: C_24  and  C_25
REMARK   13  A    between atoms: C_24  and  C_26
REMARK                            x       y       z     vdW  Elec       q    Type
REMARK                         _______ _______ _______ _____ _____    ______ ____
ROOT
ATOM      1  C   UNL     1       5.012   4.594  17.262  0.00  0.00    +0.000 A 
ATOM      2  C   UNL     1       3.985   3.674  17.008  0.00  0.00    +0.000 A 
ATOM      3  C   UNL     1       3.429   2.908  18.043  0.00  0.00    +0.000 A 
ATOM      4  C   UNL     1       3.886   3.048  19.355  0.00  0.00    +0.000 A 
ATOM      5  C   UNL     1       4.890   3.980  19.618  0.00  0.00    +0.000 A 
ATOM      6  C   UNL     1       5.450   4.744  18.586  0.00  0.00    +0.000 A 
ENDROOT
BRANCH   1   7
ATOM      7  C   UNL     1       5.622   5.393  16.119  0.00  0.00    +0.000 C 
ATOM      8  C   UNL     1       4.984   6.782  16.008  0.00  0.00    +0.000 C 
BRANCH   7  13
ATOM      9  N   UNL     1       6.212   3.875  12.804  0.00  0.00    +0.000 N 
ATOM     10  C   UNL     1       4.934   3.229  12.551  0.00  0.00    +0.000 C 
ATOM     11  C   UNL     1       6.530   4.533  13.984  0.00  0.00    +0.000 C 
ATOM     12  O   UNL     1       7.653   4.968  14.230  0.00  0.00    +0.000 OA
ATOM     13  N   UNL     1       5.489   4.658  14.870  0.00  0.00    +0.000 N 
ATOM     14  H   UNL     1       4.560   4.581  14.498  0.00  0.00    +0.000 HD
BRANCH   9  16
ATOM     15  C   UNL     1       7.375   2.300  11.274  0.00  0.00    +0.000 C 
ATOM     16  C   UNL     1       7.252   3.728  11.787  0.00  0.00    +0.000 C 
ENDBRANCH   9  16
ENDBRANCH   7  13
ENDBRANCH   1   7
BRANCH   4  17
ATOM     17  O   UNL     1       3.446   2.347  20.450  0.00  0.00    +0.000 OA
BRANCH  17  18
ATOM     18  C   UNL     1       2.593   3.033  21.377  0.00  0.00    +0.000 C 
ATOM     19  C   UNL     1       1.136   2.855  20.955  0.00  0.00    +0.000 C 
ATOM     20  C   UNL     1       0.878   3.991  19.969  0.00  0.00    +0.000 C 
ATOM     21  N   UNL     1       1.731   5.071  20.447  0.00  0.00    +0.000 N 
ATOM     22  C   UNL     1       2.790   4.558  21.324  0.00  0.00    +0.000 C 
BRANCH  21  23
ATOM     23  C   UNL     1       1.714   6.362  19.971  0.00  0.00    +0.000 A 
ATOM     24  C   UNL     1       2.114   6.700  18.670  0.00  0.00    +0.000 A 
ATOM     25  C   UNL     1       2.104   8.031  18.213  0.00  0.00    +0.000 A 
ATOM     26  C   UNL     1       1.670   9.065  19.039  0.00  0.00    +0.000 A 
ATOM     27  C   UNL     1       1.235   8.749  20.317  0.00  0.00    +0.000 A 
ATOM     28  C   UNL     1       1.267   7.425  20.770  0.00  0.00    +0.000 A 
BRANCH  26  29
ATOM     29  O   UNL     1       1.768  10.329  18.527  0.00  0.00    +0.000 OA
BRANCH  29  30
ATOM     30  C   UNL     1       0.949  11.353  19.111  0.00  0.00    +0.000 C 
ATOM     31  C   UNL     1       1.482  12.752  18.794  0.00  0.00    +0.000 C 
ATOM     32  C   UNL     1      -0.439  11.209  18.485  0.00  0.00    +0.000 C 
ENDBRANCH  29  30
ENDBRANCH  26  29
ENDBRANCH  21  23
ENDBRANCH  17  18
ENDBRANCH   4  17
TORSDOF 8
ENDMDL
MODEL 3
REMARK VINA RESULT:      -7.2      0.309      1.088
REMARK  Name = 
REMARK  13 active torsions:
REMARK  status: ('A' for Active; 'I' for Inactive)
REMARK    1  A    between atoms: C_1  and  C_2
REMARK    2  A    between atoms: C_2  and  N_3
REMARK    3  A    between atoms: N_3  and  C_4
REMARK    4  A    between atoms: N_7  and  C_8
REMARK    5  A    between atoms: C_8  and  C_9
REMARK    6  A    between atoms: C_8  and  C_10
REMARK    7  A    between atoms: C_13  and  O_14
REMARK    8  A    between atoms: O_14  and  C_15
REMARK    9  A    between atoms: N_18  and  C_19
REMARK   10  A    between atoms: C_22  and  O_23
REMARK   11  A    between atoms: O_23  and  C_24
REMARK   12  A    between atoms: C_24  and  C_25
REMARK   13  A    between atoms: C_24  and  C_26
REMARK                            x       y       z     vdW  Elec       q    Type
REMARK                         _______ _______ _______ _____ _____    ______ ____
ROOT
ATOM      1  C   UNL     1       5.063   4.551  17.095  0.00  0.00    +0.000 A 
ATOM      2  C   UNL     1       5.677   4.564  18.355  0.00  0.00    +0.000 A 
ATOM      3  C   UNL     1       5.157   3.814  19.421  0.00  0.00    +0.000 A 
ATOM      4  C   UNL     1       4.013   3.033  19.247  0.00  0.00    +0.000 A 
ATOM      5  C   UNL     1       3.412   2.995  17.988  0.00  0.00    +0.000 A 
ATOM      6  C   UNL     1       3.927   3.745  16.923  0.00  0.00    +0.000 A 
ENDROOT
BRANCH   1   7
ATOM      7  C   UNL     1       5.627   5.396  15.962  0.00  0.00    +0.000 C 
ATOM      8  C   UNL     1       4.965   6.777  15.914  0.00  0.00    +0.000 C 
BRANCH   7  13
ATOM      9  N   UNL     1       6.210   3.801  12.682  0.00  0.00    +0.000 N 
ATOM     10  C   UNL     1       4.862   3.399  12.312  0.00  0.00    +0.000 C 
ATOM     11  C   UNL     1       6.542   4.387  13.896  0.00  0.00    +0.000 C 
ATOM     12  O   UNL     1       7.700   4.610  14.242  0.00  0.00    +0.000 OA
ATOM     13  N   UNL     1       5.470   4.699  14.694  0.00  0.00    +0.000 N 
ATOM     14  H   UNL     1       4.577   4.795  14.245  0.00  0.00    +0.000 HD
BRANCH   9  16
ATOM     15  C   UNL     1       7.193   2.041  11.228  0.00  0.00    +0.000 C 
ATOM     16  C   UNL     1       7.289   3.467  11.753  0.00  0.00    +0.000 C 
ENDBRANCH   9  16
ENDBRANCH   7  13
ENDBRANCH   1   7
BRANCH   4  17
ATOM     17  O   UNL     1       3.391   2.274  20.207  0.00  0.00    +0.000 OA
BRANCH  17  18
ATOM     18  C   UNL     1       2.732   2.967  21.276  0.00  0.00    +0.000 C 
ATOM     19  C   UNL     1       1.219   2.840  21.108  0.00  0.00    +0.000 C 
ATOM     20  C   UNL     1       0.833   4.002  20.196  0.00  0.00    +0.000 C 
ATOM     21  N   UNL     1       1.789   5.047  20.535  0.00  0.00    +0.000 N 
ATOM     22  C   UNL     1       2.966   4.486  21.211  0.00  0.00    +0.000 C 
BRANCH  21  23
ATOM     23  C   UNL     1       1.733   6.347  20.087  0.00  0.00    +0.000 A 
ATOM     24  C   UNL     1       2.193   6.737  18.821  0.00  0.00    +0.000 A 
ATOM     25  C   UNL     1       2.140   8.076  18.393  0.00  0.00    +0.000 A 
ATOM     26  C   UNL     1       1.602   9.066  19.212  0.00  0.00    +0.000 A 
ATOM     27  C   UNL     1       1.107   8.696  20.454  0.00  0.00    +0.000 A 
ATOM     28  C   UNL     1       1.182   7.365  20.879  0.00  0.00    +0.000 A 
BRANCH  26  29
ATOM     29  O   UNL     1       1.664  10.345  18.734  0.00  0.00    +0.000 OA
BRANCH  29  30
ATOM     30  C   UNL     1       0.452  11.115  18.723  0.00  0.00    +0.000 C 
ATOM     31  C   UNL     1      -0.740  10.287  18.238  0.00  0.00    +0.000 C 
ATOM     32  C   UNL     1       0.193  11.538  20.170  0.00  0.00    +0.000 C 
ENDBRANCH  29  30
ENDBRANCH  26  29
ENDBRANCH  21  23
ENDBRANCH  17  18
ENDBRANCH   4  17
TORSDOF 8
ENDMDL
MODEL 4
REMARK VINA RESULT:      -7.2      4.348      6.855
REMARK  Name = 
REMARK  13 active torsions:
REMARK  status: ('A' for Active; 'I' for Inactive)
REMARK    1  A    between atoms: C_1  and  C_2
REMARK    2  A    between atoms: C_2  and  N_3
REMARK    3  A    between atoms: N_3  and  C_4
REMARK    4  A    between atoms: N_7  and  C_8
REMARK    5  A    between atoms: C_8  and  C_9
REMARK    6  A    between atoms: C_8  and  C_10
REMARK    7  A    between atoms: C_13  and  O_14
REMARK    8  A    between atoms: O_14  and  C_15
REMARK    9  A    between atoms: N_18  and  C_19
REMARK   10  A    between atoms: C_22  and  O_23
REMARK   11  A    between atoms: O_23  and  C_24
REMARK   12  A    between atoms: C_24  and  C_25
REMARK   13  A    between atoms: C_24  and  C_26
REMARK                            x       y       z     vdW  Elec       q    Type
REMARK                         _______ _______ _______ _____ _____    ______ ____
ROOT
ATOM      1  C   UNL     1       2.419   5.683  18.770  0.00  0.00    +0.000 A 
ATOM      2  C   UNL     1       2.492   6.815  17.946  0.00  0.00    +0.000 A 
ATOM      3  C   UNL     1       2.149   8.086  18.430  0.00  0.00    +0.000 A 
ATOM      4  C   UNL     1       1.729   8.253  19.751  0.00  0.00    +0.000 A 
ATOM      5  C   UNL     1       1.679   7.135  20.585  0.00  0.00    +0.000 A 
ATOM      6  C   UNL     1       2.018   5.864  20.103  0.00  0.00    +0.000 A 
ENDROOT
BRANCH   1   7
ATOM      7  C   UNL     1       2.765   4.310  18.215  0.00  0.00    +0.000 C 
ATOM      8  C   UNL     1       2.739   3.242  19.314  0.00  0.00    +0.000 C 
BRANCH   7  13
ATOM      9  N   UNL     1       6.354   4.731  17.451  0.00  0.00    +0.000 N 
ATOM     10  C   UNL     1       6.391   4.387  16.039  0.00  0.00    +0.000 C 
ATOM     11  C   UNL     1       5.216   4.651  18.241  0.00  0.00    +0.000 C 
ATOM     12  O   UNL     1       5.227   4.828  19.458  0.00  0.00    +0.000 OA
ATOM     13  N   UNL     1       4.064   4.350  17.559  0.00  0.00    +0.000 N 
ATOM     14  H   UNL     1       4.055   4.532  16.572  0.00  0.00    +0.000 HD
BRANCH   9  16
ATOM     15  C   UNL     1       7.783   6.582  18.295  0.00  0.00    +0.000 C 
ATOM     16  C   UNL     1       7.621   5.082  18.090  0.00  0.00    +0.000 C 
ENDBRANCH   9  16
ENDBRANCH   7  13
ENDBRANCH   1   7
BRANCH   4  17
ATOM     17  O   UNL     1       1.346   9.431  20.341  0.00  0.00    +0.000 OA
BRANCH  17  18
ATOM     18  C   UNL     1       0.685  10.401  19.518  0.00  0.00    +0.000 C 
ATOM     19  C   UNL     1       1.286  11.782  19.774  0.00  0.00    +0.000 C 
ATOM     20  C   UNL     1       0.496  12.334  20.957  0.00  0.00    +0.000 C 
ATOM     21  N   UNL     1      -0.832  11.759  20.791  0.00  0.00    +0.000 N 
ATOM     22  C   UNL     1      -0.792  10.584  19.911  0.00  0.00    +0.000 C 
BRANCH  21  23
ATOM     23  C   UNL     1      -1.941  12.102  21.529  0.00  0.00    +0.000 A 
ATOM     24  C   UNL     1      -2.016  11.928  22.919  0.00  0.00    +0.000 A 
ATOM     25  C   UNL     1      -3.168  12.271  23.649  0.00  0.00    +0.000 A 
ATOM     26  C   UNL     1      -4.277  12.822  23.012  0.00  0.00    +0.000 A 
ATOM     27  C   UNL     1      -4.212  13.037  21.644  0.00  0.00    +0.000 A 
ATOM     28  C   UNL     1      -3.069  12.675  20.923  0.00  0.00    +0.000 A 
BRANCH  26  29
ATOM     29  O   UNL     1      -5.373  13.052  23.797  0.00  0.00    +0.000 OA
BRANCH  29  30
ATOM     30  C   UNL     1      -6.590  13.450  23.149  0.00  0.00    +0.000 C 
ATOM     31  C   UNL     1      -7.669  12.371  23.261  0.00  0.00    +0.000 C 
ATOM     32  C   UNL     1      -7.079  14.704  23.874  0.00  0.00    +0.000 C 
ENDBRANCH  29  30
ENDBRANCH  26  29
ENDBRANCH  21  23
ENDBRANCH  17  18
ENDBRANCH   4  17
TORSDOF 8
ENDMDL
MODEL 5
REMARK VINA RESULT:      -7.0      3.287      5.410
REMARK  Name = 
REMARK  13 active torsions:
REMARK  status: ('A' for Active; 'I' for Inactive)
REMARK    1  A    between atoms: C_1  and  C_2
REMARK    2  A    between atoms: C_2  and  N_3
REMARK    3  A    between atoms: N_3  and  C_4
REMARK    4  A    between atoms: N_7  and  C_8
REMARK    5  A    between atoms: C_8  and  C_9
REMARK    6  A    between atoms: C_8  and  C_10
REMARK    7  A    between atoms: C_13  and  O_14
REMARK    8  A    between atoms: O_14  and  C_15
REMARK    9  A    between atoms: N_18  and  C_19
REMARK   10  A    between atoms: C_22  and  O_23
REMARK   11  A    between atoms: O_23  and  C_24
REMARK   12  A    between atoms: C_24  and  C_25
REMARK   13  A    between atoms: C_24  and  C_26
REMARK                            x       y       z     vdW  Elec       q    Type
REMARK                         _______ _______ _______ _____ _____    ______ ____
ROOT
ATOM      1  C   UNL     1       5.079   5.812  18.101  0.00  0.00    +0.000 A 
ATOM      2  C   UNL     1       4.255   5.523  19.198  0.00  0.00    +0.000 A 
ATOM      3  C   UNL     1       3.116   6.296  19.470  0.00  0.00    +0.000 A 
ATOM      4  C   UNL     1       2.776   7.373  18.649  0.00  0.00    +0.000 A 
ATOM      5  C   UNL     1       3.577   7.650  17.540  0.00  0.00    +0.000 A 
ATOM      6  C   UNL     1       4.717   6.882  17.268  0.00  0.00    +0.000 A 
ENDROOT
BRANCH   1   7
ATOM      7  C   UNL     1       6.327   4.980  17.843  0.00  0.00    +0.000 C 
ATOM      8  C   UNL     1       7.500   5.452  18.707  0.00  0.00    +0.000 C 
BRANCH   7  13
ATOM      9  N   UNL     1       6.578   4.305  14.221  0.00  0.00    +0.000 N 
ATOM     10  C   UNL     1       7.554   5.302  13.808  0.00  0.00    +0.000 C 
ATOM     11  C   UNL     1       6.075   4.198  15.509  0.00  0.00    +0.000 C 
ATOM     12  O   UNL     1       5.163   3.431  15.813  0.00  0.00    +0.000 OA
ATOM     13  N   UNL     1       6.671   5.022  16.429  0.00  0.00    +0.000 N 
ATOM     14  H   UNL     1       7.586   5.370  16.207  0.00  0.00    +0.000 HD
BRANCH   9  16
ATOM     15  C   UNL     1       6.766   3.558  11.858  0.00  0.00    +0.000 C 
ATOM     16  C   UNL     1       6.025   3.438  13.182  0.00  0.00    +0.000 C 
ENDBRANCH   9  16
ENDBRANCH   7  13
ENDBRANCH   1   7
BRANCH   4  17
ATOM     17  O   UNL     1       1.707   8.218  18.815  0.00  0.00    +0.000 OA
BRANCH  17  18
ATOM     18  C   UNL     1       1.493   9.221  17.813  0.00  0.00    +0.000 C 
ATOM     19  C   UNL     1       2.067  10.553  18.293  0.00  0.00    +0.000 C 
ATOM     20  C   UNL     1       0.936  11.194  19.093  0.00  0.00    +0.000 C 
ATOM     21  N   UNL     1      -0.273  10.726  18.429  0.00  0.00    +0.000 N 
ATOM     22  C   UNL     1      -0.001   9.533  17.617  0.00  0.00    +0.000 C 
BRANCH  21  23
ATOM     23  C   UNL     1      -1.546  11.176  18.694  0.00  0.00    +0.000 A 
ATOM     24  C   UNL     1      -2.664  10.788  17.941  0.00  0.00    +0.000 A 
ATOM     25  C   UNL     1      -3.953  11.275  18.222  0.00  0.00    +0.000 A 
ATOM     26  C   UNL     1      -4.169  12.151  19.282  0.00  0.00    +0.000 A 
ATOM     27  C   UNL     1      -3.083  12.520  20.063  0.00  0.00    +0.000 A 
ATOM     28  C   UNL     1      -1.801  12.045  19.764  0.00  0.00    +0.000 A 
BRANCH  26  29
ATOM     29  O   UNL     1      -5.443  12.624  19.427  0.00  0.00    +0.000 OA
BRANCH  29  30
ATOM     30  C   UNL     1      -6.524  11.770  19.022  0.00  0.00    +0.000 C 
ATOM     31  C   UNL     1      -7.427  11.403  20.201  0.00  0.00    +0.000 C 
ATOM     32  C   UNL     1      -7.348  12.564  18.007  0.00  0.00    +0.000 C 
ENDBRANCH  29  30
ENDBRANCH  26  29
ENDBRANCH  21  23
ENDBRANCH  17  18
ENDBRANCH   4  17
TORSDOF 8
ENDMDL
MODEL 6
REMARK VINA RESULT:      -6.9      3.120      9.596
REMARK  Name = 
REMARK  13 active torsions:
REMARK  status: ('A' for Active; 'I' for Inactive)
REMARK    1  A    between atoms: C_1  and  C_2
REMARK    2  A    between atoms: C_2  and  N_3
REMARK    3  A    between atoms: N_3  and  C_4
REMARK    4  A    between atoms: N_7  and  C_8
REMARK    5  A    between atoms: C_8  and  C_9
REMARK    6  A    between atoms: C_8  and  C_10
REMARK    7  A    between atoms: C_13  and  O_14
REMARK    8  A    between atoms: O_14  and  C_15
REMARK    9  A    between atoms: N_18  and  C_19
REMARK   10  A    between atoms: C_22  and  O_23
REMARK   11  A    between atoms: O_23  and  C_24
REMARK   12  A    between atoms: C_24  and  C_25
REMARK   13  A    between atoms: C_24  and  C_26
REMARK                            x       y       z     vdW  Elec       q    Type
REMARK                         _______ _______ _______ _____ _____    ______ ____
ROOT
ATOM      1  C   UNL     1      -0.122  10.704  19.996  0.00  0.00    +0.000 A 
ATOM      2  C   UNL     1       0.650  10.280  18.905  0.00  0.00    +0.000 A 
ATOM      3  C   UNL     1       1.479   9.153  19.002  0.00  0.00    +0.000 A 
ATOM      4  C   UNL     1       1.551   8.423  20.190  0.00  0.00    +0.000 A 
ATOM      5  C   UNL     1       0.764   8.824  21.271  0.00  0.00    +0.000 A 
ATOM      6  C   UNL     1      -0.062   9.951  21.178  0.00  0.00    +0.000 A 
ENDROOT
BRANCH   1   7
ATOM      7  C   UNL     1      -0.991  11.948  19.879  0.00  0.00    +0.000 C 
ATOM      8  C   UNL     1      -2.047  11.788  18.780  0.00  0.00    +0.000 C 
BRANCH   7  13
ATOM      9  N   UNL     1       1.175  14.915  20.259  0.00  0.00    +0.000 N 
ATOM     10  C   UNL     1       1.329  15.340  18.877  0.00  0.00    +0.000 C 
ATOM     11  C   UNL     1       0.495  13.770  20.650  0.00  0.00    +0.000 C 
ATOM     12  O   UNL     1       0.477  13.361  21.809  0.00  0.00    +0.000 OA
ATOM     13  N   UNL     1      -0.159  13.117  19.635  0.00  0.00    +0.000 N 
ATOM     14  H   UNL     1      -0.374  13.649  18.812  0.00  0.00    +0.000 HD
BRANCH   9  16
ATOM     15  C   UNL     1       2.358  17.041  20.767  0.00  0.00    +0.000 C 
ATOM     16  C   UNL     1       1.871  15.694  21.282  0.00  0.00    +0.000 C 
ENDBRANCH   9  16
ENDBRANCH   7  13
ENDBRANCH   1   7
BRANCH   4  17
ATOM     17  O   UNL     1       2.334   7.320  20.423  0.00  0.00    +0.000 OA
BRANCH  17  18
ATOM     18  C   UNL     1       1.894   6.068  19.880  0.00  0.00    +0.000 C 
ATOM     19  C   UNL     1       2.661   4.926  20.545  0.00  0.00    +0.000 C 
ATOM     20  C   UNL     1       3.930   4.776  19.709  0.00  0.00    +0.000 C 
ATOM     21  N   UNL     1       3.509   5.143  18.364  0.00  0.00    +0.000 N 
ATOM     22  C   UNL     1       2.264   5.920  18.394  0.00  0.00    +0.000 C 
BRANCH  21  23
ATOM     23  C   UNL     1       4.274   5.000  17.229  0.00  0.00    +0.000 A 
ATOM     24  C   UNL     1       4.752   6.092  16.490  0.00  0.00    +0.000 A 
ATOM     25  C   UNL     1       5.519   5.919  15.323  0.00  0.00    +0.000 A 
ATOM     26  C   UNL     1       5.851   4.645  14.871  0.00  0.00    +0.000 A 
ATOM     27  C   UNL     1       5.420   3.551  15.607  0.00  0.00    +0.000 A 
ATOM     28  C   UNL     1       4.642   3.732  16.756  0.00  0.00    +0.000 A 
BRANCH  26  29
ATOM     29  O   UNL     1       6.536   4.582  13.689  0.00  0.00    +0.000 OA
BRANCH  29  30
ATOM     30  C   UNL     1       6.263   3.476  12.815  0.00  0.00    +0.000 C 
ATOM     31  C   UNL     1       4.861   3.565  12.210  0.00  0.00    +0.000 C 
ATOM     32  C   UNL     1       7.287   3.555  11.682  0.00  0.00    +0.000 C 
ENDBRANCH  29  30
ENDBRANCH  26  29
ENDBRANCH  21  23
ENDBRANCH  17  18
ENDBRANCH   4  17
TORSDOF 8
ENDMDL
MODEL 7
REMARK VINA RESULT:      -6.9      2.997      9.339
REMARK  Name = 
REMARK  13 active torsions:
REMARK  status: ('A' for Active; 'I' for Inactive)
REMARK    1  A    between atoms: C_1  and  C_2
REMARK    2  A    between atoms: C_2  and  N_3
REMARK    3  A    between atoms: N_3  and  C_4
REMARK    4  A    between atoms: N_7  and  C_8
REMARK    5  A    between atoms: C_8  and  C_9
REMARK    6  A    between atoms: C_8  and  C_10
REMARK    7  A    between atoms: C_13  and  O_14
REMARK    8  A    between atoms: O_14  and  C_15
REMARK    9  A    between atoms: N_18  and  C_19
REMARK   10  A    between atoms: C_22  and  O_23
REMARK   11  A    between atoms: O_23  and  C_24
REMARK   12  A    between atoms: C_24  and  C_25
REMARK   13  A    between atoms: C_24  and  C_26
REMARK                            x       y       z     vdW  Elec       q    Type
REMARK                         _______ _______ _______ _____ _____    ______ ____
ROOT
ATOM      1  C   UNL     1       0.787  10.058  19.372  0.00  0.00    +0.000 A 
ATOM      2  C   UNL     1       1.633   9.294  18.556  0.00  0.00    +0.000 A 
ATOM      3  C   UNL     1       2.132   8.057  18.990  0.00  0.00    +0.000 A 
ATOM      4  C   UNL     1       1.792   7.556  20.249  0.00  0.00    +0.000 A 
ATOM      5  C   UNL     1       0.929   8.300  21.055  0.00  0.00    +0.000 A 
ATOM      6  C   UNL     1       0.433   9.537  20.626  0.00  0.00    +0.000 A 
ENDROOT
BRANCH   1   7
ATOM      7  C   UNL     1       0.283  11.412  18.893  0.00  0.00    +0.000 C 
ATOM      8  C   UNL     1       1.405  12.455  18.889  0.00  0.00    +0.000 C 
BRANCH   7  13
ATOM      9  N   UNL     1      -3.041  12.450  20.126  0.00  0.00    +0.000 N 
ATOM     10  C   UNL     1      -2.751  12.753  21.518  0.00  0.00    +0.000 C 
ATOM     11  C   UNL     1      -2.112  11.932  19.233  0.00  0.00    +0.000 C 
ATOM     12  O   UNL     1      -2.403  11.568  18.095  0.00  0.00    +0.000 OA
ATOM     13  N   UNL     1      -0.832  11.850  19.720  0.00  0.00    +0.000 N 
ATOM     14  H   UNL     1      -0.600  12.439  20.499  0.00  0.00    +0.000 HD
BRANCH   9  16
ATOM     15  C   UNL     1      -5.426  12.512  20.821  0.00  0.00    +0.000 C 
ATOM     16  C   UNL     1      -4.424  12.605  19.679  0.00  0.00    +0.000 C 
ENDBRANCH   9  16
ENDBRANCH   7  13
ENDBRANCH   1   7
BRANCH   4  17
ATOM     17  O   UNL     1       2.226   6.377  20.801  0.00  0.00    +0.000 OA
BRANCH  17  18
ATOM     18  C   UNL     1       1.866   5.160  20.134  0.00  0.00    +0.000 C 
ATOM     19  C   UNL     1       2.733   4.016  20.656  0.00  0.00    +0.000 C 
ATOM     20  C   UNL     1       3.987   4.054  19.786  0.00  0.00    +0.000 C 
ATOM     21  N   UNL     1       3.505   4.529  18.496  0.00  0.00    +0.000 N 
ATOM     22  C   UNL     1       2.206   5.201  18.633  0.00  0.00    +0.000 C 
BRANCH  21  23
ATOM     23  C   UNL     1       4.248   4.567  17.339  0.00  0.00    +0.000 A 
ATOM     24  C   UNL     1       4.640   3.412  16.646  0.00  0.00    +0.000 A 
ATOM     25  C   UNL     1       5.415   3.478  15.474  0.00  0.00    +0.000 A 
ATOM     26  C   UNL     1       5.803   4.705  14.944  0.00  0.00    +0.000 A 
ATOM     27  C   UNL     1       5.396   5.862  15.592  0.00  0.00    +0.000 A 
ATOM     28  C   UNL     1       4.642   5.786  16.769  0.00  0.00    +0.000 A 
BRANCH  26  29
ATOM     29  O   UNL     1       6.615   4.660  13.845  0.00  0.00    +0.000 OA
BRANCH  29  30
ATOM     30  C   UNL     1       6.348   3.653  12.856  0.00  0.00    +0.000 C 
ATOM     31  C   UNL     1       4.924   3.764  12.308  0.00  0.00    +0.000 C 
ATOM     32  C   UNL     1       7.331   3.898  11.711  0.00  0.00    +0.000 C 
ENDBRANCH  29  30
ENDBRANCH  26  29
ENDBRANCH  21  23
ENDBRANCH  17  18
ENDBRANCH   4  17
TORSDOF 8
ENDMDL
MODEL 8
REMARK VINA RESULT:      -6.8      4.702     11.486
REMARK  Name = 
REMARK  13 active torsions:
REMARK  status: ('A' for Active; 'I' for Inactive)
REMARK    1  A    between atoms: C_1  and  C_2
REMARK    2  A    between atoms: C_2  and  N_3
REMARK    3  A    between atoms: N_3  and  C_4
REMARK    4  A    between atoms: N_7  and  C_8
REMARK    5  A    between atoms: C_8  and  C_9
REMARK    6  A    between atoms: C_8  and  C_10
REMARK    7  A    between atoms: C_13  and  O_14
REMARK    8  A    between atoms: O_14  and  C_15
REMARK    9  A    between atoms: N_18  and  C_19
REMARK   10  A    between atoms: C_22  and  O_23
REMARK   11  A    between atoms: O_23  and  C_24
REMARK   12  A    between atoms: C_24  and  C_25
REMARK   13  A    between atoms: C_24  and  C_26
REMARK                            x       y       z     vdW  Elec       q    Type
REMARK                         _______ _______ _______ _____ _____    ______ ____
ROOT
ATOM      1  C   UNL     1      -4.207  11.708  18.521  0.00  0.00    +0.000 A 
ATOM      2  C   UNL     1      -4.097  10.735  17.518  0.00  0.00    +0.000 A 
ATOM      3  C   UNL     1      -2.855  10.174  17.188  0.00  0.00    +0.000 A 
ATOM      4  C   UNL     1      -1.696  10.571  17.857  0.00  0.00    +0.000 A 
ATOM      5  C   UNL     1      -1.802  11.520  18.875  0.00  0.00    +0.000 A 
ATOM      6  C   UNL     1      -3.040  12.085  19.204  0.00  0.00    +0.000 A 
ENDROOT
BRANCH   1   7
ATOM      7  C   UNL     1      -5.560  12.326  18.841  0.00  0.00    +0.000 C 
ATOM      8  C   UNL     1      -6.281  12.779  17.567  0.00  0.00    +0.000 C 
BRANCH   7  13
ATOM      9  N   UNL     1      -5.453  14.460  21.854  0.00  0.00    +0.000 N 
ATOM     10  C   UNL     1      -5.052  15.739  21.288  0.00  0.00    +0.000 C 
ATOM     11  C   UNL     1      -5.561  13.286  21.122  0.00  0.00    +0.000 C 
ATOM     12  O   UNL     1      -5.782  12.191  21.635  0.00  0.00    +0.000 OA
ATOM     13  N   UNL     1      -5.395  13.436  19.768  0.00  0.00    +0.000 N 
ATOM     14  H   UNL     1      -5.538  14.354  19.388  0.00  0.00    +0.000 HD
BRANCH   9  16
ATOM     15  C   UNL     1      -4.351  14.178  24.064  0.00  0.00    +0.000 C 
ATOM     16  C   UNL     1      -5.650  14.399  23.301  0.00  0.00    +0.000 C 
ENDBRANCH   9  16
ENDBRANCH   7  13
ENDBRANCH   1   7
BRANCH   4  17
ATOM     17  O   UNL     1      -0.422  10.120  17.619  0.00  0.00    +0.000 OA
BRANCH  17  18
ATOM     18  C   UNL     1       0.540  10.261  18.672  0.00  0.00    +0.000 C 
ATOM     19  C   UNL     1       1.918  10.535  18.072  0.00  0.00    +0.000 C 
ATOM     20  C   UNL     1       2.503   9.151  17.802  0.00  0.00    +0.000 C 
ATOM     21  N   UNL     1       1.942   8.320  18.858  0.00  0.00    +0.000 N 
ATOM     22  C   UNL     1       0.750   8.946  19.444  0.00  0.00    +0.000 C 
BRANCH  21  23
ATOM     23  C   UNL     1       2.314   7.023  19.127  0.00  0.00    +0.000 A 
ATOM     24  C   UNL     1       1.974   6.364  20.317  0.00  0.00    +0.000 A 
ATOM     25  C   UNL     1       2.381   5.042  20.575  0.00  0.00    +0.000 A 
ATOM     26  C   UNL     1       3.124   4.329  19.638  0.00  0.00    +0.000 A 
ATOM     27  C   UNL     1       3.440   4.949  18.438  0.00  0.00    +0.000 A 
ATOM     28  C   UNL     1       3.048   6.271  18.198  0.00  0.00    +0.000 A 
BRANCH  26  29
ATOM     29  O   UNL     1       3.533   3.080  20.014  0.00  0.00    +0.000 OA
BRANCH  29  30
ATOM     30  C   UNL     1       2.816   1.953  19.486  0.00  0.00    +0.000 C 
ATOM     31  C   UNL     1       1.410   2.343  19.025  0.00  0.00    +0.000 C 
ATOM     32  C   UNL     1       3.607   1.465  18.272  0.00  0.00    +0.000 C 
ENDBRANCH  29  30
ENDBRANCH  26  29
ENDBRANCH  21  23
ENDBRANCH  17  18
ENDBRANCH   4  17
TORSDOF 8
ENDMDL
MODEL 9
REMARK VINA RESULT:      -6.6      3.128      5.082
REMARK  Name = 
REMARK  13 active torsions:
REMARK  status: ('A' for Active; 'I' for Inactive)
REMARK    1  A    between atoms: C_1  and  C_2
REMARK    2  A    between atoms: C_2  and  N_3
REMARK    3  A    between atoms: N_3  and  C_4
REMARK    4  A    between atoms: N_7  and  C_8
REMARK    5  A    between atoms: C_8  and  C_9
REMARK    6  A    between atoms: C_8  and  C_10
REMARK    7  A    between atoms: C_13  and  O_14
REMARK    8  A    between atoms: O_14  and  C_15
REMARK    9  A    between atoms: N_18  and  C_19
REMARK   10  A    between atoms: C_22  and  O_23
REMARK   11  A    between atoms: O_23  and  C_24
REMARK   12  A    between atoms: C_24  and  C_25
REMARK   13  A    between atoms: C_24  and  C_26
REMARK                            x       y       z     vdW  Elec       q    Type
REMARK                         _______ _______ _______ _____ _____    ______ ____
ROOT
ATOM      1  C   UNL     1       5.099   5.660  17.713  0.00  0.00    +0.000 A 
ATOM      2  C   UNL     1       4.968   6.970  17.231  0.00  0.00    +0.000 A 
ATOM      3  C   UNL     1       3.811   7.721  17.482  0.00  0.00    +0.000 A 
ATOM      4  C   UNL     1       2.759   7.178  18.223  0.00  0.00    +0.000 A 
ATOM      5  C   UNL     1       2.893   5.885  18.729  0.00  0.00    +0.000 A 
ATOM      6  C   UNL     1       4.047   5.131  18.477  0.00  0.00    +0.000 A 
ENDROOT
BRANCH   1   7
ATOM      7  C   UNL     1       6.351   4.853  17.403  0.00  0.00    +0.000 C 
ATOM      8  C   UNL     1       7.541   5.326  18.244  0.00  0.00    +0.000 C 
BRANCH   7  13
ATOM      9  N   UNL     1       6.627   4.178  13.782  0.00  0.00    +0.000 N 
ATOM     10  C   UNL     1       7.429   5.307  13.338  0.00  0.00    +0.000 C 
ATOM     11  C   UNL     1       6.173   4.011  15.083  0.00  0.00    +0.000 C 
ATOM     12  O   UNL     1       5.396   3.117  15.415  0.00  0.00    +0.000 OA
ATOM     13  N   UNL     1       6.655   4.929  15.981  0.00  0.00    +0.000 N 
ATOM     14  H   UNL     1       7.501   5.410  15.735  0.00  0.00    +0.000 HD
BRANCH   9  16
ATOM     15  C   UNL     1       4.880   3.622  12.104  0.00  0.00    +0.000 C 
ATOM     16  C   UNL     1       6.192   3.223  12.765  0.00  0.00    +0.000 C 
ENDBRANCH   9  16
ENDBRANCH   7  13
ENDBRANCH   1   7
BRANCH   4  17
ATOM     17  O   UNL     1       1.569   7.794  18.520  0.00  0.00    +0.000 OA
BRANCH  17  18
ATOM     18  C   UNL     1       1.599   9.205  18.778  0.00  0.00    +0.000 C 
ATOM     19  C   UNL     1       1.195   9.466  20.228  0.00  0.00    +0.000 C 
ATOM     20  C   UNL     1      -0.328   9.563  20.193  0.00  0.00    +0.000 C 
ATOM     21  N   UNL     1      -0.614  10.133  18.884  0.00  0.00    +0.000 N 
ATOM     22  C   UNL     1       0.527   9.962  17.974  0.00  0.00    +0.000 C 
BRANCH  21  23
ATOM     23  C   UNL     1      -1.850  10.561  18.459  0.00  0.00    +0.000 A 
ATOM     24  C   UNL     1      -2.532  11.632  19.055  0.00  0.00    +0.000 A 
ATOM     25  C   UNL     1      -3.804  12.040  18.614  0.00  0.00    +0.000 A 
ATOM     26  C   UNL     1      -4.425  11.401  17.543  0.00  0.00    +0.000 A 
ATOM     27  C   UNL     1      -3.753  10.363  16.915  0.00  0.00    +0.000 A 
ATOM     28  C   UNL     1      -2.497   9.952  17.374  0.00  0.00    +0.000 A 
BRANCH  26  29
ATOM     29  O   UNL     1      -5.689  11.824  17.239  0.00  0.00    +0.000 OA
BRANCH  29  30
ATOM     30  C   UNL     1      -6.749  11.468  18.139  0.00  0.00    +0.000 C 
ATOM     31  C   UNL     1      -6.519  10.093  18.769  0.00  0.00    +0.000 C 
ATOM     32  C   UNL     1      -6.746  12.518  19.251  0.00  0.00    +0.000 C 
ENDBRANCH  29  30
ENDBRANCH  26  29
ENDBRANCH  21  23
ENDBRANCH  17  18
ENDBRANCH   4  17
TORSDOF 8
ENDMDL
