MODEL 1
REMARK VINA RESULT:      -7.7      0.000      0.000
REMARK  Name = 
REMARK  6 active torsions:
REMARK  status: ('A' for Active; 'I' for Inactive)
REMARK    1  A    between atoms: C_1  and  O_2
REMARK    2  A    between atoms: O_2  and  C_3
REMARK    3  A    between atoms: C_6  and  C_7
REMARK    4  A    between atoms: N_13  and  C_14
REMARK    5  A    between atoms: C_14  and  C_15
REMARK    6  A    between atoms: C_15  and  C_16
REMARK                            x       y       z     vdW  Elec       q    Type
REMARK                         _______ _______ _______ _____ _____    ______ ____
ROOT
ATOM      1  C   UNL     1       2.113   8.492  18.694  0.00  0.00    +0.000 C 
ATOM      2  C   UNL     1       2.086   9.577  17.870  0.00  0.00    +0.000 C 
ATOM      3  O   UNL     1       1.327  10.672  18.163  0.00  0.00    +0.000 OA
ATOM      4  C   UNL     1       0.297  10.633  19.097  0.00  0.00    +0.000 C 
ATOM      5  C   UNL     1      -0.902   9.804  18.536  0.00  0.00    +0.000 C 
ATOM      6  C   UNL     1      -1.635  10.556  17.407  0.00  0.00    +0.000 C 
ATOM      7  N   UNL     1      -2.090  11.893  17.853  0.00  0.00    +0.000 NA
ATOM      8  C   UNL     1      -0.903  12.700  18.227  0.00  0.00    +0.000 C 
ATOM      9  C   UNL     1      -0.144  12.079  19.414  0.00  0.00    +0.000 C 
ATOM     10  C   UNL     1       0.853   9.965  20.364  0.00  0.00    +0.000 C 
ATOM     11  C   UNL     1       1.351   8.604  19.977  0.00  0.00    +0.000 C 
ATOM     12  O   UNL     1       1.136   7.648  20.703  0.00  0.00    +0.000 OA
ENDROOT
BRANCH   1  16
ATOM     13  C   UNL     1       4.003   4.924  17.172  0.00  0.00    +0.000 A 
ATOM     14  C   UNL     1       4.603   6.184  17.002  0.00  0.00    +0.000 A 
ATOM     15  C   UNL     1       4.004   7.324  17.520  0.00  0.00    +0.000 A 
ATOM     16  C   UNL     1       2.798   7.244  18.242  0.00  0.00    +0.000 A 
ATOM     17  C   UNL     1       2.227   5.966  18.453  0.00  0.00    +0.000 A 
ATOM     18  C   UNL     1       2.824   4.824  17.915  0.00  0.00    +0.000 A 
BRANCH  13  20
ATOM     19  C   UNL     1       5.718   3.744  15.928  0.00  0.00    +0.000 C 
ATOM     20  O   UNL     1       4.520   3.804  16.610  0.00  0.00    +0.000 OA
ENDBRANCH  13  20
ENDBRANCH   1  16
BRANCH   7  21
ATOM     21  C   UNL     1      -3.127  11.775  18.917  0.00  0.00    +0.000 C 
BRANCH  21  22
ATOM     22  C   UNL     1      -4.569  11.706  18.391  0.00  0.00    +0.000 C 
BRANCH  22  23
ATOM     23  C   UNL     1      -5.544  11.832  19.544  0.00  0.00    +0.000 A 
ATOM     24  C   UNL     1      -5.264  12.692  20.624  0.00  0.00    +0.000 A 
ATOM     25  C   UNL     1      -6.153  12.791  21.699  0.00  0.00    +0.000 A 
ATOM     26  C   UNL     1      -7.327  12.034  21.708  0.00  0.00    +0.000 A 
ATOM     27  C   UNL     1      -7.615  11.180  20.642  0.00  0.00    +0.000 A 
ATOM     28  C   UNL     1      -6.731  11.080  19.564  0.00  0.00    +0.000 A 
ENDBRANCH  22  23
ENDBRANCH  21  22
ENDBRANCH   7  21
TORSDOF 5
ENDMDL
MODEL 2
REMARK VINA RESULT:      -7.6      1.323      2.004
REMARK  Name = 
REMARK  6 active torsions:
REMARK  status: ('A' for Active; 'I' for Inactive)
REMARK    1  A    between atoms: C_1  and  O_2
REMARK    2  A    between atoms: O_2  and  C_3
REMARK    3  A    between atoms: C_6  and  C_7
REMARK    4  A    between atoms: N_13  and  C_14
REMARK    5  A    between atoms: C_14  and  C_15
REMARK    6  A    between atoms: C_15  and  C_16
REMARK                            x       y       z     vdW  Elec       q    Type
REMARK                         _______ _______ _______ _____ _____    ______ ____
ROOT
ATOM      1  C   UNL     1       2.034   8.531  18.695  0.00  0.00    +0.000 C 
ATOM      2  C   UNL     1       1.950   9.659  17.936  0.00  0.00    +0.000 C 
ATOM      3  O   UNL     1       1.229  10.741  18.350  0.00  0.00    +0.000 OA
ATOM      4  C   UNL     1       0.280  10.658  19.363  0.00  0.00    +0.000 C 
ATOM      5  C   UNL     1      -0.970   9.868  18.860  0.00  0.00    +0.000 C 
ATOM      6  C   UNL     1      -1.786  10.685  17.839  0.00  0.00    +0.000 C 
ATOM      7  N   UNL     1      -2.188  11.999  18.393  0.00  0.00    +0.000 NA
ATOM      8  C   UNL     1      -0.965  12.776  18.710  0.00  0.00    +0.000 C 
ATOM      9  C   UNL     1      -0.117  12.087  19.794  0.00  0.00    +0.000 C 
ATOM     10  C   UNL     1       0.932   9.918  20.542  0.00  0.00    +0.000 C 
ATOM     11  C   UNL     1       1.382   8.577  20.042  0.00  0.00    +0.000 C 
ATOM     12  O   UNL     1       1.218   7.583  20.730  0.00  0.00    +0.000 OA
ENDROOT
BRANCH   1  16
ATOM     13  C   UNL     1       3.938   4.938  17.250  0.00  0.00    +0.000 A 
ATOM     14  C   UNL     1       2.673   4.887  17.861  0.00  0.00    +0.000 A 
ATOM     15  C   UNL     1       2.054   6.049  18.296  0.00  0.00    +0.000 A 
ATOM     16  C   UNL     1       2.665   7.305  18.120  0.00  0.00    +0.000 A 
ATOM     17  C   UNL     1       3.915   7.354  17.458  0.00  0.00    +0.000 A 
ATOM     18  C   UNL     1       4.543   6.180  17.037  0.00  0.00    +0.000 A 
BRANCH  13  20
ATOM     19  C   UNL     1       5.732   3.788  16.093  0.00  0.00    +0.000 C 
ATOM     20  O   UNL     1       4.604   3.815  16.887  0.00  0.00    +0.000 OA
ENDBRANCH  13  20
ENDBRANCH   1  16
BRANCH   7  21
ATOM     21  C   UNL     1      -3.135  11.829  19.532  0.00  0.00    +0.000 C 
BRANCH  21  22
ATOM     22  C   UNL     1      -3.591  13.146  20.178  0.00  0.00    +0.000 C 
BRANCH  22  23
ATOM     23  C   UNL     1      -3.838  12.936  21.658  0.00  0.00    +0.000 A 
ATOM     24  C   UNL     1      -2.820  12.418  22.483  0.00  0.00    +0.000 A 
ATOM     25  C   UNL     1      -3.056  12.202  23.845  0.00  0.00    +0.000 A 
ATOM     26  C   UNL     1      -4.305  12.497  24.395  0.00  0.00    +0.000 A 
ATOM     27  C   UNL     1      -5.320  13.012  23.586  0.00  0.00    +0.000 A 
ATOM     28  C   UNL     1      -5.089  13.233  22.226  0.00  0.00    +0.000 A 
ENDBRANCH  22  23
ENDBRANCH  21  22
ENDBRANCH   7  21
TORSDOF 5
ENDMDL
MODEL 3
REMARK VINA RESULT:      -7.6      0.899      1.473
REMARK  Name = 
REMARK  6 active torsions:
REMARK  status: ('A' for Active; 'I' for Inactive)
REMARK    1  A    between atoms: C_1  and  O_2
REMARK    2  A    between atoms: O_2  and  C_3
REMARK    3  A    between atoms: C_6  and  C_7
REMARK    4  A    between atoms: N_13  and  C_14
REMARK    5  A    between atoms: C_14  and  C_15
REMARK    6  A    between atoms: C_15  and  C_16
REMARK                            x       y       z     vdW  Elec       q    Type
REMARK                         _______ _______ _______ _____ _____    ______ ____
ROOT
ATOM      1  C   UNL     1       2.064   8.233  18.728  0.00  0.00    +0.000 C 
ATOM      2  C   UNL     1       1.991   9.273  17.851  0.00  0.00    +0.000 C 
ATOM      3  O   UNL     1       1.405  10.455  18.199  0.00  0.00    +0.000 OA
ATOM      4  C   UNL     1       0.563  10.571  19.300  0.00  0.00    +0.000 C 
ATOM      5  C   UNL     1      -0.791   9.847  19.016  0.00  0.00    +0.000 C 
ATOM      6  C   UNL     1      -1.642  10.616  17.987  0.00  0.00    +0.000 C 
ATOM      7  N   UNL     1      -1.880  12.014  18.415  0.00  0.00    +0.000 NA
ATOM      8  C   UNL     1      -0.573  12.708  18.519  0.00  0.00    +0.000 C 
ATOM      9  C   UNL     1       0.328  12.069  19.593  0.00  0.00    +0.000 C 
ATOM     10  C   UNL     1       1.274   9.911  20.492  0.00  0.00    +0.000 C 
ATOM     11  C   UNL     1       1.563   8.487  20.115  0.00  0.00    +0.000 C 
ATOM     12  O   UNL     1       1.393   7.595  20.930  0.00  0.00    +0.000 OA
ENDROOT
BRANCH   1  16
ATOM     13  C   UNL     1       3.445   4.315  17.563  0.00  0.00    +0.000 A 
ATOM     14  C   UNL     1       2.104   4.526  17.925  0.00  0.00    +0.000 A 
ATOM     15  C   UNL     1       1.660   5.795  18.270  0.00  0.00    +0.000 A 
ATOM     16  C   UNL     1       2.533   6.899  18.247  0.00  0.00    +0.000 A 
ATOM     17  C   UNL     1       3.869   6.687  17.832  0.00  0.00    +0.000 A 
ATOM     18  C   UNL     1       4.316   5.406  17.502  0.00  0.00    +0.000 A 
BRANCH  13  20
ATOM     19  C   UNL     1       3.491   1.913  17.901  0.00  0.00    +0.000 C 
ATOM     20  O   UNL     1       3.928   3.075  17.299  0.00  0.00    +0.000 OA
ENDBRANCH  13  20
ENDBRANCH   1  16
BRANCH   7  21
ATOM     21  C   UNL     1      -2.712  12.058  19.650  0.00  0.00    +0.000 C 
BRANCH  21  22
ATOM     22  C   UNL     1      -3.938  12.978  19.555  0.00  0.00    +0.000 C 
BRANCH  22  23
ATOM     23  C   UNL     1      -5.207  12.164  19.712  0.00  0.00    +0.000 A 
ATOM     24  C   UNL     1      -6.017  12.320  20.854  0.00  0.00    +0.000 A 
ATOM     25  C   UNL     1      -7.175  11.552  21.010  0.00  0.00    +0.000 A 
ATOM     26  C   UNL     1      -7.534  10.621  20.033  0.00  0.00    +0.000 A 
ATOM     27  C   UNL     1      -6.739  10.459  18.897  0.00  0.00    +0.000 A 
ATOM     28  C   UNL     1      -5.583  11.227  18.734  0.00  0.00    +0.000 A 
ENDBRANCH  22  23
ENDBRANCH  21  22
ENDBRANCH   7  21
TORSDOF 5
ENDMDL
MODEL 4
REMARK VINA RESULT:      -7.6      1.286      1.832
REMARK  Name = 
REMARK  6 active torsions:
REMARK  status: ('A' for Active; 'I' for Inactive)
REMARK    1  A    between atoms: C_1  and  O_2
REMARK    2  A    between atoms: O_2  and  C_3
REMARK    3  A    between atoms: C_6  and  C_7
REMARK    4  A    between atoms: N_13  and  C_14
REMARK    5  A    between atoms: C_14  and  C_15
REMARK    6  A    between atoms: C_15  and  C_16
REMARK                            x       y       z     vdW  Elec       q    Type
REMARK                         _______ _______ _______ _____ _____    ______ ____
ROOT
ATOM      1  C   UNL     1       2.009   8.512  18.797  0.00  0.00    +0.000 C 
ATOM      2  C   UNL     1       1.900   9.592  17.974  0.00  0.00    +0.000 C 
ATOM      3  O   UNL     1       1.145  10.674  18.321  0.00  0.00    +0.000 OA
ATOM      4  C   UNL     1       0.189  10.621  19.330  0.00  0.00    +0.000 C 
ATOM      5  C   UNL     1      -1.033   9.767  18.863  0.00  0.00    +0.000 C 
ATOM      6  C   UNL     1      -1.864  10.501  17.792  0.00  0.00    +0.000 C 
ATOM      7  N   UNL     1      -2.308  11.832  18.267  0.00  0.00    +0.000 NA
ATOM      8  C   UNL     1      -1.111  12.661  18.548  0.00  0.00    +0.000 C 
ATOM      9  C   UNL     1      -0.253  12.059  19.677  0.00  0.00    +0.000 C 
ATOM     10  C   UNL     1       0.851   9.968  20.554  0.00  0.00    +0.000 C 
ATOM     11  C   UNL     1       1.344   8.614  20.134  0.00  0.00    +0.000 C 
ATOM     12  O   UNL     1       1.202   7.657  20.876  0.00  0.00    +0.000 OA
ENDROOT
BRANCH   1  16
ATOM     13  C   UNL     1       3.873   4.992  17.137  0.00  0.00    +0.000 A 
ATOM     14  C   UNL     1       4.513   6.241  17.076  0.00  0.00    +0.000 A 
ATOM     15  C   UNL     1       3.921   7.363  17.638  0.00  0.00    +0.000 A 
ATOM     16  C   UNL     1       2.681   7.275  18.297  0.00  0.00    +0.000 A 
ATOM     17  C   UNL     1       2.067   6.004  18.400  0.00  0.00    +0.000 A 
ATOM     18  C   UNL     1       2.658   4.880  17.818  0.00  0.00    +0.000 A 
BRANCH  13  20
ATOM     19  C   UNL     1       5.641   3.821  15.960  0.00  0.00    +0.000 C 
ATOM     20  O   UNL     1       4.386   3.894  16.528  0.00  0.00    +0.000 OA
ENDBRANCH  13  20
ENDBRANCH   1  16
BRANCH   7  21
ATOM     21  C   UNL     1      -3.260  11.699  19.407  0.00  0.00    +0.000 C 
BRANCH  21  22
ATOM     22  C   UNL     1      -3.697  13.035  20.026  0.00  0.00    +0.000 C 
BRANCH  22  23
ATOM     23  C   UNL     1      -3.888  12.873  21.520  0.00  0.00    +0.000 A 
ATOM     24  C   UNL     1      -5.110  13.226  22.125  0.00  0.00    +0.000 A 
ATOM     25  C   UNL     1      -5.277  13.098  23.508  0.00  0.00    +0.000 A 
ATOM     26  C   UNL     1      -4.230  12.621  24.299  0.00  0.00    +0.000 A 
ATOM     27  C   UNL     1      -3.015  12.267  23.709  0.00  0.00    +0.000 A 
ATOM     28  C   UNL     1      -2.844  12.389  22.327  0.00  0.00    +0.000 A 
ENDBRANCH  22  23
ENDBRANCH  21  22
ENDBRANCH   7  21
TORSDOF 5
ENDMDL
MODEL 5
REMARK VINA RESULT:      -7.6      2.030      2.938
REMARK  Name = 
REMARK  6 active torsions:
REMARK  status: ('A' for Active; 'I' for Inactive)
REMARK    1  A    between atoms: C_1  and  O_2
REMARK    2  A    between atoms: O_2  and  C_3
REMARK    3  A    between atoms: C_6  and  C_7
REMARK    4  A    between atoms: N_13  and  C_14
REMARK    5  A    between atoms: C_14  and  C_15
REMARK    6  A    between atoms: C_15  and  C_16
REMARK                            x       y       z     vdW  Elec       q    Type
REMARK                         _______ _______ _______ _____ _____    ______ ____
ROOT
ATOM      1  C   UNL     1       0.884   9.506  20.996  0.00  0.00    +0.000 C 
ATOM      2  C   UNL     1       1.263  10.814  20.959  0.00  0.00    +0.000 C 
ATOM      3  O   UNL     1       0.541  11.780  21.596  0.00  0.00    +0.000 OA
ATOM      4  C   UNL     1      -0.768  11.572  22.020  0.00  0.00    +0.000 C 
ATOM      5  C   UNL     1      -1.723  11.505  20.786  0.00  0.00    +0.000 C 
ATOM      6  C   UNL     1      -1.905  12.888  20.131  0.00  0.00    +0.000 C 
ATOM      7  N   UNL     1      -2.386  13.893  21.108  0.00  0.00    +0.000 NA
ATOM      8  C   UNL     1      -1.371  14.037  22.180  0.00  0.00    +0.000 C 
ATOM      9  C   UNL     1      -1.177  12.725  22.962  0.00  0.00    +0.000 C 
ATOM     10  C   UNL     1      -0.796  10.238  22.782  0.00  0.00    +0.000 C 
ATOM     11  C   UNL     1      -0.300   9.173  21.849  0.00  0.00    +0.000 C 
ATOM     12  O   UNL     1      -0.853   8.086  21.815  0.00  0.00    +0.000 OA
ENDROOT
BRANCH   1  16
ATOM     13  C   UNL     1       2.702   6.586  18.391  0.00  0.00    +0.000 A 
ATOM     14  C   UNL     1       2.414   7.882  17.929  0.00  0.00    +0.000 A 
ATOM     15  C   UNL     1       1.857   8.824  18.780  0.00  0.00    +0.000 A 
ATOM     16  C   UNL     1       1.586   8.514  20.127  0.00  0.00    +0.000 A 
ATOM     17  C   UNL     1       1.926   7.224  20.598  0.00  0.00    +0.000 A 
ATOM     18  C   UNL     1       2.471   6.272  19.733  0.00  0.00    +0.000 A 
BRANCH  13  20
ATOM     19  C   UNL     1       3.406   4.310  17.934  0.00  0.00    +0.000 C 
ATOM     20  O   UNL     1       3.171   5.619  17.564  0.00  0.00    +0.000 OA
ENDBRANCH  13  20
ENDBRANCH   1  16
BRANCH   7  21
ATOM     21  C   UNL     1      -3.757  13.556  21.585  0.00  0.00    +0.000 C 
BRANCH  21  22
ATOM     22  C   UNL     1      -4.878  13.924  20.602  0.00  0.00    +0.000 C 
BRANCH  22  23
ATOM     23  C   UNL     1      -5.549  12.665  20.090  0.00  0.00    +0.000 A 
ATOM     24  C   UNL     1      -5.184  12.120  18.844  0.00  0.00    +0.000 A 
ATOM     25  C   UNL     1      -5.820  10.971  18.361  0.00  0.00    +0.000 A 
ATOM     26  C   UNL     1      -6.824  10.359  19.114  0.00  0.00    +0.000 A 
ATOM     27  C   UNL     1      -7.192  10.891  20.351  0.00  0.00    +0.000 A 
ATOM     28  C   UNL     1      -6.557  12.036  20.840  0.00  0.00    +0.000 A 
ENDBRANCH  22  23
ENDBRANCH  21  22
ENDBRANCH   7  21
TORSDOF 5
ENDMDL
MODEL 6
REMARK VINA RESULT:      -7.5      1.426      2.168
REMARK  Name = 
REMARK  6 active torsions:
REMARK  status: ('A' for Active; 'I' for Inactive)
REMARK    1  A    between atoms: C_1  and  O_2
REMARK    2  A    between atoms: O_2  and  C_3
REMARK    3  A    between atoms: C_6  and  C_7
REMARK    4  A    between atoms: N_13  and  C_14
REMARK    5  A    between atoms: C_14  and  C_15
REMARK    6  A    between atoms: C_15  and  C_16
REMARK                            x       y       z     vdW  Elec       q    Type
REMARK                         _______ _______ _______ _____ _____    ______ ____
ROOT
ATOM      1  C   UNL     1       2.026   8.272  18.752  0.00  0.00    +0.000 C 
ATOM      2  C   UNL     1       1.977   9.327  17.891  0.00  0.00    +0.000 C 
ATOM      3  O   UNL     1       1.355  10.492  18.230  0.00  0.00    +0.000 OA
ATOM      4  C   UNL     1       0.459  10.575  19.291  0.00  0.00    +0.000 C 
ATOM      5  C   UNL     1      -0.867   9.834  18.929  0.00  0.00    +0.000 C 
ATOM      6  C   UNL     1      -1.681  10.608  17.873  0.00  0.00    +0.000 C 
ATOM      7  N   UNL     1      -1.962  11.994  18.314  0.00  0.00    +0.000 NA
ATOM      8  C   UNL     1      -0.674  12.707  18.493  0.00  0.00    +0.000 C 
ATOM      9  C   UNL     1       0.184  12.063  19.599  0.00  0.00    +0.000 C 
ATOM     10  C   UNL     1       1.123   9.904  20.504  0.00  0.00    +0.000 C 
ATOM     11  C   UNL     1       1.453   8.493  20.118  0.00  0.00    +0.000 C 
ATOM     12  O   UNL     1       1.260   7.584  20.908  0.00  0.00    +0.000 OA
ENDROOT
BRANCH   1  16
ATOM     13  C   UNL     1       3.512   4.393  17.586  0.00  0.00    +0.000 A 
ATOM     14  C   UNL     1       2.139   4.601  17.805  0.00  0.00    +0.000 A 
ATOM     15  C   UNL     1       1.665   5.859  18.151  0.00  0.00    +0.000 A 
ATOM     16  C   UNL     1       2.540   6.955  18.271  0.00  0.00    +0.000 A 
ATOM     17  C   UNL     1       3.913   6.748  17.999  0.00  0.00    +0.000 A 
ATOM     18  C   UNL     1       4.389   5.478  17.668  0.00  0.00    +0.000 A 
BRANCH  13  20
ATOM     19  C   UNL     1       3.557   1.986  17.886  0.00  0.00    +0.000 C 
ATOM     20  O   UNL     1       4.016   3.161  17.326  0.00  0.00    +0.000 OA
ENDBRANCH  13  20
ENDBRANCH   1  16
BRANCH   7  21
ATOM     21  C   UNL     1      -2.854  12.002  19.508  0.00  0.00    +0.000 C 
BRANCH  21  22
ATOM     22  C   UNL     1      -2.687  13.231  20.415  0.00  0.00    +0.000 C 
BRANCH  22  23
ATOM     23  C   UNL     1      -3.514  13.059  21.672  0.00  0.00    +0.000 A 
ATOM     24  C   UNL     1      -4.915  13.201  21.629  0.00  0.00    +0.000 A 
ATOM     25  C   UNL     1      -5.676  13.066  22.795  0.00  0.00    +0.000 A 
ATOM     26  C   UNL     1      -5.050  12.792  24.012  0.00  0.00    +0.000 A 
ATOM     27  C   UNL     1      -3.662  12.648  24.066  0.00  0.00    +0.000 A 
ATOM     28  C   UNL     1      -2.897  12.778  22.903  0.00  0.00    +0.000 A 
ENDBRANCH  22  23
ENDBRANCH  21  22
ENDBRANCH   7  21
TORSDOF 5
ENDMDL
MODEL 7
REMARK VINA RESULT:      -7.4      1.541      1.985
REMARK  Name = 
REMARK  6 active torsions:
REMARK  status: ('A' for Active; 'I' for Inactive)
REMARK    1  A    between atoms: C_1  and  O_2
REMARK    2  A    between atoms: O_2  and  C_3
REMARK    3  A    between atoms: C_6  and  C_7
REMARK    4  A    between atoms: N_13  and  C_14
REMARK    5  A    between atoms: C_14  and  C_15
REMARK    6  A    between atoms: C_15  and  C_16
REMARK                            x       y       z     vdW  Elec       q    Type
REMARK                         _______ _______ _______ _____ _____    ______ ____
ROOT
ATOM      1  C   UNL     1       1.957   8.419  18.937  0.00  0.00    +0.000 C 
ATOM      2  C   UNL     1       1.905   9.419  18.014  0.00  0.00    +0.000 C 
ATOM      3  O   UNL     1       1.220  10.574  18.257  0.00  0.00    +0.000 OA
ATOM      4  C   UNL     1       0.274  10.678  19.271  0.00  0.00    +0.000 C 
ATOM      5  C   UNL     1      -1.003   9.859  18.896  0.00  0.00    +0.000 C 
ATOM      6  C   UNL     1      -1.799  10.535  17.762  0.00  0.00    +0.000 C 
ATOM      7  N   UNL     1      -2.157  11.931  18.107  0.00  0.00    +0.000 NA
ATOM      8  C   UNL     1      -0.909  12.708  18.300  0.00  0.00    +0.000 C 
ATOM      9  C   UNL     1      -0.076  12.167  19.478  0.00  0.00    +0.000 C 
ATOM     10  C   UNL     1       0.908  10.107  20.549  0.00  0.00    +0.000 C 
ATOM     11  C   UNL     1       1.314   8.691  20.261  0.00  0.00    +0.000 C 
ATOM     12  O   UNL     1       1.123   7.821  21.094  0.00  0.00    +0.000 OA
ENDROOT
BRANCH   1  16
ATOM     13  C   UNL     1       3.556   4.630  17.631  0.00  0.00    +0.000 A 
ATOM     14  C   UNL     1       4.187   5.836  17.281  0.00  0.00    +0.000 A 
ATOM     15  C   UNL     1       3.684   7.049  17.729  0.00  0.00    +0.000 A 
ATOM     16  C   UNL     1       2.547   7.100  18.558  0.00  0.00    +0.000 A 
ATOM     17  C   UNL     1       1.948   5.879  18.948  0.00  0.00    +0.000 A 
ATOM     18  C   UNL     1       2.447   4.661  18.481  0.00  0.00    +0.000 A 
BRANCH  13  20
ATOM     19  C   UNL     1       3.756   2.216  17.751  0.00  0.00    +0.000 C 
ATOM     20  O   UNL     1       3.974   3.435  17.144  0.00  0.00    +0.000 OA
ENDBRANCH  13  20
ENDBRANCH   1  16
BRANCH   7  21
ATOM     21  C   UNL     1      -3.102  11.968  19.259  0.00  0.00    +0.000 C 
BRANCH  21  22
ATOM     22  C   UNL     1      -3.074  13.278  20.060  0.00  0.00    +0.000 C 
BRANCH  22  23
ATOM     23  C   UNL     1      -3.383  12.999  21.517  0.00  0.00    +0.000 A 
ATOM     24  C   UNL     1      -2.445  12.330  22.328  0.00  0.00    +0.000 A 
ATOM     25  C   UNL     1      -2.740  12.052  23.667  0.00  0.00    +0.000 A 
ATOM     26  C   UNL     1      -3.969  12.434  24.207  0.00  0.00    +0.000 A 
ATOM     27  C   UNL     1      -4.905  13.099  23.412  0.00  0.00    +0.000 A 
ATOM     28  C   UNL     1      -4.614  13.383  22.075  0.00  0.00    +0.000 A 
ENDBRANCH  22  23
ENDBRANCH  21  22
ENDBRANCH   7  21
TORSDOF 5
ENDMDL
MODEL 8
REMARK VINA RESULT:      -7.4      1.003      1.657
REMARK  Name = 
REMARK  6 active torsions:
REMARK  status: ('A' for Active; 'I' for Inactive)
REMARK    1  A    between atoms: C_1  and  O_2
REMARK    2  A    between atoms: O_2  and  C_3
REMARK    3  A    between atoms: C_6  and  C_7
REMARK    4  A    between atoms: N_13  and  C_14
REMARK    5  A    between atoms: C_14  and  C_15
REMARK    6  A    between atoms: C_15  and  C_16
REMARK                            x       y       z     vdW  Elec       q    Type
REMARK                         _______ _______ _______ _____ _____    ______ ____
ROOT
ATOM      1  C   UNL     1       1.807   8.394  19.304  0.00  0.00    +0.000 C 
ATOM      2  C   UNL     1       1.814   9.276  18.265  0.00  0.00    +0.000 C 
ATOM      3  O   UNL     1       1.164  10.473  18.346  0.00  0.00    +0.000 OA
ATOM      4  C   UNL     1       0.196  10.729  19.312  0.00  0.00    +0.000 C 
ATOM      5  C   UNL     1      -1.099   9.912  19.000  0.00  0.00    +0.000 C 
ATOM      6  C   UNL     1      -1.840  10.470  17.769  0.00  0.00    +0.000 C 
ATOM      7  N   UNL     1      -2.158  11.908  17.932  0.00  0.00    +0.000 NA
ATOM      8  C   UNL     1      -0.889  12.663  18.068  0.00  0.00    +0.000 C 
ATOM      9  C   UNL     1      -0.107  12.243  19.326  0.00  0.00    +0.000 C 
ATOM     10  C   UNL     1       0.776  10.299  20.668  0.00  0.00    +0.000 C 
ATOM     11  C   UNL     1       1.139   8.846  20.565  0.00  0.00    +0.000 C 
ATOM     12  O   UNL     1       0.896   8.091  21.491  0.00  0.00    +0.000 OA
ENDROOT
BRANCH   1  16
ATOM     13  C   UNL     1       3.583   4.486  18.867  0.00  0.00    +0.000 A 
ATOM     14  C   UNL     1       2.788   4.794  19.984  0.00  0.00    +0.000 A 
ATOM     15  C   UNL     1       2.196   6.043  20.103  0.00  0.00    +0.000 A 
ATOM     16  C   UNL     1       2.360   7.021  19.104  0.00  0.00    +0.000 A 
ATOM     17  C   UNL     1       3.119   6.686  17.958  0.00  0.00    +0.000 A 
ATOM     18  C   UNL     1       3.728   5.434  17.850  0.00  0.00    +0.000 A 
BRANCH  13  20
ATOM     19  C   UNL     1       3.728   2.167  18.172  0.00  0.00    +0.000 C 
ATOM     20  O   UNL     1       4.241   3.305  18.760  0.00  0.00    +0.000 OA
ENDBRANCH  13  20
ENDBRANCH   1  16
BRANCH   7  21
ATOM     21  C   UNL     1      -3.131  12.114  19.042  0.00  0.00    +0.000 C 
BRANCH  21  22
ATOM     22  C   UNL     1      -4.594  11.840  18.662  0.00  0.00    +0.000 C 
BRANCH  22  23
ATOM     23  C   UNL     1      -5.483  12.005  19.878  0.00  0.00    +0.000 A 
ATOM     24  C   UNL     1      -6.771  11.436  19.902  0.00  0.00    +0.000 A 
ATOM     25  C   UNL     1      -7.600  11.608  21.015  0.00  0.00    +0.000 A 
ATOM     26  C   UNL     1      -7.155  12.351  22.110  0.00  0.00    +0.000 A 
ATOM     27  C   UNL     1      -5.880  12.919  22.097  0.00  0.00    +0.000 A 
ATOM     28  C   UNL     1      -5.046  12.746  20.990  0.00  0.00    +0.000 A 
ENDBRANCH  22  23
ENDBRANCH  21  22
ENDBRANCH   7  21
TORSDOF 5
ENDMDL
MODEL 9
REMARK VINA RESULT:      -7.4      0.523      1.391
REMARK  Name = 
REMARK  6 active torsions:
REMARK  status: ('A' for Active; 'I' for Inactive)
REMARK    1  A    between atoms: C_1  and  O_2
REMARK    2  A    between atoms: O_2  and  C_3
REMARK    3  A    between atoms: C_6  and  C_7
REMARK    4  A    between atoms: N_13  and  C_14
REMARK    5  A    between atoms: C_14  and  C_15
REMARK    6  A    between atoms: C_15  and  C_16
REMARK                            x       y       z     vdW  Elec       q    Type
REMARK                         _______ _______ _______ _____ _____    ______ ____
ROOT
ATOM      1  C   UNL     1       2.094   8.514  18.664  0.00  0.00    +0.000 C 
ATOM      2  C   UNL     1       1.976   9.637  17.902  0.00  0.00    +0.000 C 
ATOM      3  O   UNL     1       1.249  10.710  18.328  0.00  0.00    +0.000 OA
ATOM      4  C   UNL     1       0.324  10.618  19.363  0.00  0.00    +0.000 C 
ATOM      5  C   UNL     1      -0.925   9.807  18.892  0.00  0.00    +0.000 C 
ATOM      6  C   UNL     1      -1.776  10.607  17.887  0.00  0.00    +0.000 C 
ATOM      7  N   UNL     1      -2.185  11.918  18.444  0.00  0.00    +0.000 NA
ATOM      8  C   UNL     1      -0.967  12.714  18.729  0.00  0.00    +0.000 C 
ATOM      9  C   UNL     1      -0.084  12.043  19.797  0.00  0.00    +0.000 C 
ATOM     10  C   UNL     1       1.014   9.893  20.530  0.00  0.00    +0.000 C 
ATOM     11  C   UNL     1       1.473   8.556  20.025  0.00  0.00    +0.000 C 
ATOM     12  O   UNL     1       1.339   7.564  20.722  0.00  0.00    +0.000 OA
ENDROOT
BRANCH   1  16
ATOM     13  C   UNL     1       4.014   4.941  17.193  0.00  0.00    +0.000 A 
ATOM     14  C   UNL     1       2.753   4.878  17.809  0.00  0.00    +0.000 A 
ATOM     15  C   UNL     1       2.128   6.035  18.254  0.00  0.00    +0.000 A 
ATOM     16  C   UNL     1       2.730   7.295  18.081  0.00  0.00    +0.000 A 
ATOM     17  C   UNL     1       3.977   7.356  17.413  0.00  0.00    +0.000 A 
ATOM     18  C   UNL     1       4.610   6.188  16.983  0.00  0.00    +0.000 A 
BRANCH  13  20
ATOM     19  C   UNL     1       5.770   3.802  15.968  0.00  0.00    +0.000 C 
ATOM     20  O   UNL     1       4.686   3.823  16.821  0.00  0.00    +0.000 OA
ENDBRANCH  13  20
ENDBRANCH   1  16
BRANCH   7  21
ATOM     21  C   UNL     1      -3.103  11.739  19.604  0.00  0.00    +0.000 C 
BRANCH  21  22
ATOM     22  C   UNL     1      -3.990  12.957  19.904  0.00  0.00    +0.000 C 
BRANCH  22  23
ATOM     23  C   UNL     1      -5.318  12.500  20.473  0.00  0.00    +0.000 A 
ATOM     24  C   UNL     1      -6.145  11.627  19.740  0.00  0.00    +0.000 A 
ATOM     25  C   UNL     1      -7.381  11.224  20.255  0.00  0.00    +0.000 A 
ATOM     26  C   UNL     1      -7.804  11.688  21.503  0.00  0.00    +0.000 A 
ATOM     27  C   UNL     1      -6.991  12.552  22.238  0.00  0.00    +0.000 A 
ATOM     28  C   UNL     1      -5.753  12.955  21.730  0.00  0.00    +0.000 A 
ENDBRANCH  22  23
ENDBRANCH  21  22
ENDBRANCH   7  21
TORSDOF 5
ENDMDL
