MODEL 1
REMARK VINA RESULT:      -8.0      0.000      0.000
REMARK  Name = 
REMARK  10 active torsions:
REMARK  status: ('A' for Active; 'I' for Inactive)
REMARK    1  A    between atoms: C_1  and  O_2
REMARK    2  A    between atoms: O_2  and  C_3
REMARK    3  A    between atoms: C_5  and  C_6
REMARK    4  A    between atoms: N_8  and  C_9
REMARK    5  A    between atoms: C_12  and  C_13
REMARK    6  A    between atoms: C_13  and  C_15
REMARK    7  A    between atoms: C_24  and  O_25
REMARK    8  A    between atoms: O_25  and  C_26
REMARK    9  A    between atoms: C_27  and  O_28
REMARK   10  A    between atoms: O_28  and  C_29
REMARK                            x       y       z     vdW  Elec       q    Type
REMARK                         _______ _______ _______ _____ _____    ______ ____
ROOT
ATOM      1  C   UNL     1       1.704   7.902  19.768  0.00  0.00    +0.000 C 
ATOM      2  O   UNL     1       1.922   8.818  18.975  0.00  0.00    +0.000 OA
ATOM      3  N   UNL     1       0.983   7.990  20.945  0.00  0.00    +0.000 N 
ATOM      4  H   UNL     1       1.029   7.199  21.580  0.00  0.00    +0.000 HD
ENDROOT
BRANCH   1   7
ATOM      5  C   UNL     1       2.797   4.345  20.301  0.00  0.00    +0.000 A 
ATOM      6  C   UNL     1       2.310   5.641  20.514  0.00  0.00    +0.000 A 
ATOM      7  C   UNL     1       2.361   6.601  19.504  0.00  0.00    +0.000 A 
ATOM      8  C   UNL     1       3.000   6.299  18.308  0.00  0.00    +0.000 A 
ATOM      9  C   UNL     1       3.585   5.036  18.109  0.00  0.00    +0.000 A 
ATOM     10  C   UNL     1       3.492   4.037  19.111  0.00  0.00    +0.000 A 
BRANCH   5  12
ATOM     11  C   UNL     1       1.315   2.779  21.284  0.00  0.00    +0.000 C 
ATOM     12  O   UNL     1       2.610   3.386  21.264  0.00  0.00    +0.000 OA
ENDBRANCH   5  12
BRANCH   9  13
ATOM     13  O   UNL     1       4.180   4.956  16.872  0.00  0.00    +0.000 OA
ATOM     14  C   UNL     1       5.453   5.549  16.664  0.00  0.00    +0.000 C 
ENDBRANCH   9  13
BRANCH  10  15
ATOM     15  O   UNL     1       4.093   2.843  18.823  0.00  0.00    +0.000 OA
ATOM     16  C   UNL     1       3.392   1.801  18.166  0.00  0.00    +0.000 C 
ENDBRANCH  10  15
ENDBRANCH   1   7
BRANCH   3  17
ATOM     17  C   UNL     1       0.309   9.138  21.423  0.00  0.00    +0.000 A 
ATOM     18  C   UNL     1       0.029  10.248  20.623  0.00  0.00    +0.000 A 
ATOM     19  C   UNL     1      -0.643  11.358  21.147  0.00  0.00    +0.000 A 
ATOM     20  C   UNL     1      -1.032  11.375  22.485  0.00  0.00    +0.000 A 
ATOM     21  C   UNL     1      -0.776  10.262  23.291  0.00  0.00    +0.000 A 
ATOM     22  C   UNL     1      -0.106   9.151  22.760  0.00  0.00    +0.000 A 
BRANCH  20  23
ATOM     23  C   UNL     1      -1.762  12.569  22.986  0.00  0.00    +0.000 C 
ATOM     24  O   UNL     1      -1.124  13.546  23.371  0.00  0.00    +0.000 OA
BRANCH  23  25
ATOM     25  C   UNL     1      -3.243  12.617  23.031  0.00  0.00    +0.000 A 
ATOM     26  C   UNL     1      -3.870  12.490  24.269  0.00  0.00    +0.000 A 
ATOM     27  C   UNL     1      -5.250  12.537  24.303  0.00  0.00    +0.000 A 
ATOM     28  N   UNL     1      -6.020  12.692  23.203  0.00  0.00    +0.000 NA
ATOM     29  C   UNL     1      -5.385  12.778  22.015  0.00  0.00    +0.000 A 
ATOM     30  C   UNL     1      -4.009  12.738  21.873  0.00  0.00    +0.000 A 
ENDBRANCH  23  25
ENDBRANCH  20  23
ENDBRANCH   3  17
TORSDOF 7
ENDMDL
MODEL 2
REMARK VINA RESULT:      -7.9      0.221      2.537
REMARK  Name = 
REMARK  10 active torsions:
REMARK  status: ('A' for Active; 'I' for Inactive)
REMARK    1  A    between atoms: C_1  and  O_2
REMARK    2  A    between atoms: O_2  and  C_3
REMARK    3  A    between atoms: C_5  and  C_6
REMARK    4  A    between atoms: N_8  and  C_9
REMARK    5  A    between atoms: C_12  and  C_13
REMARK    6  A    between atoms: C_13  and  C_15
REMARK    7  A    between atoms: C_24  and  O_25
REMARK    8  A    between atoms: O_25  and  C_26
REMARK    9  A    between atoms: C_27  and  O_28
REMARK   10  A    between atoms: O_28  and  C_29
REMARK                            x       y       z     vdW  Elec       q    Type
REMARK                         _______ _______ _______ _____ _____    ______ ____
ROOT
ATOM      1  C   UNL     1       1.685   7.781  19.951  0.00  0.00    +0.000 C 
ATOM      2  O   UNL     1       2.007   8.720  19.223  0.00  0.00    +0.000 OA
ATOM      3  N   UNL     1       0.874   7.851  21.069  0.00  0.00    +0.000 N 
ATOM      4  H   UNL     1       0.833   7.032  21.667  0.00  0.00    +0.000 HD
ENDROOT
BRANCH   1   7
ATOM      5  C   UNL     1       3.681   5.137  18.176  0.00  0.00    +0.000 A 
ATOM      6  C   UNL     1       2.963   6.305  18.460  0.00  0.00    +0.000 A 
ATOM      7  C   UNL     1       2.306   6.464  19.679  0.00  0.00    +0.000 A 
ATOM      8  C   UNL     1       2.273   5.406  20.579  0.00  0.00    +0.000 A 
ATOM      9  C   UNL     1       2.903   4.186  20.271  0.00  0.00    +0.000 A 
ATOM     10  C   UNL     1       3.618   4.035  19.057  0.00  0.00    +0.000 A 
BRANCH   5  12
ATOM     11  C   UNL     1       5.809   5.413  17.169  0.00  0.00    +0.000 C 
ATOM     12  O   UNL     1       4.428   5.066  17.027  0.00  0.00    +0.000 OA
ENDBRANCH   5  12
BRANCH   9  13
ATOM     13  O   UNL     1       2.731   3.272  21.284  0.00  0.00    +0.000 OA
ATOM     14  C   UNL     1       1.485   2.608  21.428  0.00  0.00    +0.000 C 
ENDBRANCH   9  13
BRANCH  10  15
ATOM     15  O   UNL     1       4.194   2.813  18.850  0.00  0.00    +0.000 OA
ATOM     16  C   UNL     1       3.489   1.761  18.214  0.00  0.00    +0.000 C 
ENDBRANCH  10  15
ENDBRANCH   1   7
BRANCH   3  17
ATOM     17  C   UNL     1       0.213   9.007  21.545  0.00  0.00    +0.000 A 
ATOM     18  C   UNL     1      -0.115   9.202  22.889  0.00  0.00    +0.000 A 
ATOM     19  C   UNL     1      -0.769  10.367  23.305  0.00  0.00    +0.000 A 
ATOM     20  C   UNL     1      -1.116  11.347  22.377  0.00  0.00    +0.000 A 
ATOM     21  C   UNL     1      -0.775  11.173  21.033  0.00  0.00    +0.000 A 
ATOM     22  C   UNL     1      -0.116  10.006  20.621  0.00  0.00    +0.000 A 
BRANCH  20  23
ATOM     23  C   UNL     1      -1.790  12.574  22.875  0.00  0.00    +0.000 C 
ATOM     24  O   UNL     1      -1.113  13.553  23.177  0.00  0.00    +0.000 OA
BRANCH  23  25
ATOM     25  C   UNL     1      -3.264  12.652  23.014  0.00  0.00    +0.000 A 
ATOM     26  C   UNL     1      -3.814  12.530  24.290  0.00  0.00    +0.000 A 
ATOM     27  C   UNL     1      -5.188  12.606  24.412  0.00  0.00    +0.000 A 
ATOM     28  N   UNL     1      -6.023  12.783  23.364  0.00  0.00    +0.000 NA
ATOM     29  C   UNL     1      -5.463  12.864  22.138  0.00  0.00    +0.000 A 
ATOM     30  C   UNL     1      -4.101  12.796  21.909  0.00  0.00    +0.000 A 
ENDBRANCH  23  25
ENDBRANCH  20  23
ENDBRANCH   3  17
TORSDOF 7
ENDMDL
MODEL 3
REMARK VINA RESULT:      -7.8      0.410      2.434
REMARK  Name = 
REMARK  10 active torsions:
REMARK  status: ('A' for Active; 'I' for Inactive)
REMARK    1  A    between atoms: C_1  and  O_2
REMARK    2  A    between atoms: O_2  and  C_3
REMARK    3  A    between atoms: C_5  and  C_6
REMARK    4  A    between atoms: N_8  and  C_9
REMARK    5  A    between atoms: C_12  and  C_13
REMARK    6  A    between atoms: C_13  and  C_15
REMARK    7  A    between atoms: C_24  and  O_25
REMARK    8  A    between atoms: O_25  and  C_26
REMARK    9  A    between atoms: C_27  and  O_28
REMARK   10  A    between atoms: O_28  and  C_29
REMARK                            x       y       z     vdW  Elec       q    Type
REMARK                         _______ _______ _______ _____ _____    ______ ____
ROOT
ATOM      1  C   UNL     1       1.836   7.798  19.659  0.00  0.00    +0.000 C 
ATOM      2  O   UNL     1       2.067   8.728  18.886  0.00  0.00    +0.000 OA
ATOM      3  N   UNL     1       1.116   7.871  20.837  0.00  0.00    +0.000 N 
ATOM      4  H   UNL     1       1.150   7.066  21.454  0.00  0.00    +0.000 HD
ENDROOT
BRANCH   1   7
ATOM      5  C   UNL     1       4.007   5.256  17.940  0.00  0.00    +0.000 A 
ATOM      6  C   UNL     1       3.268   6.412  18.223  0.00  0.00    +0.000 A 
ATOM      7  C   UNL     1       2.475   6.494  19.366  0.00  0.00    +0.000 A 
ATOM      8  C   UNL     1       2.332   5.376  20.179  0.00  0.00    +0.000 A 
ATOM      9  C   UNL     1       2.985   4.173  19.860  0.00  0.00    +0.000 A 
ATOM     10  C   UNL     1       3.835   4.096  18.728  0.00  0.00    +0.000 A 
BRANCH   5  12
ATOM     11  C   UNL     1       5.077   6.521  16.246  0.00  0.00    +0.000 C 
ATOM     12  O   UNL     1       4.881   5.254  16.883  0.00  0.00    +0.000 OA
ENDBRANCH   5  12
BRANCH   9  13
ATOM     13  O   UNL     1       2.692   3.193  20.778  0.00  0.00    +0.000 OA
ATOM     14  C   UNL     1       1.458   3.232  21.480  0.00  0.00    +0.000 C 
ENDBRANCH   9  13
BRANCH  10  15
ATOM     15  O   UNL     1       4.423   2.883  18.502  0.00  0.00    +0.000 OA
ATOM     16  C   UNL     1       3.670   1.765  18.065  0.00  0.00    +0.000 C 
ENDBRANCH  10  15
ENDBRANCH   1   7
BRANCH   3  17
ATOM     17  C   UNL     1       0.457   9.017  21.339  0.00  0.00    +0.000 A 
ATOM     18  C   UNL     1       0.025  10.068  20.526  0.00  0.00    +0.000 A 
ATOM     19  C   UNL     1      -0.624  11.179  21.077  0.00  0.00    +0.000 A 
ATOM     20  C   UNL     1      -0.837  11.258  22.452  0.00  0.00    +0.000 A 
ATOM     21  C   UNL     1      -0.428  10.204  23.273  0.00  0.00    +0.000 A 
ATOM     22  C   UNL     1       0.218   9.091  22.716  0.00  0.00    +0.000 A 
BRANCH  20  23
ATOM     23  C   UNL     1      -1.549  12.450  22.982  0.00  0.00    +0.000 C 
ATOM     24  O   UNL     1      -0.899  13.384  23.442  0.00  0.00    +0.000 OA
BRANCH  23  25
ATOM     25  C   UNL     1      -3.028  12.545  22.967  0.00  0.00    +0.000 A 
ATOM     26  C   UNL     1      -3.705  12.500  24.186  0.00  0.00    +0.000 A 
ATOM     27  C   UNL     1      -5.083  12.591  24.164  0.00  0.00    +0.000 A 
ATOM     28  N   UNL     1      -5.807  12.714  23.029  0.00  0.00    +0.000 NA
ATOM     29  C   UNL     1      -5.125  12.720  21.863  0.00  0.00    +0.000 A 
ATOM     30  C   UNL     1      -3.748  12.631  21.777  0.00  0.00    +0.000 A 
ENDBRANCH  23  25
ENDBRANCH  20  23
ENDBRANCH   3  17
TORSDOF 7
ENDMDL
MODEL 4
REMARK VINA RESULT:      -7.7      0.679      1.402
REMARK  Name = 
REMARK  10 active torsions:
REMARK  status: ('A' for Active; 'I' for Inactive)
REMARK    1  A    between atoms: C_1  and  O_2
REMARK    2  A    between atoms: O_2  and  C_3
REMARK    3  A    between atoms: C_5  and  C_6
REMARK    4  A    between atoms: N_8  and  C_9
REMARK    5  A    between atoms: C_12  and  C_13
REMARK    6  A    between atoms: C_13  and  C_15
REMARK    7  A    between atoms: C_24  and  O_25
REMARK    8  A    between atoms: O_25  and  C_26
REMARK    9  A    between atoms: C_27  and  O_28
REMARK   10  A    between atoms: O_28  and  C_29
REMARK                            x       y       z     vdW  Elec       q    Type
REMARK                         _______ _______ _______ _____ _____    ______ ____
ROOT
ATOM      1  C   UNL     1       1.832   7.597  19.988  0.00  0.00    +0.000 C 
ATOM      2  O   UNL     1       1.954   8.449  19.108  0.00  0.00    +0.000 OA
ATOM      3  N   UNL     1       1.219   7.768  21.216  0.00  0.00    +0.000 N 
ATOM      4  H   UNL     1       1.343   7.033  21.905  0.00  0.00    +0.000 HD
ENDROOT
BRANCH   1   7
ATOM      5  C   UNL     1       2.377   3.878  20.047  0.00  0.00    +0.000 A 
ATOM      6  C   UNL     1       1.884   5.162  20.312  0.00  0.00    +0.000 A 
ATOM      7  C   UNL     1       2.496   6.291  19.769  0.00  0.00    +0.000 A 
ATOM      8  C   UNL     1       3.673   6.147  19.044  0.00  0.00    +0.000 A 
ATOM      9  C   UNL     1       4.242   4.875  18.851  0.00  0.00    +0.000 A 
ATOM     10  C   UNL     1       3.597   3.717  19.355  0.00  0.00    +0.000 A 
BRANCH   5  12
ATOM     11  C   UNL     1       1.690   2.566  21.897  0.00  0.00    +0.000 C 
ATOM     12  O   UNL     1       1.676   2.782  20.483  0.00  0.00    +0.000 OA
ENDBRANCH   5  12
BRANCH   9  13
ATOM     13  O   UNL     1       5.409   4.960  18.130  0.00  0.00    +0.000 OA
ATOM     14  C   UNL     1       5.586   6.018  17.200  0.00  0.00    +0.000 C 
ENDBRANCH   9  13
BRANCH  10  15
ATOM     15  O   UNL     1       4.229   2.529  19.116  0.00  0.00    +0.000 OA
ATOM     16  C   UNL     1       3.734   1.607  18.160  0.00  0.00    +0.000 C 
ENDBRANCH  10  15
ENDBRANCH   1   7
BRANCH   3  17
ATOM     17  C   UNL     1       0.562   8.938  21.660  0.00  0.00    +0.000 A 
ATOM     18  C   UNL     1      -0.263   8.971  22.787  0.00  0.00    +0.000 A 
ATOM     19  C   UNL     1      -0.888  10.159  23.184  0.00  0.00    +0.000 A 
ATOM     20  C   UNL     1      -0.705  11.328  22.447  0.00  0.00    +0.000 A 
ATOM     21  C   UNL     1       0.134  11.313  21.330  0.00  0.00    +0.000 A 
ATOM     22  C   UNL     1       0.762  10.122  20.939  0.00  0.00    +0.000 A 
BRANCH  20  23
ATOM     23  C   UNL     1      -1.375  12.566  22.923  0.00  0.00    +0.000 C 
ATOM     24  O   UNL     1      -0.691  13.529  23.260  0.00  0.00    +0.000 OA
BRANCH  23  25
ATOM     25  C   UNL     1      -2.852  12.674  22.999  0.00  0.00    +0.000 A 
ATOM     26  C   UNL     1      -3.568  12.783  21.808  0.00  0.00    +0.000 A 
ATOM     27  C   UNL     1      -4.944  12.882  21.888  0.00  0.00    +0.000 A 
ATOM     28  N   UNL     1      -5.627  12.887  23.053  0.00  0.00    +0.000 NA
ATOM     29  C   UNL     1      -4.903  12.815  24.191  0.00  0.00    +0.000 A 
ATOM     30  C   UNL     1      -3.524  12.716  24.220  0.00  0.00    +0.000 A 
ENDBRANCH  23  25
ENDBRANCH  20  23
ENDBRANCH   3  17
TORSDOF 7
ENDMDL
MODEL 5
REMARK VINA RESULT:      -7.7      1.228      1.543
REMARK  Name = 
REMARK  10 active torsions:
REMARK  status: ('A' for Active; 'I' for Inactive)
REMARK    1  A    between atoms: C_1  and  O_2
REMARK    2  A    between atoms: O_2  and  C_3
REMARK    3  A    between atoms: C_5  and  C_6
REMARK    4  A    between atoms: N_8  and  C_9
REMARK    5  A    between atoms: C_12  and  C_13
REMARK    6  A    between atoms: C_13  and  C_15
REMARK    7  A    between atoms: C_24  and  O_25
REMARK    8  A    between atoms: O_25  and  C_26
REMARK    9  A    between atoms: C_27  and  O_28
REMARK   10  A    between atoms: O_28  and  C_29
REMARK                            x       y       z     vdW  Elec       q    Type
REMARK                         _______ _______ _______ _____ _____    ______ ____
ROOT
ATOM      1  C   UNL     1       2.154   7.294  19.832  0.00  0.00    +0.000 C 
ATOM      2  O   UNL     1       2.406   8.064  18.905  0.00  0.00    +0.000 OA
ATOM      3  N   UNL     1       1.422   7.589  20.968  0.00  0.00    +0.000 N 
ATOM      4  H   UNL     1       1.439   6.910  21.722  0.00  0.00    +0.000 HD
ENDROOT
BRANCH   1   7
ATOM      5  C   UNL     1       2.488   3.562  20.134  0.00  0.00    +0.000 A 
ATOM      6  C   UNL     1       2.021   4.877  20.252  0.00  0.00    +0.000 A 
ATOM      7  C   UNL     1       2.780   5.952  19.792  0.00  0.00    +0.000 A 
ATOM      8  C   UNL     1       4.062   5.723  19.308  0.00  0.00    +0.000 A 
ATOM      9  C   UNL     1       4.592   4.421  19.274  0.00  0.00    +0.000 A 
ATOM     10  C   UNL     1       3.806   3.317  19.691  0.00  0.00    +0.000 A 
BRANCH   5  12
ATOM     11  C   UNL     1       1.314   2.434  21.856  0.00  0.00    +0.000 C 
ATOM     12  O   UNL     1       1.663   2.519  20.471  0.00  0.00    +0.000 OA
ENDBRANCH   5  12
BRANCH   9  13
ATOM     13  O   UNL     1       5.876   4.422  18.783  0.00  0.00    +0.000 OA
ATOM     14  C   UNL     1       6.766   5.467  19.144  0.00  0.00    +0.000 C 
ENDBRANCH   9  13
BRANCH  10  15
ATOM     15  O   UNL     1       4.411   2.092  19.620  0.00  0.00    +0.000 OA
ATOM     16  C   UNL     1       5.027   1.505  20.753  0.00  0.00    +0.000 C 
ENDBRANCH  10  15
ENDBRANCH   1   7
BRANCH   3  17
ATOM     17  C   UNL     1       0.773   8.814  21.243  0.00  0.00    +0.000 A 
ATOM     18  C   UNL     1       0.495   9.770  20.262  0.00  0.00    +0.000 A 
ATOM     19  C   UNL     1      -0.152  10.966  20.590  0.00  0.00    +0.000 A 
ATOM     20  C   UNL     1      -0.518  11.227  21.910  0.00  0.00    +0.000 A 
ATOM     21  C   UNL     1      -0.264  10.271  22.897  0.00  0.00    +0.000 A 
ATOM     22  C   UNL     1       0.381   9.072  22.562  0.00  0.00    +0.000 A 
BRANCH  20  23
ATOM     23  C   UNL     1      -1.221  12.504  22.201  0.00  0.00    +0.000 C 
ATOM     24  O   UNL     1      -0.585  13.555  22.203  0.00  0.00    +0.000 OA
BRANCH  23  25
ATOM     25  C   UNL     1      -2.676  12.546  22.485  0.00  0.00    +0.000 A 
ATOM     26  C   UNL     1      -3.555  12.678  21.412  0.00  0.00    +0.000 A 
ATOM     27  C   UNL     1      -4.909  12.716  21.685  0.00  0.00    +0.000 A 
ATOM     28  N   UNL     1      -5.422  12.639  22.932  0.00  0.00    +0.000 NA
ATOM     29  C   UNL     1      -4.544  12.546  23.954  0.00  0.00    +0.000 A 
ATOM     30  C   UNL     1      -3.171  12.505  23.788  0.00  0.00    +0.000 A 
ENDBRANCH  23  25
ENDBRANCH  20  23
ENDBRANCH   3  17
TORSDOF 7
ENDMDL
MODEL 6
REMARK VINA RESULT:      -7.7      1.333      2.885
REMARK  Name = 
REMARK  10 active torsions:
REMARK  status: ('A' for Active; 'I' for Inactive)
REMARK    1  A    between atoms: C_1  and  O_2
REMARK    2  A    between atoms: O_2  and  C_3
REMARK    3  A    between atoms: C_5  and  C_6
REMARK    4  A    between atoms: N_8  and  C_9
REMARK    5  A    between atoms: C_12  and  C_13
REMARK    6  A    between atoms: C_13  and  C_15
REMARK    7  A    between atoms: C_24  and  O_25
REMARK    8  A    between atoms: O_25  and  C_26
REMARK    9  A    between atoms: C_27  and  O_28
REMARK   10  A    between atoms: O_28  and  C_29
REMARK                            x       y       z     vdW  Elec       q    Type
REMARK                         _______ _______ _______ _____ _____    ______ ____
ROOT
ATOM      1  C   UNL     1       1.821   8.202  18.632  0.00  0.00    +0.000 C 
ATOM      2  O   UNL     1       1.316   8.951  17.795  0.00  0.00    +0.000 OA
ATOM      3  N   UNL     1       1.736   8.332  20.006  0.00  0.00    +0.000 N 
ATOM      4  H   UNL     1       2.341   7.741  20.568  0.00  0.00    +0.000 HD
ENDROOT
BRANCH   1   7
ATOM      5  C   UNL     1       4.799   6.533  17.059  0.00  0.00    +0.000 A 
ATOM      6  C   UNL     1       3.855   7.490  17.454  0.00  0.00    +0.000 A 
ATOM      7  C   UNL     1       2.698   7.117  18.134  0.00  0.00    +0.000 A 
ATOM      8  C   UNL     1       2.426   5.768  18.329  0.00  0.00    +0.000 A 
ATOM      9  C   UNL     1       3.311   4.785  17.853  0.00  0.00    +0.000 A 
ATOM     10  C   UNL     1       4.515   5.157  17.206  0.00  0.00    +0.000 A 
BRANCH   5  12
ATOM     11  C   UNL     1       7.068   7.101  17.439  0.00  0.00    +0.000 C 
ATOM     12  O   UNL     1       5.989   6.942  16.513  0.00  0.00    +0.000 OA
ENDBRANCH   5  12
BRANCH   9  13
ATOM     13  O   UNL     1       2.843   3.522  18.131  0.00  0.00    +0.000 OA
ATOM     14  C   UNL     1       3.176   2.904  19.365  0.00  0.00    +0.000 C 
ENDBRANCH   9  13
BRANCH  10  15
ATOM     15  O   UNL     1       5.308   4.128  16.778  0.00  0.00    +0.000 OA
ATOM     16  C   UNL     1       5.542   3.898  15.400  0.00  0.00    +0.000 C 
ENDBRANCH  10  15
ENDBRANCH   1   7
BRANCH   3  17
ATOM     17  C   UNL     1       0.996   9.315  20.704  0.00  0.00    +0.000 A 
ATOM     18  C   UNL     1       0.209   9.030  21.821  0.00  0.00    +0.000 A 
ATOM     19  C   UNL     1      -0.502  10.043  22.475  0.00  0.00    +0.000 A 
ATOM     20  C   UNL     1      -0.442  11.355  22.009  0.00  0.00    +0.000 A 
ATOM     21  C   UNL     1       0.359  11.657  20.904  0.00  0.00    +0.000 A 
ATOM     22  C   UNL     1       1.072  10.639  20.255  0.00  0.00    +0.000 A 
BRANCH  20  23
ATOM     23  C   UNL     1      -1.198  12.396  22.752  0.00  0.00    +0.000 C 
ATOM     24  O   UNL     1      -0.588  13.199  23.452  0.00  0.00    +0.000 OA
BRANCH  23  25
ATOM     25  C   UNL     1      -2.675  12.497  22.669  0.00  0.00    +0.000 A 
ATOM     26  C   UNL     1      -3.406  12.475  23.855  0.00  0.00    +0.000 A 
ATOM     27  C   UNL     1      -4.782  12.571  23.770  0.00  0.00    +0.000 A 
ATOM     28  N   UNL     1      -5.453  12.675  22.601  0.00  0.00    +0.000 NA
ATOM     29  C   UNL     1      -4.719  12.659  21.468  0.00  0.00    +0.000 A 
ATOM     30  C   UNL     1      -3.340  12.564  21.445  0.00  0.00    +0.000 A 
ENDBRANCH  23  25
ENDBRANCH  20  23
ENDBRANCH   3  17
TORSDOF 7
ENDMDL
MODEL 7
REMARK VINA RESULT:      -7.6      2.243      3.482
REMARK  Name = 
REMARK  10 active torsions:
REMARK  status: ('A' for Active; 'I' for Inactive)
REMARK    1  A    between atoms: C_1  and  O_2
REMARK    2  A    between atoms: O_2  and  C_3
REMARK    3  A    between atoms: C_5  and  C_6
REMARK    4  A    between atoms: N_8  and  C_9
REMARK    5  A    between atoms: C_12  and  C_13
REMARK    6  A    between atoms: C_13  and  C_15
REMARK    7  A    between atoms: C_24  and  O_25
REMARK    8  A    between atoms: O_25  and  C_26
REMARK    9  A    between atoms: C_27  and  O_28
REMARK   10  A    between atoms: O_28  and  C_29
REMARK                            x       y       z     vdW  Elec       q    Type
REMARK                         _______ _______ _______ _____ _____    ______ ____
ROOT
ATOM      1  C   UNL     1       2.234   7.818  18.816  0.00  0.00    +0.000 C 
ATOM      2  O   UNL     1       1.950   7.568  19.987  0.00  0.00    +0.000 OA
ATOM      3  N   UNL     1       1.795   8.902  18.079  0.00  0.00    +0.000 N 
ATOM      4  H   UNL     1       1.972   8.889  17.079  0.00  0.00    +0.000 HD
ENDROOT
BRANCH   1   7
ATOM      5  C   UNL     1       5.096   6.339  16.879  0.00  0.00    +0.000 A 
ATOM      6  C   UNL     1       4.219   7.247  17.486  0.00  0.00    +0.000 A 
ATOM      7  C   UNL     1       3.035   6.813  18.080  0.00  0.00    +0.000 A 
ATOM      8  C   UNL     1       2.669   5.476  17.973  0.00  0.00    +0.000 A 
ATOM      9  C   UNL     1       3.485   4.565  17.280  0.00  0.00    +0.000 A 
ATOM     10  C   UNL     1       4.716   4.988  16.719  0.00  0.00    +0.000 A 
BRANCH   5  12
ATOM     11  C   UNL     1       7.324   6.931  17.425  0.00  0.00    +0.000 C 
ATOM     12  O   UNL     1       6.313   6.777  16.424  0.00  0.00    +0.000 OA
ENDBRANCH   5  12
BRANCH   9  13
ATOM     13  O   UNL     1       2.929   3.308  17.276  0.00  0.00    +0.000 OA
ATOM     14  C   UNL     1       3.333   2.356  18.250  0.00  0.00    +0.000 C 
ENDBRANCH   9  13
BRANCH  10  15
ATOM     15  O   UNL     1       5.438   4.028  16.065  0.00  0.00    +0.000 OA
ATOM     16  C   UNL     1       5.697   4.116  14.675  0.00  0.00    +0.000 C 
ENDBRANCH  10  15
ENDBRANCH   1   7
BRANCH   3  17
ATOM     17  C   UNL     1       0.987   9.960  18.557  0.00  0.00    +0.000 A 
ATOM     18  C   UNL     1       1.464  10.964  19.403  0.00  0.00    +0.000 A 
ATOM     19  C   UNL     1       0.620  11.989  19.845  0.00  0.00    +0.000 A 
ATOM     20  C   UNL     1      -0.718  12.014  19.456  0.00  0.00    +0.000 A 
ATOM     21  C   UNL     1      -1.202  11.027  18.593  0.00  0.00    +0.000 A 
ATOM     22  C   UNL     1      -0.352  10.004  18.150  0.00  0.00    +0.000 A 
BRANCH  20  23
ATOM     23  C   UNL     1      -1.566  13.136  19.937  0.00  0.00    +0.000 C 
ATOM     24  O   UNL     1      -1.276  14.287  19.623  0.00  0.00    +0.000 OA
BRANCH  23  25
ATOM     25  C   UNL     1      -2.759  12.904  20.785  0.00  0.00    +0.000 A 
ATOM     26  C   UNL     1      -2.578  12.787  22.163  0.00  0.00    +0.000 A 
ATOM     27  C   UNL     1      -3.695  12.573  22.946  0.00  0.00    +0.000 A 
ATOM     28  N   UNL     1      -4.947  12.464  22.450  0.00  0.00    +0.000 NA
ATOM     29  C   UNL     1      -5.086  12.548  21.110  0.00  0.00    +0.000 A 
ATOM     30  C   UNL     1      -4.033  12.757  20.238  0.00  0.00    +0.000 A 
ENDBRANCH  23  25
ENDBRANCH  20  23
ENDBRANCH   3  17
TORSDOF 7
ENDMDL
MODEL 8
REMARK VINA RESULT:      -7.6      2.102      3.492
REMARK  Name = 
REMARK  10 active torsions:
REMARK  status: ('A' for Active; 'I' for Inactive)
REMARK    1  A    between atoms: C_1  and  O_2
REMARK    2  A    between atoms: O_2  and  C_3
REMARK    3  A    between atoms: C_5  and  C_6
REMARK    4  A    between atoms: N_8  and  C_9
REMARK    5  A    between atoms: C_12  and  C_13
REMARK    6  A    between atoms: C_13  and  C_15
REMARK    7  A    between atoms: C_24  and  O_25
REMARK    8  A    between atoms: O_25  and  C_26
REMARK    9  A    between atoms: C_27  and  O_28
REMARK   10  A    between atoms: O_28  and  C_29
REMARK                            x       y       z     vdW  Elec       q    Type
REMARK                         _______ _______ _______ _____ _____    ______ ____
ROOT
ATOM      1  C   UNL     1       2.185   7.728  18.849  0.00  0.00    +0.000 C 
ATOM      2  O   UNL     1       1.901   7.460  20.017  0.00  0.00    +0.000 OA
ATOM      3  N   UNL     1       1.727   8.811  18.122  0.00  0.00    +0.000 N 
ATOM      4  H   UNL     1       1.908   8.812  17.123  0.00  0.00    +0.000 HD
ENDROOT
BRANCH   1   7
ATOM      5  C   UNL     1       5.063   6.337  16.871  0.00  0.00    +0.000 A 
ATOM      6  C   UNL     1       4.165   7.218  17.488  0.00  0.00    +0.000 A 
ATOM      7  C   UNL     1       3.008   6.746  18.106  0.00  0.00    +0.000 A 
ATOM      8  C   UNL     1       2.687   5.397  18.014  0.00  0.00    +0.000 A 
ATOM      9  C   UNL     1       3.523   4.510  17.313  0.00  0.00    +0.000 A 
ATOM     10  C   UNL     1       4.729   4.973  16.727  0.00  0.00    +0.000 A 
BRANCH   5  12
ATOM     11  C   UNL     1       7.337   6.821  17.331  0.00  0.00    +0.000 C 
ATOM     12  O   UNL     1       6.256   6.814  16.393  0.00  0.00    +0.000 OA
ENDBRANCH   5  12
BRANCH   9  13
ATOM     13  O   UNL     1       3.012   3.234  17.326  0.00  0.00    +0.000 OA
ATOM     14  C   UNL     1       2.979   2.502  18.542  0.00  0.00    +0.000 C 
ENDBRANCH   9  13
BRANCH  10  15
ATOM     15  O   UNL     1       5.472   4.034  16.067  0.00  0.00    +0.000 OA
ATOM     16  C   UNL     1       5.716   4.129  14.674  0.00  0.00    +0.000 C 
ENDBRANCH  10  15
ENDBRANCH   1   7
BRANCH   3  17
ATOM     17  C   UNL     1       0.897   9.848  18.609  0.00  0.00    +0.000 A 
ATOM     18  C   UNL     1      -0.445   9.986  18.247  0.00  0.00    +0.000 A 
ATOM     19  C   UNL     1      -1.222  11.031  18.761  0.00  0.00    +0.000 A 
ATOM     20  C   UNL     1      -0.659  11.960  19.634  0.00  0.00    +0.000 A 
ATOM     21  C   UNL     1       0.677  11.821  20.019  0.00  0.00    +0.000 A 
ATOM     22  C   UNL     1       1.450  10.770  19.505  0.00  0.00    +0.000 A 
BRANCH  20  23
ATOM     23  C   UNL     1      -1.533  13.038  20.166  0.00  0.00    +0.000 C 
ATOM     24  O   UNL     1      -1.460  14.165  19.685  0.00  0.00    +0.000 OA
BRANCH  23  25
ATOM     25  C   UNL     1      -2.498  12.789  21.264  0.00  0.00    +0.000 A 
ATOM     26  C   UNL     1      -3.845  13.062  21.033  0.00  0.00    +0.000 A 
ATOM     27  C   UNL     1      -4.738  12.827  22.060  0.00  0.00    +0.000 A 
ATOM     28  N   UNL     1      -4.375  12.356  23.274  0.00  0.00    +0.000 NA
ATOM     29  C   UNL     1      -3.059  12.133  23.478  0.00  0.00    +0.000 A 
ATOM     30  C   UNL     1      -2.085  12.340  22.518  0.00  0.00    +0.000 A 
ENDBRANCH  23  25
ENDBRANCH  20  23
ENDBRANCH   3  17
TORSDOF 7
ENDMDL
MODEL 9
REMARK VINA RESULT:      -7.6      1.163      2.271
REMARK  Name = 
REMARK  10 active torsions:
REMARK  status: ('A' for Active; 'I' for Inactive)
REMARK    1  A    between atoms: C_1  and  O_2
REMARK    2  A    between atoms: O_2  and  C_3
REMARK    3  A    between atoms: C_5  and  C_6
REMARK    4  A    between atoms: N_8  and  C_9
REMARK    5  A    between atoms: C_12  and  C_13
REMARK    6  A    between atoms: C_13  and  C_15
REMARK    7  A    between atoms: C_24  and  O_25
REMARK    8  A    between atoms: O_25  and  C_26
REMARK    9  A    between atoms: C_27  and  O_28
REMARK   10  A    between atoms: O_28  and  C_29
REMARK                            x       y       z     vdW  Elec       q    Type
REMARK                         _______ _______ _______ _____ _____    ______ ____
ROOT
ATOM      1  C   UNL     1       1.933   7.480  19.904  0.00  0.00    +0.000 C 
ATOM      2  O   UNL     1       2.208   8.319  19.046  0.00  0.00    +0.000 OA
ATOM      3  N   UNL     1       1.198   7.695  21.055  0.00  0.00    +0.000 N 
ATOM      4  H   UNL     1       1.195   6.955  21.751  0.00  0.00    +0.000 HD
ENDROOT
BRANCH   1   7
ATOM      5  C   UNL     1       4.560   4.835  19.424  0.00  0.00    +0.000 A 
ATOM      6  C   UNL     1       3.891   6.065  19.459  0.00  0.00    +0.000 A 
ATOM      7  C   UNL     1       2.531   6.133  19.755  0.00  0.00    +0.000 A 
ATOM      8  C   UNL     1       1.807   4.957  19.912  0.00  0.00    +0.000 A 
ATOM      9  C   UNL     1       2.439   3.707  19.782  0.00  0.00    +0.000 A 
ATOM     10  C   UNL     1       3.832   3.630  19.533  0.00  0.00    +0.000 A 
BRANCH   5  12
ATOM     11  C   UNL     1       6.381   4.760  17.909  0.00  0.00    +0.000 C 
ATOM     12  O   UNL     1       5.922   4.811  19.264  0.00  0.00    +0.000 OA
ENDBRANCH   5  12
BRANCH   9  13
ATOM     13  O   UNL     1       1.541   2.680  19.952  0.00  0.00    +0.000 OA
ATOM     14  C   UNL     1       0.818   2.185  18.835  0.00  0.00    +0.000 C 
ENDBRANCH   9  13
BRANCH  10  15
ATOM     15  O   UNL     1       4.351   2.370  19.422  0.00  0.00    +0.000 OA
ATOM     16  C   UNL     1       4.821   1.661  20.555  0.00  0.00    +0.000 C 
ENDBRANCH  10  15
ENDBRANCH   1   7
BRANCH   3  17
ATOM     17  C   UNL     1       0.573   8.907  21.428  0.00  0.00    +0.000 A 
ATOM     18  C   UNL     1       0.517  10.026  20.594  0.00  0.00    +0.000 A 
ATOM     19  C   UNL     1      -0.118  11.201  21.014  0.00  0.00    +0.000 A 
ATOM     20  C   UNL     1      -0.693  11.275  22.282  0.00  0.00    +0.000 A 
ATOM     21  C   UNL     1      -0.661  10.155  23.117  0.00  0.00    +0.000 A 
ATOM     22  C   UNL     1      -0.028   8.979  22.691  0.00  0.00    +0.000 A 
BRANCH  20  23
ATOM     23  C   UNL     1      -1.371  12.538  22.669  0.00  0.00    +0.000 C 
ATOM     24  O   UNL     1      -0.696  13.536  22.908  0.00  0.00    +0.000 OA
BRANCH  23  25
ATOM     25  C   UNL     1      -2.847  12.632  22.773  0.00  0.00    +0.000 A 
ATOM     26  C   UNL     1      -3.422  12.619  24.042  0.00  0.00    +0.000 A 
ATOM     27  C   UNL     1      -4.798  12.708  24.130  0.00  0.00    +0.000 A 
ATOM     28  N   UNL     1      -5.612  12.798  23.055  0.00  0.00    +0.000 NA
ATOM     29  C   UNL     1      -5.028  12.773  21.838  0.00  0.00    +0.000 A 
ATOM     30  C   UNL     1      -3.661  12.683  21.642  0.00  0.00    +0.000 A 
ENDBRANCH  23  25
ENDBRANCH  20  23
ENDBRANCH   3  17
TORSDOF 7
ENDMDL
