MODEL 1
REMARK VINA RESULT:      -6.8      0.000      0.000
REMARK  Name = 
REMARK  3 active torsions:
REMARK  status: ('A' for Active; 'I' for Inactive)
REMARK    1  A    between atoms: C_1  and  N_2
REMARK    2  A    between atoms: C_4  and  S_5
REMARK    3  A    between atoms: S_5  and  C_6
REMARK                            x       y       z     vdW  Elec       q    Type
REMARK                         _______ _______ _______ _____ _____    ______ ____
ROOT
ATOM      1  C   UNL     1       2.670   7.066  19.020  0.00  0.00    +0.000 C 
ATOM      2  N   UNL     1       3.363   6.032  18.247  0.00  0.00    +0.000 N 
ATOM      3  C   UNL     1       4.602   6.267  17.668  0.00  0.00    +0.000 A 
ATOM      4  C   UNL     1       5.348   5.374  17.005  0.00  0.00    +0.000 A 
ATOM      5  C   UNL     1       4.816   3.997  16.883  0.00  0.00    +0.000 A 
ATOM      6  O   UNL     1       5.412   3.126  16.253  0.00  0.00    +0.000 OA
ATOM      7  C   UNL     1       3.541   3.688  17.581  0.00  0.00    +0.000 A 
ATOM      8  C   UNL     1       3.085   2.359  17.596  0.00  0.00    +0.000 A 
ATOM      9  C   UNL     1       1.915   2.036  18.275  0.00  0.00    +0.000 A 
ATOM     10  C   UNL     1       1.200   3.045  18.903  0.00  0.00    +0.000 A 
ATOM     11  F   UNL     1       0.072   2.740  19.559  0.00  0.00    +0.000 F 
ATOM     12  C   UNL     1       1.637   4.370  18.881  0.00  0.00    +0.000 A 
ATOM     13  C   UNL     1       2.835   4.721  18.241  0.00  0.00    +0.000 A 
ENDROOT
BRANCH   4  14
ATOM     14  S   UNL     1       6.964   5.791  16.397  0.00  0.00    +0.000 S 
ATOM     15  C   UNL     1       7.337   7.172  17.501  0.00  0.00    +0.000 C 
ATOM     16  O   UNL     1       7.929   4.607  16.769  0.00  0.00    +0.000 OA
ENDBRANCH   4  14
TORSDOF 1
ENDMDL
MODEL 2
REMARK VINA RESULT:      -6.7      2.461      3.517
REMARK  Name = 
REMARK  3 active torsions:
REMARK  status: ('A' for Active; 'I' for Inactive)
REMARK    1  A    between atoms: C_1  and  N_2
REMARK    2  A    between atoms: C_4  and  S_5
REMARK    3  A    between atoms: S_5  and  C_6
REMARK                            x       y       z     vdW  Elec       q    Type
REMARK                         _______ _______ _______ _____ _____    ______ ____
ROOT
ATOM      1  C   UNL     1       4.449   3.195  19.680  0.00  0.00    +0.000 C 
ATOM      2  N   UNL     1       4.696   4.216  18.658  0.00  0.00    +0.000 N 
ATOM      3  C   UNL     1       5.510   3.964  17.563  0.00  0.00    +0.000 A 
ATOM      4  C   UNL     1       5.744   4.799  16.542  0.00  0.00    +0.000 A 
ATOM      5  C   UNL     1       5.063   6.114  16.567  0.00  0.00    +0.000 A 
ATOM      6  O   UNL     1       5.256   6.959  15.695  0.00  0.00    +0.000 OA
ATOM      7  C   UNL     1       4.105   6.372  17.673  0.00  0.00    +0.000 A 
ATOM      8  C   UNL     1       3.346   7.554  17.645  0.00  0.00    +0.000 A 
ATOM      9  C   UNL     1       2.414   7.802  18.647  0.00  0.00    +0.000 A 
ATOM     10  C   UNL     1       2.273   6.885  19.679  0.00  0.00    +0.000 A 
ATOM     11  F   UNL     1       1.376   7.118  20.646  0.00  0.00    +0.000 F 
ATOM     12  C   UNL     1       3.033   5.716  19.722  0.00  0.00    +0.000 A 
ATOM     13  C   UNL     1       3.952   5.417  18.704  0.00  0.00    +0.000 A 
ENDROOT
BRANCH   4  14
ATOM     14  S   UNL     1       6.737   4.305  15.155  0.00  0.00    +0.000 S 
ATOM     15  C   UNL     1       5.436   4.151  13.912  0.00  0.00    +0.000 C 
ATOM     16  O   UNL     1       7.637   5.532  14.757  0.00  0.00    +0.000 OA
ENDBRANCH   4  14
TORSDOF 1
ENDMDL
MODEL 3
REMARK VINA RESULT:      -6.5      3.593      5.283
REMARK  Name = 
REMARK  3 active torsions:
REMARK  status: ('A' for Active; 'I' for Inactive)
REMARK    1  A    between atoms: C_1  and  N_2
REMARK    2  A    between atoms: C_4  and  S_5
REMARK    3  A    between atoms: S_5  and  C_6
REMARK                            x       y       z     vdW  Elec       q    Type
REMARK                         _______ _______ _______ _____ _____    ______ ____
ROOT
ATOM      1  C   UNL     1       2.607   7.251  17.845  0.00  0.00    +0.000 C 
ATOM      2  N   UNL     1       3.266   6.060  18.388  0.00  0.00    +0.000 N 
ATOM      3  C   UNL     1       2.535   4.983  18.868  0.00  0.00    +0.000 A 
ATOM      4  C   UNL     1       3.035   3.824  19.318  0.00  0.00    +0.000 A 
ATOM      5  C   UNL     1       4.508   3.662  19.293  0.00  0.00    +0.000 A 
ATOM      6  O   UNL     1       5.055   2.651  19.728  0.00  0.00    +0.000 OA
ATOM      7  C   UNL     1       5.311   4.757  18.689  0.00  0.00    +0.000 A 
ATOM      8  C   UNL     1       6.694   4.570  18.530  0.00  0.00    +0.000 A 
ATOM      9  C   UNL     1       7.463   5.563  17.933  0.00  0.00    +0.000 A 
ATOM     10  C   UNL     1       6.849   6.741  17.530  0.00  0.00    +0.000 A 
ATOM     11  F   UNL     1       7.584   7.701  16.954  0.00  0.00    +0.000 F 
ATOM     12  C   UNL     1       5.478   6.941  17.698  0.00  0.00    +0.000 A 
ATOM     13  C   UNL     1       4.668   5.942  18.259  0.00  0.00    +0.000 A 
ENDROOT
BRANCH   4  14
ATOM     14  S   UNL     1       1.973   2.491  19.814  0.00  0.00    +0.000 S 
ATOM     15  C   UNL     1       1.685   2.978  21.529  0.00  0.00    +0.000 C 
ATOM     16  O   UNL     1       0.615   2.654  19.035  0.00  0.00    +0.000 OA
ENDBRANCH   4  14
TORSDOF 1
ENDMDL
MODEL 4
REMARK VINA RESULT:      -6.5      2.052      3.035
REMARK  Name = 
REMARK  3 active torsions:
REMARK  status: ('A' for Active; 'I' for Inactive)
REMARK    1  A    between atoms: C_1  and  N_2
REMARK    2  A    between atoms: C_4  and  S_5
REMARK    3  A    between atoms: S_5  and  C_6
REMARK                            x       y       z     vdW  Elec       q    Type
REMARK                         _______ _______ _______ _____ _____    ______ ____
ROOT
ATOM      1  C   UNL     1       3.881   1.295  18.074  0.00  0.00    +0.000 C 
ATOM      2  N   UNL     1       3.893   2.760  18.097  0.00  0.00    +0.000 N 
ATOM      3  C   UNL     1       4.553   3.495  17.123  0.00  0.00    +0.000 A 
ATOM      4  C   UNL     1       4.567   4.830  17.012  0.00  0.00    +0.000 A 
ATOM      5  C   UNL     1       3.796   5.605  18.012  0.00  0.00    +0.000 A 
ATOM      6  O   UNL     1       3.790   6.834  18.013  0.00  0.00    +0.000 OA
ATOM      7  C   UNL     1       2.994   4.843  19.004  0.00  0.00    +0.000 A 
ATOM      8  C   UNL     1       2.149   5.551  19.875  0.00  0.00    +0.000 A 
ATOM      9  C   UNL     1       1.359   4.860  20.787  0.00  0.00    +0.000 A 
ATOM     10  C   UNL     1       1.444   3.476  20.841  0.00  0.00    +0.000 A 
ATOM     11  F   UNL     1       0.686   2.805  21.717  0.00  0.00    +0.000 F 
ATOM     12  C   UNL     1       2.292   2.765  19.991  0.00  0.00    +0.000 A 
ATOM     13  C   UNL     1       3.071   3.431  19.031  0.00  0.00    +0.000 A 
ENDROOT
BRANCH   4  14
ATOM     14  S   UNL     1       5.380   5.635  15.654  0.00  0.00    +0.000 S 
ATOM     15  C   UNL     1       7.020   5.838  16.383  0.00  0.00    +0.000 C 
ATOM     16  O   UNL     1       5.501   4.586  14.488  0.00  0.00    +0.000 OA
ENDBRANCH   4  14
TORSDOF 1
ENDMDL
MODEL 5
REMARK VINA RESULT:      -6.5      3.761      5.215
REMARK  Name = 
REMARK  3 active torsions:
REMARK  status: ('A' for Active; 'I' for Inactive)
REMARK    1  A    between atoms: C_1  and  N_2
REMARK    2  A    between atoms: C_4  and  S_5
REMARK    3  A    between atoms: S_5  and  C_6
REMARK                            x       y       z     vdW  Elec       q    Type
REMARK                         _______ _______ _______ _____ _____    ______ ____
ROOT
ATOM      1  C   UNL     1       6.966   5.548  19.341  0.00  0.00    +0.000 C 
ATOM      2  N   UNL     1       5.798   4.923  18.714  0.00  0.00    +0.000 N 
ATOM      3  C   UNL     1       4.629   4.695  19.425  0.00  0.00    +0.000 A 
ATOM      4  C   UNL     1       3.487   4.197  18.933  0.00  0.00    +0.000 A 
ATOM      5  C   UNL     1       3.454   3.866  17.489  0.00  0.00    +0.000 A 
ATOM      6  O   UNL     1       2.464   3.362  16.963  0.00  0.00    +0.000 OA
ATOM      7  C   UNL     1       4.656   4.195  16.680  0.00  0.00    +0.000 A 
ATOM      8  C   UNL     1       4.602   4.018  15.288  0.00  0.00    +0.000 A 
ATOM      9  C   UNL     1       5.699   4.355  14.503  0.00  0.00    +0.000 A 
ATOM     10  C   UNL     1       6.846   4.834  15.118  0.00  0.00    +0.000 A 
ATOM     11  F   UNL     1       7.907   5.160  14.368  0.00  0.00    +0.000 F 
ATOM     12  C   UNL     1       6.916   4.999  16.502  0.00  0.00    +0.000 A 
ATOM     13  C   UNL     1       5.811   4.708  17.317  0.00  0.00    +0.000 A 
ENDROOT
BRANCH   4  14
ATOM     14  S   UNL     1       2.034   4.048  19.943  0.00  0.00    +0.000 S 
ATOM     15  C   UNL     1       2.613   2.780  21.092  0.00  0.00    +0.000 C 
ATOM     16  O   UNL     1       1.879   5.390  20.748  0.00  0.00    +0.000 OA
ENDBRANCH   4  14
TORSDOF 1
ENDMDL
MODEL 6
REMARK VINA RESULT:      -6.3      2.183      3.213
REMARK  Name = 
REMARK  3 active torsions:
REMARK  status: ('A' for Active; 'I' for Inactive)
REMARK    1  A    between atoms: C_1  and  N_2
REMARK    2  A    between atoms: C_4  and  S_5
REMARK    3  A    between atoms: S_5  and  C_6
REMARK                            x       y       z     vdW  Elec       q    Type
REMARK                         _______ _______ _______ _____ _____    ______ ____
ROOT
ATOM      1  C   UNL     1       3.792   1.444  17.924  0.00  0.00    +0.000 C 
ATOM      2  N   UNL     1       3.976   2.896  17.978  0.00  0.00    +0.000 N 
ATOM      3  C   UNL     1       4.736   3.566  17.030  0.00  0.00    +0.000 A 
ATOM      4  C   UNL     1       4.910   4.892  16.947  0.00  0.00    +0.000 A 
ATOM      5  C   UNL     1       4.218   5.734  17.951  0.00  0.00    +0.000 A 
ATOM      6  O   UNL     1       4.357   6.955  17.978  0.00  0.00    +0.000 OA
ATOM      7  C   UNL     1       3.315   5.054  18.915  0.00  0.00    +0.000 A 
ATOM      8  C   UNL     1       2.543   5.840  19.787  0.00  0.00    +0.000 A 
ATOM      9  C   UNL     1       1.661   5.231  20.672  0.00  0.00    +0.000 A 
ATOM     10  C   UNL     1       1.582   3.846  20.698  0.00  0.00    +0.000 A 
ATOM     11  F   UNL     1       0.734   3.253  21.549  0.00  0.00    +0.000 F 
ATOM     12  C   UNL     1       2.355   3.056  19.847  0.00  0.00    +0.000 A 
ATOM     13  C   UNL     1       3.224   3.642  18.913  0.00  0.00    +0.000 A 
ENDROOT
BRANCH   4  14
ATOM     14  S   UNL     1       5.836   5.620  15.619  0.00  0.00    +0.000 S 
ATOM     15  C   UNL     1       5.670   4.299  14.397  0.00  0.00    +0.000 C 
ATOM     16  O   UNL     1       5.019   6.860  15.098  0.00  0.00    +0.000 OA
ENDBRANCH   4  14
TORSDOF 1
ENDMDL
MODEL 7
REMARK VINA RESULT:      -6.3      1.557      1.691
REMARK  Name = 
REMARK  3 active torsions:
REMARK  status: ('A' for Active; 'I' for Inactive)
REMARK    1  A    between atoms: C_1  and  N_2
REMARK    2  A    between atoms: C_4  and  S_5
REMARK    3  A    between atoms: S_5  and  C_6
REMARK                            x       y       z     vdW  Elec       q    Type
REMARK                         _______ _______ _______ _____ _____    ______ ____
ROOT
ATOM      1  C   UNL     1       1.996   7.323  20.108  0.00  0.00    +0.000 C 
ATOM      2  N   UNL     1       2.594   6.333  19.208  0.00  0.00    +0.000 N 
ATOM      3  C   UNL     1       3.482   6.705  18.209  0.00  0.00    +0.000 A 
ATOM      4  C   UNL     1       4.136   5.877  17.382  0.00  0.00    +0.000 A 
ATOM      5  C   UNL     1       3.905   4.424  17.551  0.00  0.00    +0.000 A 
ATOM      6  O   UNL     1       4.427   3.595  16.807  0.00  0.00    +0.000 OA
ATOM      7  C   UNL     1       3.040   3.990  18.678  0.00  0.00    +0.000 A 
ATOM      8  C   UNL     1       2.914   2.616  18.942  0.00  0.00    +0.000 A 
ATOM      9  C   UNL     1       2.142   2.184  20.015  0.00  0.00    +0.000 A 
ATOM     10  C   UNL     1       1.480   3.125  20.791  0.00  0.00    +0.000 A 
ATOM     11  F   UNL     1       0.735   2.716  21.826  0.00  0.00    +0.000 F 
ATOM     12  C   UNL     1       1.586   4.491  20.527  0.00  0.00    +0.000 A 
ATOM     13  C   UNL     1       2.392   4.960  19.477  0.00  0.00    +0.000 A 
ENDROOT
BRANCH   4  14
ATOM     14  S   UNL     1       5.320   6.490  16.210  0.00  0.00    +0.000 S 
ATOM     15  C   UNL     1       6.836   6.166  17.138  0.00  0.00    +0.000 C 
ATOM     16  O   UNL     1       5.302   5.521  14.970  0.00  0.00    +0.000 OA
ENDBRANCH   4  14
TORSDOF 1
ENDMDL
MODEL 8
REMARK VINA RESULT:      -6.3      3.656      5.224
REMARK  Name = 
REMARK  3 active torsions:
REMARK  status: ('A' for Active; 'I' for Inactive)
REMARK    1  A    between atoms: C_1  and  N_2
REMARK    2  A    between atoms: C_4  and  S_5
REMARK    3  A    between atoms: S_5  and  C_6
REMARK                            x       y       z     vdW  Elec       q    Type
REMARK                         _______ _______ _______ _____ _____    ______ ____
ROOT
ATOM      1  C   UNL     1       7.651   5.794  18.853  0.00  0.00    +0.000 C 
ATOM      2  N   UNL     1       6.483   5.025  18.416  0.00  0.00    +0.000 N 
ATOM      3  C   UNL     1       5.456   4.705  19.292  0.00  0.00    +0.000 A 
ATOM      4  C   UNL     1       4.318   4.071  18.980  0.00  0.00    +0.000 A 
ATOM      5  C   UNL     1       4.121   3.680  17.565  0.00  0.00    +0.000 A 
ATOM      6  O   UNL     1       3.128   3.055  17.198  0.00  0.00    +0.000 OA
ATOM      7  C   UNL     1       5.155   4.100  16.585  0.00  0.00    +0.000 A 
ATOM      8  C   UNL     1       4.927   3.862  15.219  0.00  0.00    +0.000 A 
ATOM      9  C   UNL     1       5.861   4.279  14.277  0.00  0.00    +0.000 A 
ATOM     10  C   UNL     1       7.024   4.900  14.710  0.00  0.00    +0.000 A 
ATOM     11  F   UNL     1       7.927   5.305  13.808  0.00  0.00    +0.000 F 
ATOM     12  C   UNL     1       7.266   5.128  16.066  0.00  0.00    +0.000 A 
ATOM     13  C   UNL     1       6.324   4.756  17.037  0.00  0.00    +0.000 A 
ENDROOT
BRANCH   4  14
ATOM     14  S   UNL     1       3.044   3.812  20.190  0.00  0.00    +0.000 S 
ATOM     15  C   UNL     1       1.847   5.035  19.611  0.00  0.00    +0.000 C 
ATOM     16  O   UNL     1       2.433   2.386  19.935  0.00  0.00    +0.000 OA
ENDBRANCH   4  14
TORSDOF 1
ENDMDL
MODEL 9
REMARK VINA RESULT:      -6.2      0.990      1.098
REMARK  Name = 
REMARK  3 active torsions:
REMARK  status: ('A' for Active; 'I' for Inactive)
REMARK    1  A    between atoms: C_1  and  N_2
REMARK    2  A    between atoms: C_4  and  S_5
REMARK    3  A    between atoms: S_5  and  C_6
REMARK                            x       y       z     vdW  Elec       q    Type
REMARK                         _______ _______ _______ _____ _____    ______ ____
ROOT
ATOM      1  C   UNL     1       2.600   7.012  19.010  0.00  0.00    +0.000 C 
ATOM      2  N   UNL     1       3.313   5.957  18.284  0.00  0.00    +0.000 N 
ATOM      3  C   UNL     1       4.564   6.179  17.727  0.00  0.00    +0.000 A 
ATOM      4  C   UNL     1       5.328   5.269  17.108  0.00  0.00    +0.000 A 
ATOM      5  C   UNL     1       4.802   3.887  17.016  0.00  0.00    +0.000 A 
ATOM      6  O   UNL     1       5.415   2.999  16.426  0.00  0.00    +0.000 OA
ATOM      7  C   UNL     1       3.513   3.594  17.694  0.00  0.00    +0.000 A 
ATOM      8  C   UNL     1       3.060   2.265  17.738  0.00  0.00    +0.000 A 
ATOM      9  C   UNL     1       1.877   1.958  18.400  0.00  0.00    +0.000 A 
ATOM     10  C   UNL     1       1.144   2.983  18.982  0.00  0.00    +0.000 A 
ATOM     11  F   UNL     1       0.003   2.694  19.621  0.00  0.00    +0.000 F 
ATOM     12  C   UNL     1       1.578   4.308  18.930  0.00  0.00    +0.000 A 
ATOM     13  C   UNL     1       2.789   4.645  18.306  0.00  0.00    +0.000 A 
ENDROOT
BRANCH   4  14
ATOM     14  S   UNL     1       6.955   5.674  16.524  0.00  0.00    +0.000 S 
ATOM     15  C   UNL     1       6.745   5.256  14.779  0.00  0.00    +0.000 C 
ATOM     16  O   UNL     1       7.119   7.235  16.627  0.00  0.00    +0.000 OA
ENDBRANCH   4  14
TORSDOF 1
ENDMDL
