MODEL 1
REMARK VINA RESULT:      -6.0      0.000      0.000
REMARK  Name = 
REMARK  6 active torsions:
REMARK  status: ('A' for Active; 'I' for Inactive)
REMARK    1  A    between atoms: C_1  and  C_2
REMARK    2  A    between atoms: C_2  and  C_3
REMARK    3  A    between atoms: C_2  and  C_4
REMARK    4  A    between atoms: C_7  and  C_8
REMARK    5  A    between atoms: C_7  and  O_9
REMARK    6  A    between atoms: C_11  and  O_12
REMARK                            x       y       z     vdW  Elec       q    Type
REMARK                         _______ _______ _______ _____ _____    ______ ____
ROOT
ATOM      1  C   UNL     1       4.332   4.987  18.337  0.00  0.00    +0.000 C 
ATOM      2  C   UNL     1       4.387   6.394  17.693  0.00  0.00    +0.000 C 
ATOM      3  C   UNL     1       5.257   6.424  16.440  0.00  0.00    +0.000 C 
ATOM      4  C   UNL     1       6.701   5.979  16.711  0.00  0.00    +0.000 C 
ATOM      5  C   UNL     1       7.488   7.085  17.425  0.00  0.00    +0.000 C 
ATOM      6  C   UNL     1       6.747   4.638  17.462  0.00  0.00    +0.000 C 
ATOM      7  C   UNL     1       5.774   4.503  18.635  0.00  0.00    +0.000 C 
ENDROOT
BRANCH   1   9
ATOM      8  C   UNL     1       3.676   2.519  17.860  0.00  0.00    +0.000 C 
ATOM      9  C   UNL     1       3.474   3.991  17.481  0.00  0.00    +0.000 C 
ATOM     10  C   UNL     1       1.971   4.298  17.612  0.00  0.00    +0.000 C 
ENDBRANCH   1   9
BRANCH   4  11
ATOM     11  O   UNL     1       7.361   5.810  15.448  0.00  0.00    +0.000 OA
ATOM     12  H   UNL     1       7.013   6.470  14.828  0.00  0.00    +0.000 HD
ENDBRANCH   4  11
BRANCH   7  13
ATOM     13  O   UNL     1       6.309   5.196  19.767  0.00  0.00    +0.000 OA
ATOM     14  H   UNL     1       5.643   5.240  20.472  0.00  0.00    +0.000 HD
ENDBRANCH   7  13
TORSDOF 3
ENDMDL
MODEL 2
REMARK VINA RESULT:      -5.7      2.209      3.114
REMARK  Name = 
REMARK  6 active torsions:
REMARK  status: ('A' for Active; 'I' for Inactive)
REMARK    1  A    between atoms: C_1  and  C_2
REMARK    2  A    between atoms: C_2  and  C_3
REMARK    3  A    between atoms: C_2  and  C_4
REMARK    4  A    between atoms: C_7  and  C_8
REMARK    5  A    between atoms: C_7  and  O_9
REMARK    6  A    between atoms: C_11  and  O_12
REMARK                            x       y       z     vdW  Elec       q    Type
REMARK                         _______ _______ _______ _____ _____    ______ ____
ROOT
ATOM      1  C   UNL     1       1.935   4.443  19.285  0.00  0.00    +0.000 C 
ATOM      2  C   UNL     1       2.097   4.538  17.748  0.00  0.00    +0.000 C 
ATOM      3  C   UNL     1       3.446   4.009  17.272  0.00  0.00    +0.000 C 
ATOM      4  C   UNL     1       4.630   4.748  17.911  0.00  0.00    +0.000 C 
ATOM      5  C   UNL     1       4.819   6.131  17.276  0.00  0.00    +0.000 C 
ATOM      6  C   UNL     1       4.497   4.811  19.442  0.00  0.00    +0.000 C 
ATOM      7  C   UNL     1       3.111   5.186  19.970  0.00  0.00    +0.000 C 
ENDROOT
BRANCH   1   9
ATOM      8  C   UNL     1       1.334   2.828  21.228  0.00  0.00    +0.000 C 
ATOM      9  C   UNL     1       1.739   2.959  19.755  0.00  0.00    +0.000 C 
ATOM     10  C   UNL     1       0.661   2.249  18.916  0.00  0.00    +0.000 C 
ENDBRANCH   1   9
BRANCH   4  11
ATOM     11  O   UNL     1       5.831   4.027  17.594  0.00  0.00    +0.000 OA
ATOM     12  H   UNL     1       6.584   4.497  17.983  0.00  0.00    +0.000 HD
ENDBRANCH   4  11
BRANCH   7  13
ATOM     13  O   UNL     1       2.937   6.602  19.861  0.00  0.00    +0.000 OA
ATOM     14  H   UNL     1       3.410   6.933  19.081  0.00  0.00    +0.000 HD
ENDBRANCH   7  13
TORSDOF 3
ENDMDL
MODEL 3
REMARK VINA RESULT:      -5.7      2.587      4.960
REMARK  Name = 
REMARK  6 active torsions:
REMARK  status: ('A' for Active; 'I' for Inactive)
REMARK    1  A    between atoms: C_1  and  C_2
REMARK    2  A    between atoms: C_2  and  C_3
REMARK    3  A    between atoms: C_2  and  C_4
REMARK    4  A    between atoms: C_7  and  C_8
REMARK    5  A    between atoms: C_7  and  O_9
REMARK    6  A    between atoms: C_11  and  O_12
REMARK                            x       y       z     vdW  Elec       q    Type
REMARK                         _______ _______ _______ _____ _____    ______ ____
ROOT
ATOM      1  C   UNL     1       4.238   3.964  18.121  0.00  0.00    +0.000 C 
ATOM      2  C   UNL     1       2.899   4.105  17.356  0.00  0.00    +0.000 C 
ATOM      3  C   UNL     1       1.737   4.448  18.283  0.00  0.00    +0.000 C 
ATOM      4  C   UNL     1       1.533   3.405  19.390  0.00  0.00    +0.000 C 
ATOM      5  C   UNL     1       0.867   2.141  18.833  0.00  0.00    +0.000 C 
ATOM      6  C   UNL     1       2.846   3.105  20.132  0.00  0.00    +0.000 C 
ATOM      7  C   UNL     1       4.077   2.909  19.246  0.00  0.00    +0.000 C 
ENDROOT
BRANCH   1   9
ATOM      8  C   UNL     1       6.185   5.292  19.213  0.00  0.00    +0.000 C 
ATOM      9  C   UNL     1       4.779   5.355  18.603  0.00  0.00    +0.000 C 
ATOM     10  C   UNL     1       4.825   6.366  17.442  0.00  0.00    +0.000 C 
ENDBRANCH   1   9
BRANCH   4  11
ATOM     11  O   UNL     1       0.592   3.934  20.335  0.00  0.00    +0.000 OA
ATOM     12  H   UNL     1       0.430   3.264  21.017  0.00  0.00    +0.000 HD
ENDBRANCH   4  11
BRANCH   7  13
ATOM     13  O   UNL     1       4.048   1.590  18.692  0.00  0.00    +0.000 OA
ATOM     14  H   UNL     1       4.831   1.094  18.981  0.00  0.00    +0.000 HD
ENDBRANCH   7  13
TORSDOF 3
ENDMDL
MODEL 4
REMARK VINA RESULT:      -5.6      1.329      1.494
REMARK  Name = 
REMARK  6 active torsions:
REMARK  status: ('A' for Active; 'I' for Inactive)
REMARK    1  A    between atoms: C_1  and  C_2
REMARK    2  A    between atoms: C_2  and  C_3
REMARK    3  A    between atoms: C_2  and  C_4
REMARK    4  A    between atoms: C_7  and  C_8
REMARK    5  A    between atoms: C_7  and  O_9
REMARK    6  A    between atoms: C_11  and  O_12
REMARK                            x       y       z     vdW  Elec       q    Type
REMARK                         _______ _______ _______ _____ _____    ______ ____
ROOT
ATOM      1  C   UNL     1       3.868   4.406  18.622  0.00  0.00    +0.000 C 
ATOM      2  C   UNL     1       3.931   5.942  18.810  0.00  0.00    +0.000 C 
ATOM      3  C   UNL     1       4.029   6.685  17.482  0.00  0.00    +0.000 C 
ATOM      4  C   UNL     1       5.256   6.268  16.659  0.00  0.00    +0.000 C 
ATOM      5  C   UNL     1       6.536   6.887  17.234  0.00  0.00    +0.000 C 
ATOM      6  C   UNL     1       5.348   4.739  16.519  0.00  0.00    +0.000 C 
ATOM      7  C   UNL     1       5.098   3.941  17.800  0.00  0.00    +0.000 C 
ENDROOT
BRANCH   1   9
ATOM      8  C   UNL     1       2.481   2.507  17.520  0.00  0.00    +0.000 C 
ATOM      9  C   UNL     1       2.485   3.949  18.040  0.00  0.00    +0.000 C 
ATOM     10  C   UNL     1       1.373   4.061  19.100  0.00  0.00    +0.000 C 
ENDBRANCH   1   9
BRANCH   4  11
ATOM     11  O   UNL     1       5.128   6.833  15.346  0.00  0.00    +0.000 OA
ATOM     12  H   UNL     1       4.329   7.383  15.324  0.00  0.00    +0.000 HD
ENDBRANCH   4  11
BRANCH   7  13
ATOM     13  O   UNL     1       6.279   3.973  18.608  0.00  0.00    +0.000 OA
ATOM     14  H   UNL     1       6.154   3.423  19.398  0.00  0.00    +0.000 HD
ENDBRANCH   7  13
TORSDOF 3
ENDMDL
MODEL 5
REMARK VINA RESULT:      -5.6      2.072      3.921
REMARK  Name = 
REMARK  6 active torsions:
REMARK  status: ('A' for Active; 'I' for Inactive)
REMARK    1  A    between atoms: C_1  and  C_2
REMARK    2  A    between atoms: C_2  and  C_3
REMARK    3  A    between atoms: C_2  and  C_4
REMARK    4  A    between atoms: C_7  and  C_8
REMARK    5  A    between atoms: C_7  and  O_9
REMARK    6  A    between atoms: C_11  and  O_12
REMARK                            x       y       z     vdW  Elec       q    Type
REMARK                         _______ _______ _______ _____ _____    ______ ____
ROOT
ATOM      1  C   UNL     1       4.780   4.021  17.213  0.00  0.00    +0.000 C 
ATOM      2  C   UNL     1       3.235   3.959  17.301  0.00  0.00    +0.000 C 
ATOM      3  C   UNL     1       2.645   5.182  17.994  0.00  0.00    +0.000 C 
ATOM      4  C   UNL     1       3.184   5.374  19.418  0.00  0.00    +0.000 C 
ATOM      5  C   UNL     1       2.541   4.373  20.385  0.00  0.00    +0.000 C 
ATOM      6  C   UNL     1       4.721   5.329  19.451  0.00  0.00    +0.000 C 
ATOM      7  C   UNL     1       5.367   4.206  18.636  0.00  0.00    +0.000 C 
ENDROOT
BRANCH   1   9
ATOM      8  C   UNL     1       6.598   5.743  16.524  0.00  0.00    +0.000 C 
ATOM      9  C   UNL     1       5.259   5.087  16.166  0.00  0.00    +0.000 C 
ATOM     10  C   UNL     1       5.410   4.462  14.767  0.00  0.00    +0.000 C 
ENDBRANCH   1   9
BRANCH   4  11
ATOM     11  O   UNL     1       2.762   6.664  19.886  0.00  0.00    +0.000 OA
ATOM     12  H   UNL     1       1.893   6.571  20.306  0.00  0.00    +0.000 HD
ENDBRANCH   4  11
BRANCH   7  13
ATOM     13  O   UNL     1       5.279   2.983  19.375  0.00  0.00    +0.000 OA
ATOM     14  H   UNL     1       4.420   2.930  19.823  0.00  0.00    +0.000 HD
ENDBRANCH   7  13
TORSDOF 3
ENDMDL
MODEL 6
REMARK VINA RESULT:      -5.5      1.672      2.168
REMARK  Name = 
REMARK  6 active torsions:
REMARK  status: ('A' for Active; 'I' for Inactive)
REMARK    1  A    between atoms: C_1  and  C_2
REMARK    2  A    between atoms: C_2  and  C_3
REMARK    3  A    between atoms: C_2  and  C_4
REMARK    4  A    between atoms: C_7  and  C_8
REMARK    5  A    between atoms: C_7  and  O_9
REMARK    6  A    between atoms: C_11  and  O_12
REMARK                            x       y       z     vdW  Elec       q    Type
REMARK                         _______ _______ _______ _____ _____    ______ ____
ROOT
ATOM      1  C   UNL     1       4.465   5.721  18.173  0.00  0.00    +0.000 C 
ATOM      2  C   UNL     1       5.299   6.630  17.237  0.00  0.00    +0.000 C 
ATOM      3  C   UNL     1       5.197   6.205  15.775  0.00  0.00    +0.000 C 
ATOM      4  C   UNL     1       5.654   4.758  15.546  0.00  0.00    +0.000 C 
ATOM      5  C   UNL     1       7.184   4.654  15.590  0.00  0.00    +0.000 C 
ATOM      6  C   UNL     1       4.965   3.787  16.520  0.00  0.00    +0.000 C 
ATOM      7  C   UNL     1       4.903   4.247  17.979  0.00  0.00    +0.000 C 
ENDROOT
BRANCH   1   9
ATOM      8  C   UNL     1       2.051   4.935  18.718  0.00  0.00    +0.000 C 
ATOM      9  C   UNL     1       2.926   5.973  18.004  0.00  0.00    +0.000 C 
ATOM     10  C   UNL     1       2.528   7.360  18.541  0.00  0.00    +0.000 C 
ENDBRANCH   1   9
BRANCH   4  11
ATOM     11  O   UNL     1       5.295   4.382  14.208  0.00  0.00    +0.000 OA
ATOM     12  H   UNL     1       5.621   3.484  14.042  0.00  0.00    +0.000 HD
ENDBRANCH   4  11
BRANCH   7  13
ATOM     13  O   UNL     1       6.175   4.019  18.594  0.00  0.00    +0.000 OA
ATOM     14  H   UNL     1       6.784   3.619  17.954  0.00  0.00    +0.000 HD
ENDBRANCH   7  13
TORSDOF 3
ENDMDL
MODEL 7
REMARK VINA RESULT:      -5.5      2.532      4.313
REMARK  Name = 
REMARK  6 active torsions:
REMARK  status: ('A' for Active; 'I' for Inactive)
REMARK    1  A    between atoms: C_1  and  C_2
REMARK    2  A    between atoms: C_2  and  C_3
REMARK    3  A    between atoms: C_2  and  C_4
REMARK    4  A    between atoms: C_7  and  C_8
REMARK    5  A    between atoms: C_7  and  O_9
REMARK    6  A    between atoms: C_11  and  O_12
REMARK                            x       y       z     vdW  Elec       q    Type
REMARK                         _______ _______ _______ _____ _____    ______ ____
ROOT
ATOM      1  C   UNL     1       3.696   4.945  17.301  0.00  0.00    +0.000 C 
ATOM      2  C   UNL     1       3.832   5.273  18.808  0.00  0.00    +0.000 C 
ATOM      3  C   UNL     1       4.651   4.227  19.557  0.00  0.00    +0.000 C 
ATOM      4  C   UNL     1       4.059   2.816  19.440  0.00  0.00    +0.000 C 
ATOM      5  C   UNL     1       2.826   2.663  20.340  0.00  0.00    +0.000 C 
ATOM      6  C   UNL     1       3.773   2.443  17.976  0.00  0.00    +0.000 C 
ATOM      7  C   UNL     1       3.091   3.526  17.138  0.00  0.00    +0.000 C 
ENDROOT
BRANCH   1   9
ATOM      8  C   UNL     1       5.222   4.259  15.315  0.00  0.00    +0.000 C 
ATOM      9  C   UNL     1       5.046   5.170  16.535  0.00  0.00    +0.000 C 
ATOM     10  C   UNL     1       5.171   6.625  16.046  0.00  0.00    +0.000 C 
ENDBRANCH   1   9
BRANCH   4  11
ATOM     11  O   UNL     1       5.017   1.883  19.963  0.00  0.00    +0.000 OA
ATOM     12  H   UNL     1       5.821   1.932  19.423  0.00  0.00    +0.000 HD
ENDBRANCH   4  11
BRANCH   7  13
ATOM     13  O   UNL     1       1.693   3.542  17.444  0.00  0.00    +0.000 OA
ATOM     14  H   UNL     1       1.436   4.420  17.767  0.00  0.00    +0.000 HD
ENDBRANCH   7  13
TORSDOF 3
ENDMDL
MODEL 8
REMARK VINA RESULT:      -5.4      2.807      4.732
REMARK  Name = 
REMARK  6 active torsions:
REMARK  status: ('A' for Active; 'I' for Inactive)
REMARK    1  A    between atoms: C_1  and  C_2
REMARK    2  A    between atoms: C_2  and  C_3
REMARK    3  A    between atoms: C_2  and  C_4
REMARK    4  A    between atoms: C_7  and  C_8
REMARK    5  A    between atoms: C_7  and  O_9
REMARK    6  A    between atoms: C_11  and  O_12
REMARK                            x       y       z     vdW  Elec       q    Type
REMARK                         _______ _______ _______ _____ _____    ______ ____
ROOT
ATOM      1  C   UNL     1       3.453   3.500  17.363  0.00  0.00    +0.000 C 
ATOM      2  C   UNL     1       2.104   4.235  17.556  0.00  0.00    +0.000 C 
ATOM      3  C   UNL     1       2.047   5.007  18.870  0.00  0.00    +0.000 C 
ATOM      4  C   UNL     1       2.266   4.108  20.095  0.00  0.00    +0.000 C 
ATOM      5  C   UNL     1       1.012   3.278  20.395  0.00  0.00    +0.000 C 
ATOM      6  C   UNL     1       3.528   3.243  19.942  0.00  0.00    +0.000 C 
ATOM      7  C   UNL     1       3.709   2.572  18.579  0.00  0.00    +0.000 C 
ENDROOT
BRANCH   1   9
ATOM      8  C   UNL     1       5.792   4.408  18.033  0.00  0.00    +0.000 C 
ATOM      9  C   UNL     1       4.619   4.502  17.050  0.00  0.00    +0.000 C 
ATOM     10  C   UNL     1       5.183   4.273  15.636  0.00  0.00    +0.000 C 
ENDBRANCH   1   9
BRANCH   4  11
ATOM     11  O   UNL     1       2.436   4.952  21.244  0.00  0.00    +0.000 OA
ATOM     12  H   UNL     1       2.683   4.396  22.000  0.00  0.00    +0.000 HD
ENDBRANCH   4  11
BRANCH   7  13
ATOM     13  O   UNL     1       2.866   1.418  18.511  0.00  0.00    +0.000 OA
ATOM     14  H   UNL     1       2.588   1.265  17.593  0.00  0.00    +0.000 HD
ENDBRANCH   7  13
TORSDOF 3
ENDMDL
MODEL 9
REMARK VINA RESULT:      -5.4      2.714      4.868
REMARK  Name = 
REMARK  6 active torsions:
REMARK  status: ('A' for Active; 'I' for Inactive)
REMARK    1  A    between atoms: C_1  and  C_2
REMARK    2  A    between atoms: C_2  and  C_3
REMARK    3  A    between atoms: C_2  and  C_4
REMARK    4  A    between atoms: C_7  and  C_8
REMARK    5  A    between atoms: C_7  and  O_9
REMARK    6  A    between atoms: C_11  and  O_12
REMARK                            x       y       z     vdW  Elec       q    Type
REMARK                         _______ _______ _______ _____ _____    ______ ____
ROOT
ATOM      1  C   UNL     1       3.349   3.938  17.367  0.00  0.00    +0.000 C 
ATOM      2  C   UNL     1       2.138   4.780  17.837  0.00  0.00    +0.000 C 
ATOM      3  C   UNL     1       2.156   5.033  19.341  0.00  0.00    +0.000 C 
ATOM      4  C   UNL     1       2.165   3.734  20.159  0.00  0.00    +0.000 C 
ATOM      5  C   UNL     1       0.776   3.084  20.168  0.00  0.00    +0.000 C 
ATOM      6  C   UNL     1       3.266   2.773  19.682  0.00  0.00    +0.000 C 
ATOM      7  C   UNL     1       3.390   2.610  18.165  0.00  0.00    +0.000 C 
ENDROOT
BRANCH   1   9
ATOM      8  C   UNL     1       5.792   4.190  16.522  0.00  0.00    +0.000 C 
ATOM      9  C   UNL     1       4.681   4.765  17.409  0.00  0.00    +0.000 C 
ATOM     10  C   UNL     1       4.445   6.221  16.966  0.00  0.00    +0.000 C 
ENDBRANCH   1   9
BRANCH   4  11
ATOM     11  O   UNL     1       2.426   4.071  21.530  0.00  0.00    +0.000 OA
ATOM     12  H   UNL     1       3.186   4.673  21.561  0.00  0.00    +0.000 HD
ENDBRANCH   4  11
BRANCH   7  13
ATOM     13  O   UNL     1       2.366   1.721  17.707  0.00  0.00    +0.000 OA
ATOM     14  H   UNL     1       2.545   0.821  18.022  0.00  0.00    +0.000 HD
ENDBRANCH   7  13
TORSDOF 3
ENDMDL
