MODEL 1
REMARK VINA RESULT:      -8.6      0.000      0.000
REMARK  Name = 
REMARK  9 active torsions:
REMARK  status: ('A' for Active; 'I' for Inactive)
REMARK    1  A    between atoms: S_2  and  C_4
REMARK    2  A    between atoms: S_2  and  N_7
REMARK    3  A    between atoms: N_7  and  C_8
REMARK    4  A    between atoms: N_7  and  C_13
REMARK    5  A    between atoms: C_8  and  C_9
REMARK    6  A    between atoms: C_16  and  C_17
REMARK    7  A    between atoms: C_17  and  O_18
REMARK    8  A    between atoms: C_17  and  C_19
REMARK    9  A    between atoms: C_17  and  C_23
REMARK                            x       y       z     vdW  Elec       q    Type
REMARK                         _______ _______ _______ _____ _____    ______ ____
ROOT
ATOM      1  C   UNL     1       5.223   5.372  17.973  0.00  0.00    +0.000 A 
ATOM      2  C   UNL     1       3.941   5.868  17.748  0.00  0.00    +0.000 A 
ATOM      3  C   UNL     1       2.842   5.311  18.402  0.00  0.00    +0.000 A 
ATOM      4  C   UNL     1       3.000   4.240  19.302  0.00  0.00    +0.000 A 
ATOM      5  C   UNL     1       4.311   3.777  19.542  0.00  0.00    +0.000 A 
ATOM      6  C   UNL     1       5.413   4.335  18.881  0.00  0.00    +0.000 A 
ENDROOT
BRANCH   1   7
ATOM      7  N   UNL     1       6.309   5.943  17.252  0.00  0.00    +0.000 N 
BRANCH   7   9
ATOM      8  O   UNL     1       8.155   4.172  17.054  0.00  0.00    +0.000 OA
ATOM      9  S   UNL     1       7.252   4.967  16.251  0.00  0.00    +0.000 S 
ATOM     10  O   UNL     1       7.742   5.821  15.190  0.00  0.00    +0.000 OA
BRANCH   9  11
ATOM     11  C   UNL     1       6.097   3.824  15.413  0.00  0.00    +0.000 C 
ATOM     12  C   UNL     1       5.108   4.546  14.529  0.00  0.00    +0.000 C 
ATOM     13  C   UNL     1       6.205   3.720  13.916  0.00  0.00    +0.000 C 
ENDBRANCH   9  11
ENDBRANCH   7   9
BRANCH   7  14
ATOM     14  C   UNL     1       6.458   7.421  17.168  0.00  0.00    +0.000 C 
BRANCH  14  15
ATOM     15  C   UNL     1       7.761   7.991  17.738  0.00  0.00    +0.000 C 
ATOM     16  F   UNL     1       8.301   7.255  18.731  0.00  0.00    +0.000 F 
ATOM     17  F   UNL     1       8.699   8.104  16.766  0.00  0.00    +0.000 F 
ATOM     18  F   UNL     1       7.552   9.238  18.227  0.00  0.00    +0.000 F 
ENDBRANCH  14  15
ENDBRANCH   7  14
ENDBRANCH   1   7
BRANCH   4  19
ATOM     19  C   UNL     1       1.779   3.575  19.979  0.00  0.00    +0.000 C 
BRANCH  19  20
ATOM     20  C   UNL     1       1.230   2.389  19.136  0.00  0.00    +0.000 C 
ATOM     21  F   UNL     1       1.632   1.185  19.618  0.00  0.00    +0.000 F 
ATOM     22  F   UNL     1      -0.101   2.309  18.990  0.00  0.00    +0.000 F 
ATOM     23  F   UNL     1       1.756   2.454  17.878  0.00  0.00    +0.000 F 
ENDBRANCH  19  20
BRANCH  19  24
ATOM     24  C   UNL     1       2.090   3.107  21.430  0.00  0.00    +0.000 C 
ATOM     25  F   UNL     1       2.436   4.141  22.239  0.00  0.00    +0.000 F 
ATOM     26  F   UNL     1       1.006   2.533  22.013  0.00  0.00    +0.000 F 
ATOM     27  F   UNL     1       3.089   2.209  21.544  0.00  0.00    +0.000 F 
ENDBRANCH  19  24
BRANCH  19  28
ATOM     28  O   UNL     1       0.735   4.621  20.040  0.00  0.00    +0.000 OA
ATOM     29  H   UNL     1       1.176   5.483  19.913  0.00  0.00    +0.000 HD
ENDBRANCH  19  28
ENDBRANCH   4  19
TORSDOF 9
ENDMDL
MODEL 2
REMARK VINA RESULT:      -8.5      0.238      1.270
REMARK  Name = 
REMARK  9 active torsions:
REMARK  status: ('A' for Active; 'I' for Inactive)
REMARK    1  A    between atoms: S_2  and  C_4
REMARK    2  A    between atoms: S_2  and  N_7
REMARK    3  A    between atoms: N_7  and  C_8
REMARK    4  A    between atoms: N_7  and  C_13
REMARK    5  A    between atoms: C_8  and  C_9
REMARK    6  A    between atoms: C_16  and  C_17
REMARK    7  A    between atoms: C_17  and  O_18
REMARK    8  A    between atoms: C_17  and  C_19
REMARK    9  A    between atoms: C_17  and  C_23
REMARK                            x       y       z     vdW  Elec       q    Type
REMARK                         _______ _______ _______ _____ _____    ______ ____
ROOT
ATOM      1  C   UNL     1       5.252   5.434  18.047  0.00  0.00    +0.000 A 
ATOM      2  C   UNL     1       4.015   6.075  18.017  0.00  0.00    +0.000 A 
ATOM      3  C   UNL     1       2.920   5.531  18.688  0.00  0.00    +0.000 A 
ATOM      4  C   UNL     1       3.036   4.328  19.410  0.00  0.00    +0.000 A 
ATOM      5  C   UNL     1       4.306   3.715  19.457  0.00  0.00    +0.000 A 
ATOM      6  C   UNL     1       5.404   4.261  18.778  0.00  0.00    +0.000 A 
ENDROOT
BRANCH   1   7
ATOM      7  N   UNL     1       6.330   6.004  17.313  0.00  0.00    +0.000 N 
BRANCH   7   9
ATOM      8  O   UNL     1       8.166   4.227  17.086  0.00  0.00    +0.000 OA
ATOM      9  S   UNL     1       7.256   5.028  16.297  0.00  0.00    +0.000 S 
ATOM     10  O   UNL     1       7.734   5.883  15.232  0.00  0.00    +0.000 OA
BRANCH   9  11
ATOM     11  C   UNL     1       6.085   3.891  15.470  0.00  0.00    +0.000 C 
ATOM     12  C   UNL     1       5.101   4.618  14.586  0.00  0.00    +0.000 C 
ATOM     13  C   UNL     1       6.187   3.776  13.974  0.00  0.00    +0.000 C 
ENDBRANCH   9  11
ENDBRANCH   7   9
BRANCH   7  14
ATOM     14  C   UNL     1       6.482   7.482  17.231  0.00  0.00    +0.000 C 
BRANCH  14  15
ATOM     15  C   UNL     1       7.793   8.046  17.787  0.00  0.00    +0.000 C 
ATOM     16  F   UNL     1       7.677   9.264  18.353  0.00  0.00    +0.000 F 
ATOM     17  F   UNL     1       8.312   7.215  18.724  0.00  0.00    +0.000 F 
ATOM     18  F   UNL     1       8.716   8.146  16.799  0.00  0.00    +0.000 F 
ENDBRANCH  14  15
ENDBRANCH   7  14
ENDBRANCH   1   7
BRANCH   4  19
ATOM     19  C   UNL     1       1.811   3.684  20.100  0.00  0.00    +0.000 C 
BRANCH  19  20
ATOM     20  C   UNL     1       1.180   2.566  19.224  0.00  0.00    +0.000 C 
ATOM     21  F   UNL     1       1.188   2.880  17.903  0.00  0.00    +0.000 F 
ATOM     22  F   UNL     1       1.715   1.340  19.322  0.00  0.00    +0.000 F 
ATOM     23  F   UNL     1      -0.142   2.440  19.544  0.00  0.00    +0.000 F 
ENDBRANCH  19  20
BRANCH  19  24
ATOM     24  C   UNL     1       2.152   3.135  21.515  0.00  0.00    +0.000 C 
ATOM     25  F   UNL     1       3.177   2.245  21.488  0.00  0.00    +0.000 F 
ATOM     26  F   UNL     1       2.550   4.127  22.354  0.00  0.00    +0.000 F 
ATOM     27  F   UNL     1       1.142   2.502  22.147  0.00  0.00    +0.000 F 
ENDBRANCH  19  24
BRANCH  19  28
ATOM     28  O   UNL     1       0.819   4.772  20.249  0.00  0.00    +0.000 OA
ATOM     29  H   UNL     1       1.297   5.563  20.563  0.00  0.00    +0.000 HD
ENDBRANCH  19  28
ENDBRANCH   4  19
TORSDOF 9
ENDMDL
MODEL 3
REMARK VINA RESULT:      -8.2      0.320      1.173
REMARK  Name = 
REMARK  9 active torsions:
REMARK  status: ('A' for Active; 'I' for Inactive)
REMARK    1  A    between atoms: S_2  and  C_4
REMARK    2  A    between atoms: S_2  and  N_7
REMARK    3  A    between atoms: N_7  and  C_8
REMARK    4  A    between atoms: N_7  and  C_13
REMARK    5  A    between atoms: C_8  and  C_9
REMARK    6  A    between atoms: C_16  and  C_17
REMARK    7  A    between atoms: C_17  and  O_18
REMARK    8  A    between atoms: C_17  and  C_19
REMARK    9  A    between atoms: C_17  and  C_23
REMARK                            x       y       z     vdW  Elec       q    Type
REMARK                         _______ _______ _______ _____ _____    ______ ____
ROOT
ATOM      1  C   UNL     1       5.108   5.469  17.896  0.00  0.00    +0.000 A 
ATOM      2  C   UNL     1       5.192   4.178  18.411  0.00  0.00    +0.000 A 
ATOM      3  C   UNL     1       4.113   3.617  19.095  0.00  0.00    +0.000 A 
ATOM      4  C   UNL     1       2.918   4.338  19.279  0.00  0.00    +0.000 A 
ATOM      5  C   UNL     1       2.842   5.631  18.718  0.00  0.00    +0.000 A 
ATOM      6  C   UNL     1       3.929   6.194  18.036  0.00  0.00    +0.000 A 
ENDROOT
BRANCH   1   7
ATOM      7  N   UNL     1       6.249   6.015  17.243  0.00  0.00    +0.000 N 
BRANCH   7   9
ATOM      8  O   UNL     1       8.109   4.250  17.144  0.00  0.00    +0.000 OA
ATOM      9  S   UNL     1       7.225   5.019  16.295  0.00  0.00    +0.000 S 
ATOM     10  O   UNL     1       7.739   5.848  15.226  0.00  0.00    +0.000 OA
BRANCH   9  11
ATOM     11  C   UNL     1       6.099   3.847  15.456  0.00  0.00    +0.000 C 
ATOM     12  C   UNL     1       5.117   4.541  14.543  0.00  0.00    +0.000 C 
ATOM     13  C   UNL     1       6.236   3.720  13.964  0.00  0.00    +0.000 C 
ENDBRANCH   9  11
ENDBRANCH   7   9
BRANCH   7  14
ATOM     14  C   UNL     1       6.440   7.489  17.176  0.00  0.00    +0.000 C 
BRANCH  14  15
ATOM     15  C   UNL     1       7.757   8.016  17.757  0.00  0.00    +0.000 C 
ATOM     16  F   UNL     1       7.668   9.243  18.308  0.00  0.00    +0.000 F 
ATOM     17  F   UNL     1       8.226   7.178  18.713  0.00  0.00    +0.000 F 
ATOM     18  F   UNL     1       8.704   8.074  16.789  0.00  0.00    +0.000 F 
ENDBRANCH  14  15
ENDBRANCH   7  14
ENDBRANCH   1   7
BRANCH   4  19
ATOM     19  C   UNL     1       1.742   3.749  20.093  0.00  0.00    +0.000 C 
BRANCH  19  20
ATOM     20  C   UNL     1       1.005   2.629  19.307  0.00  0.00    +0.000 C 
ATOM     21  F   UNL     1       1.637   1.430  19.403  0.00  0.00    +0.000 F 
ATOM     22  F   UNL     1      -0.278   2.402  19.627  0.00  0.00    +0.000 F 
ATOM     23  F   UNL     1       1.026   2.928  17.975  0.00  0.00    +0.000 F 
ENDBRANCH  19  20
BRANCH  19  24
ATOM     24  C   UNL     1       2.193   3.224  21.487  0.00  0.00    +0.000 C 
ATOM     25  F   UNL     1       2.579   4.230  22.314  0.00  0.00    +0.000 F 
ATOM     26  F   UNL     1       1.181   2.587  22.132  0.00  0.00    +0.000 F 
ATOM     27  F   UNL     1       3.224   2.355  21.470  0.00  0.00    +0.000 F 
ENDBRANCH  19  24
BRANCH  19  28
ATOM     28  O   UNL     1       0.797   4.868  20.300  0.00  0.00    +0.000 OA
ATOM     29  H   UNL     1      -0.037   4.488  20.636  0.00  0.00    +0.000 HD
ENDBRANCH  19  28
ENDBRANCH   4  19
TORSDOF 9
ENDMDL
MODEL 4
REMARK VINA RESULT:      -8.1      0.182      1.537
REMARK  Name = 
REMARK  9 active torsions:
REMARK  status: ('A' for Active; 'I' for Inactive)
REMARK    1  A    between atoms: S_2  and  C_4
REMARK    2  A    between atoms: S_2  and  N_7
REMARK    3  A    between atoms: N_7  and  C_8
REMARK    4  A    between atoms: N_7  and  C_13
REMARK    5  A    between atoms: C_8  and  C_9
REMARK    6  A    between atoms: C_16  and  C_17
REMARK    7  A    between atoms: C_17  and  O_18
REMARK    8  A    between atoms: C_17  and  C_19
REMARK    9  A    between atoms: C_17  and  C_23
REMARK                            x       y       z     vdW  Elec       q    Type
REMARK                         _______ _______ _______ _____ _____    ______ ____
ROOT
ATOM      1  C   UNL     1       5.148   5.332  17.792  0.00  0.00    +0.000 A 
ATOM      2  C   UNL     1       5.361   4.280  18.680  0.00  0.00    +0.000 A 
ATOM      3  C   UNL     1       4.290   3.702  19.362  0.00  0.00    +0.000 A 
ATOM      4  C   UNL     1       2.974   4.164  19.171  0.00  0.00    +0.000 A 
ATOM      5  C   UNL     1       2.777   5.206  18.240  0.00  0.00    +0.000 A 
ATOM      6  C   UNL     1       3.855   5.789  17.560  0.00  0.00    +0.000 A 
ENDROOT
BRANCH   1   7
ATOM      7  N   UNL     1       6.276   5.919  17.151  0.00  0.00    +0.000 N 
BRANCH   7   9
ATOM      8  O   UNL     1       8.167   4.192  16.993  0.00  0.00    +0.000 OA
ATOM      9  S   UNL     1       7.266   4.970  16.170  0.00  0.00    +0.000 S 
ATOM     10  O   UNL     1       7.760   5.839  15.125  0.00  0.00    +0.000 OA
BRANCH   9  11
ATOM     11  C   UNL     1       6.159   3.803  15.300  0.00  0.00    +0.000 C 
ATOM     12  C   UNL     1       5.159   4.506  14.413  0.00  0.00    +0.000 C 
ATOM     13  C   UNL     1       6.290   3.725  13.804  0.00  0.00    +0.000 C 
ENDBRANCH   9  11
ENDBRANCH   7   9
BRANCH   7  14
ATOM     14  C   UNL     1       6.438   7.398  17.126  0.00  0.00    +0.000 C 
BRANCH  14  15
ATOM     15  C   UNL     1       7.742   7.933  17.727  0.00  0.00    +0.000 C 
ATOM     16  F   UNL     1       7.626   9.137  18.322  0.00  0.00    +0.000 F 
ATOM     17  F   UNL     1       8.231   7.072  18.653  0.00  0.00    +0.000 F 
ATOM     18  F   UNL     1       8.688   8.048  16.762  0.00  0.00    +0.000 F 
ENDBRANCH  14  15
ENDBRANCH   7  14
ENDBRANCH   1   7
BRANCH   4  19
ATOM     19  C   UNL     1       1.792   3.573  19.973  0.00  0.00    +0.000 C 
BRANCH  19  20
ATOM     20  C   UNL     1       1.164   2.348  19.250  0.00  0.00    +0.000 C 
ATOM     21  F   UNL     1      -0.194   2.393  19.246  0.00  0.00    +0.000 F 
ATOM     22  F   UNL     1       1.536   2.132  17.980  0.00  0.00    +0.000 F 
ATOM     23  F   UNL     1       1.472   1.213  19.944  0.00  0.00    +0.000 F 
ENDBRANCH  19  20
BRANCH  19  24
ATOM     24  C   UNL     1       2.195   3.194  21.427  0.00  0.00    +0.000 C 
ATOM     25  F   UNL     1       1.188   2.574  22.094  0.00  0.00    +0.000 F 
ATOM     26  F   UNL     1       3.238   2.324  21.445  0.00  0.00    +0.000 F 
ATOM     27  F   UNL     1       2.564   4.227  22.210  0.00  0.00    +0.000 F 
ENDBRANCH  19  24
BRANCH  19  28
ATOM     28  O   UNL     1       0.774   4.645  20.035  0.00  0.00    +0.000 OA
ATOM     29  H   UNL     1       0.958   5.266  19.304  0.00  0.00    +0.000 HD
ENDBRANCH  19  28
ENDBRANCH   4  19
TORSDOF 9
ENDMDL
MODEL 5
REMARK VINA RESULT:      -7.9      0.962      2.168
REMARK  Name = 
REMARK  9 active torsions:
REMARK  status: ('A' for Active; 'I' for Inactive)
REMARK    1  A    between atoms: S_2  and  C_4
REMARK    2  A    between atoms: S_2  and  N_7
REMARK    3  A    between atoms: N_7  and  C_8
REMARK    4  A    between atoms: N_7  and  C_13
REMARK    5  A    between atoms: C_8  and  C_9
REMARK    6  A    between atoms: C_16  and  C_17
REMARK    7  A    between atoms: C_17  and  O_18
REMARK    8  A    between atoms: C_17  and  C_19
REMARK    9  A    between atoms: C_17  and  C_23
REMARK                            x       y       z     vdW  Elec       q    Type
REMARK                         _______ _______ _______ _____ _____    ______ ____
ROOT
ATOM      1  C   UNL     1       5.326   5.081  17.857  0.00  0.00    +0.000 A 
ATOM      2  C   UNL     1       3.997   5.450  17.661  0.00  0.00    +0.000 A 
ATOM      3  C   UNL     1       2.970   4.774  18.320  0.00  0.00    +0.000 A 
ATOM      4  C   UNL     1       3.249   3.707  19.195  0.00  0.00    +0.000 A 
ATOM      5  C   UNL     1       4.604   3.373  19.407  0.00  0.00    +0.000 A 
ATOM      6  C   UNL     1       5.634   4.051  18.740  0.00  0.00    +0.000 A 
ENDROOT
BRANCH   1   7
ATOM      7  N   UNL     1       6.337   5.772  17.131  0.00  0.00    +0.000 N 
BRANCH   7   9
ATOM      8  O   UNL     1       8.281   4.131  16.801  0.00  0.00    +0.000 OA
ATOM      9  S   UNL     1       7.324   4.922  16.060  0.00  0.00    +0.000 S 
ATOM     10  O   UNL     1       7.749   5.871  15.054  0.00  0.00    +0.000 OA
BRANCH   9  11
ATOM     11  C   UNL     1       6.228   3.769  15.157  0.00  0.00    +0.000 C 
ATOM     12  C   UNL     1       5.171   4.486  14.352  0.00  0.00    +0.000 C 
ATOM     13  C   UNL     1       6.306   3.789  13.655  0.00  0.00    +0.000 C 
ENDBRANCH   9  11
ENDBRANCH   7   9
BRANCH   7  14
ATOM     14  C   UNL     1       6.360   7.259  17.110  0.00  0.00    +0.000 C 
BRANCH  14  15
ATOM     15  C   UNL     1       7.634   7.911  17.658  0.00  0.00    +0.000 C 
ATOM     16  F   UNL     1       8.631   8.022  16.758  0.00  0.00    +0.000 F 
ATOM     17  F   UNL     1       7.371   9.157  18.123  0.00  0.00    +0.000 F 
ATOM     18  F   UNL     1       8.111   7.195  18.706  0.00  0.00    +0.000 F 
ENDBRANCH  14  15
ENDBRANCH   7  14
ENDBRANCH   1   7
BRANCH   4  19
ATOM     19  C   UNL     1       2.113   2.910  19.877  0.00  0.00    +0.000 C 
BRANCH  19  20
ATOM     20  C   UNL     1       2.215   2.976  21.426  0.00  0.00    +0.000 C 
ATOM     21  F   UNL     1       3.185   2.160  21.914  0.00  0.00    +0.000 F 
ATOM     22  F   UNL     1       2.430   4.182  21.973  0.00  0.00    +0.000 F 
ATOM     23  F   UNL     1       1.056   2.504  21.972  0.00  0.00    +0.000 F 
ENDBRANCH  19  20
BRANCH  19  24
ATOM     24  C   UNL     1       0.703   3.373  19.408  0.00  0.00    +0.000 C 
ATOM     25  F   UNL     1      -0.220   2.382  19.501  0.00  0.00    +0.000 F 
ATOM     26  F   UNL     1       0.230   4.388  20.177  0.00  0.00    +0.000 F 
ATOM     27  F   UNL     1       0.635   3.813  18.136  0.00  0.00    +0.000 F 
ENDBRANCH  19  24
BRANCH  19  28
ATOM     28  O   UNL     1       2.304   1.504  19.460  0.00  0.00    +0.000 OA
ATOM     29  H   UNL     1       2.381   1.495  18.486  0.00  0.00    +0.000 HD
ENDBRANCH  19  28
ENDBRANCH   4  19
TORSDOF 9
ENDMDL
MODEL 6
REMARK VINA RESULT:      -7.8      0.796      1.352
REMARK  Name = 
REMARK  9 active torsions:
REMARK  status: ('A' for Active; 'I' for Inactive)
REMARK    1  A    between atoms: S_2  and  C_4
REMARK    2  A    between atoms: S_2  and  N_7
REMARK    3  A    between atoms: N_7  and  C_8
REMARK    4  A    between atoms: N_7  and  C_13
REMARK    5  A    between atoms: C_8  and  C_9
REMARK    6  A    between atoms: C_16  and  C_17
REMARK    7  A    between atoms: C_17  and  O_18
REMARK    8  A    between atoms: C_17  and  C_19
REMARK    9  A    between atoms: C_17  and  C_23
REMARK                            x       y       z     vdW  Elec       q    Type
REMARK                         _______ _______ _______ _____ _____    ______ ____
ROOT
ATOM      1  C   UNL     1       5.444   5.100  18.009  0.00  0.00    +0.000 A 
ATOM      2  C   UNL     1       4.312   5.907  18.102  0.00  0.00    +0.000 A 
ATOM      3  C   UNL     1       3.180   5.463  18.785  0.00  0.00    +0.000 A 
ATOM      4  C   UNL     1       3.153   4.196  19.397  0.00  0.00    +0.000 A 
ATOM      5  C   UNL     1       4.323   3.410  19.322  0.00  0.00    +0.000 A 
ATOM      6  C   UNL     1       5.457   3.856  18.631  0.00  0.00    +0.000 A 
ENDROOT
BRANCH   1   7
ATOM      7  N   UNL     1       6.560   5.578  17.266  0.00  0.00    +0.000 N 
BRANCH   7   9
ATOM      8  O   UNL     1       7.781   5.748  15.016  0.00  0.00    +0.000 OA
ATOM      9  S   UNL     1       6.453   5.701  15.588  0.00  0.00    +0.000 S 
ATOM     10  O   UNL     1       5.479   6.736  15.315  0.00  0.00    +0.000 OA
BRANCH   9  11
ATOM     11  C   UNL     1       5.651   4.163  15.010  0.00  0.00    +0.000 C 
ATOM     12  C   UNL     1       5.051   4.305  13.632  0.00  0.00    +0.000 C 
ATOM     13  C   UNL     1       6.281   3.464  13.836  0.00  0.00    +0.000 C 
ENDBRANCH   9  11
ENDBRANCH   7   9
BRANCH   7  14
ATOM     14  C   UNL     1       7.711   6.208  17.966  0.00  0.00    +0.000 C 
BRANCH  14  15
ATOM     15  C   UNL     1       7.798   7.735  17.859  0.00  0.00    +0.000 C 
ATOM     16  F   UNL     1       6.602   8.357  17.827  0.00  0.00    +0.000 F 
ATOM     17  F   UNL     1       8.490   8.248  18.904  0.00  0.00    +0.000 F 
ATOM     18  F   UNL     1       8.469   8.088  16.735  0.00  0.00    +0.000 F 
ENDBRANCH  14  15
ENDBRANCH   7  14
ENDBRANCH   1   7
BRANCH   4  19
ATOM     19  C   UNL     1       1.879   3.670  20.099  0.00  0.00    +0.000 C 
BRANCH  19  20
ATOM     20  C   UNL     1       1.178   2.564  19.263  0.00  0.00    +0.000 C 
ATOM     21  F   UNL     1       1.270   2.791  17.927  0.00  0.00    +0.000 F 
ATOM     22  F   UNL     1       1.587   1.301  19.457  0.00  0.00    +0.000 F 
ATOM     23  F   UNL     1      -0.161   2.583  19.528  0.00  0.00    +0.000 F 
ENDBRANCH  19  20
BRANCH  19  24
ATOM     24  C   UNL     1       2.167   3.158  21.540  0.00  0.00    +0.000 C 
ATOM     25  F   UNL     1       2.509   4.165  22.384  0.00  0.00    +0.000 F 
ATOM     26  F   UNL     1       1.071   2.574  22.090  0.00  0.00    +0.000 F 
ATOM     27  F   UNL     1       3.158   2.250  21.641  0.00  0.00    +0.000 F 
ENDBRANCH  19  24
BRANCH  19  28
ATOM     28  O   UNL     1       0.965   4.830  20.191  0.00  0.00    +0.000 OA
ATOM     29  H   UNL     1       0.830   5.022  21.139  0.00  0.00    +0.000 HD
ENDBRANCH  19  28
ENDBRANCH   4  19
TORSDOF 9
ENDMDL
MODEL 7
REMARK VINA RESULT:      -7.7      0.819      1.469
REMARK  Name = 
REMARK  9 active torsions:
REMARK  status: ('A' for Active; 'I' for Inactive)
REMARK    1  A    between atoms: S_2  and  C_4
REMARK    2  A    between atoms: S_2  and  N_7
REMARK    3  A    between atoms: N_7  and  C_8
REMARK    4  A    between atoms: N_7  and  C_13
REMARK    5  A    between atoms: C_8  and  C_9
REMARK    6  A    between atoms: C_16  and  C_17
REMARK    7  A    between atoms: C_17  and  O_18
REMARK    8  A    between atoms: C_17  and  C_19
REMARK    9  A    between atoms: C_17  and  C_23
REMARK                            x       y       z     vdW  Elec       q    Type
REMARK                         _______ _______ _______ _____ _____    ______ ____
ROOT
ATOM      1  C   UNL     1       5.447   5.151  18.111  0.00  0.00    +0.000 A 
ATOM      2  C   UNL     1       4.396   6.028  18.368  0.00  0.00    +0.000 A 
ATOM      3  C   UNL     1       3.259   5.589  19.046  0.00  0.00    +0.000 A 
ATOM      4  C   UNL     1       3.145   4.256  19.486  0.00  0.00    +0.000 A 
ATOM      5  C   UNL     1       4.237   3.395  19.246  0.00  0.00    +0.000 A 
ATOM      6  C   UNL     1       5.376   3.836  18.561  0.00  0.00    +0.000 A 
ENDROOT
BRANCH   1   7
ATOM      7  N   UNL     1       6.569   5.632  17.378  0.00  0.00    +0.000 N 
BRANCH   7   9
ATOM      8  O   UNL     1       7.823   5.799  15.146  0.00  0.00    +0.000 OA
ATOM      9  S   UNL     1       6.487   5.735  15.697  0.00  0.00    +0.000 S 
ATOM     10  O   UNL     1       5.499   6.749  15.398  0.00  0.00    +0.000 OA
BRANCH   9  11
ATOM     11  C   UNL     1       5.721   4.176  15.125  0.00  0.00    +0.000 C 
ATOM     12  C   UNL     1       5.035   4.326  13.788  0.00  0.00    +0.000 C 
ATOM     13  C   UNL     1       6.310   3.537  13.898  0.00  0.00    +0.000 C 
ENDBRANCH   9  11
ENDBRANCH   7   9
BRANCH   7  14
ATOM     14  C   UNL     1       7.703   6.283  18.088  0.00  0.00    +0.000 C 
BRANCH  14  15
ATOM     15  C   UNL     1       7.823   7.799  17.898  0.00  0.00    +0.000 C 
ATOM     16  F   UNL     1       8.410   8.168  16.743  0.00  0.00    +0.000 F 
ATOM     17  F   UNL     1       6.600   8.383  17.933  0.00  0.00    +0.000 F 
ATOM     18  F   UNL     1       8.544   8.341  18.910  0.00  0.00    +0.000 F 
ENDBRANCH  14  15
ENDBRANCH   7  14
ENDBRANCH   1   7
BRANCH   4  19
ATOM     19  C   UNL     1       1.860   3.747  20.179  0.00  0.00    +0.000 C 
BRANCH  19  20
ATOM     20  C   UNL     1       1.084   2.742  19.282  0.00  0.00    +0.000 C 
ATOM     21  F   UNL     1      -0.234   2.678  19.601  0.00  0.00    +0.000 F 
ATOM     22  F   UNL     1       1.140   2.939  17.956  0.00  0.00    +0.000 F 
ATOM     23  F   UNL     1       1.558   1.482  19.508  0.00  0.00    +0.000 F 
ENDBRANCH  19  20
BRANCH  19  24
ATOM     24  C   UNL     1       2.150   3.116  21.571  0.00  0.00    +0.000 C 
ATOM     25  F   UNL     1       3.174   2.224  21.528  0.00  0.00    +0.000 F 
ATOM     26  F   UNL     1       2.522   4.057  22.478  0.00  0.00    +0.000 F 
ATOM     27  F   UNL     1       1.118   2.453  22.130  0.00  0.00    +0.000 F 
ENDBRANCH  19  24
BRANCH  19  28
ATOM     28  O   UNL     1       1.011   4.942  20.377  0.00  0.00    +0.000 OA
ATOM     29  H   UNL     1       1.565   5.629  20.793  0.00  0.00    +0.000 HD
ENDBRANCH  19  28
ENDBRANCH   4  19
TORSDOF 9
ENDMDL
MODEL 8
REMARK VINA RESULT:      -7.6      2.168      3.319
REMARK  Name = 
REMARK  9 active torsions:
REMARK  status: ('A' for Active; 'I' for Inactive)
REMARK    1  A    between atoms: S_2  and  C_4
REMARK    2  A    between atoms: S_2  and  N_7
REMARK    3  A    between atoms: N_7  and  C_8
REMARK    4  A    between atoms: N_7  and  C_13
REMARK    5  A    between atoms: C_8  and  C_9
REMARK    6  A    between atoms: C_16  and  C_17
REMARK    7  A    between atoms: C_17  and  O_18
REMARK    8  A    between atoms: C_17  and  C_19
REMARK    9  A    between atoms: C_17  and  C_23
REMARK                            x       y       z     vdW  Elec       q    Type
REMARK                         _______ _______ _______ _____ _____    ______ ____
ROOT
ATOM      1  C   UNL     1       4.696   5.022  17.141  0.00  0.00    +0.000 A 
ATOM      2  C   UNL     1       3.999   5.954  17.906  0.00  0.00    +0.000 A 
ATOM      3  C   UNL     1       3.052   5.537  18.841  0.00  0.00    +0.000 A 
ATOM      4  C   UNL     1       2.779   4.169  19.036  0.00  0.00    +0.000 A 
ATOM      5  C   UNL     1       3.523   3.241  18.277  0.00  0.00    +0.000 A 
ATOM      6  C   UNL     1       4.471   3.663  17.335  0.00  0.00    +0.000 A 
ENDROOT
BRANCH   1   7
ATOM      7  N   UNL     1       5.622   5.496  16.170  0.00  0.00    +0.000 N 
BRANCH   7   9
ATOM      8  O   UNL     1       7.929   6.400  15.502  0.00  0.00    +0.000 OA
ATOM      9  S   UNL     1       7.202   5.862  16.631  0.00  0.00    +0.000 S 
ATOM     10  O   UNL     1       7.691   4.713  17.363  0.00  0.00    +0.000 OA
BRANCH   9  11
ATOM     11  C   UNL     1       7.077   7.180  17.892  0.00  0.00    +0.000 C 
ATOM     12  C   UNL     1       8.369   7.386  18.645  0.00  0.00    +0.000 C 
ATOM     13  C   UNL     1       7.893   8.423  17.665  0.00  0.00    +0.000 C 
ENDBRANCH   9  11
ENDBRANCH   7   9
BRANCH   7  14
ATOM     14  C   UNL     1       5.290   5.425  14.721  0.00  0.00    +0.000 C 
BRANCH  14  15
ATOM     15  C   UNL     1       5.886   4.234  13.962  0.00  0.00    +0.000 C 
ATOM     16  F   UNL     1       6.991   4.530  13.248  0.00  0.00    +0.000 F 
ATOM     17  F   UNL     1       6.214   3.237  14.818  0.00  0.00    +0.000 F 
ATOM     18  F   UNL     1       4.972   3.725  13.100  0.00  0.00    +0.000 F 
ENDBRANCH  14  15
ENDBRANCH   7  14
ENDBRANCH   1   7
BRANCH   4  19
ATOM     19  C   UNL     1       1.684   3.702  20.023  0.00  0.00    +0.000 C 
BRANCH  19  20
ATOM     20  C   UNL     1       0.786   2.596  19.401  0.00  0.00    +0.000 C 
ATOM     21  F   UNL     1      -0.385   2.446  20.072  0.00  0.00    +0.000 F 
ATOM     22  F   UNL     1       0.461   2.730  18.106  0.00  0.00    +0.000 F 
ATOM     23  F   UNL     1       1.413   1.390  19.521  0.00  0.00    +0.000 F 
ENDBRANCH  19  20
BRANCH  19  24
ATOM     24  C   UNL     1       2.277   3.218  21.377  0.00  0.00    +0.000 C 
ATOM     25  F   UNL     1       2.643   4.253  22.177  0.00  0.00    +0.000 F 
ATOM     26  F   UNL     1       1.369   2.505  22.094  0.00  0.00    +0.000 F 
ATOM     27  F   UNL     1       3.369   2.433  21.281  0.00  0.00    +0.000 F 
ENDBRANCH  19  24
BRANCH  19  28
ATOM     28  O   UNL     1       0.843   4.891  20.280  0.00  0.00    +0.000 OA
ATOM     29  H   UNL     1       1.058   5.214  21.176  0.00  0.00    +0.000 HD
ENDBRANCH  19  28
ENDBRANCH   4  19
TORSDOF 9
ENDMDL
MODEL 9
REMARK VINA RESULT:      -7.5      2.217      3.383
REMARK  Name = 
REMARK  9 active torsions:
REMARK  status: ('A' for Active; 'I' for Inactive)
REMARK    1  A    between atoms: S_2  and  C_4
REMARK    2  A    between atoms: S_2  and  N_7
REMARK    3  A    between atoms: N_7  and  C_8
REMARK    4  A    between atoms: N_7  and  C_13
REMARK    5  A    between atoms: C_8  and  C_9
REMARK    6  A    between atoms: C_16  and  C_17
REMARK    7  A    between atoms: C_17  and  O_18
REMARK    8  A    between atoms: C_17  and  C_19
REMARK    9  A    between atoms: C_17  and  C_23
REMARK                            x       y       z     vdW  Elec       q    Type
REMARK                         _______ _______ _______ _____ _____    ______ ____
ROOT
ATOM      1  C   UNL     1       4.595   5.014  16.941  0.00  0.00    +0.000 A 
ATOM      2  C   UNL     1       4.353   3.655  17.130  0.00  0.00    +0.000 A 
ATOM      3  C   UNL     1       3.424   3.227  18.078  0.00  0.00    +0.000 A 
ATOM      4  C   UNL     1       2.710   4.152  18.863  0.00  0.00    +0.000 A 
ATOM      5  C   UNL     1       2.944   5.524  18.629  0.00  0.00    +0.000 A 
ATOM      6  C   UNL     1       3.882   5.952  17.680  0.00  0.00    +0.000 A 
ENDROOT
BRANCH   1   7
ATOM      7  N   UNL     1       5.583   5.402  15.993  0.00  0.00    +0.000 N 
BRANCH   7   9
ATOM      8  O   UNL     1       7.921   6.291  15.421  0.00  0.00    +0.000 OA
ATOM      9  S   UNL     1       7.155   5.725  16.510  0.00  0.00    +0.000 S 
ATOM     10  O   UNL     1       7.605   4.543  17.212  0.00  0.00    +0.000 OA
BRANCH   9  11
ATOM     11  C   UNL     1       7.015   6.999  17.814  0.00  0.00    +0.000 C 
ATOM     12  C   UNL     1       8.274   7.126  18.637  0.00  0.00    +0.000 C 
ATOM     13  C   UNL     1       7.887   8.216  17.676  0.00  0.00    +0.000 C 
ENDBRANCH   9  11
ENDBRANCH   7   9
BRANCH   7  14
ATOM     14  C   UNL     1       5.313   5.273  14.535  0.00  0.00    +0.000 C 
BRANCH  14  15
ATOM     15  C   UNL     1       6.008   4.101  13.832  0.00  0.00    +0.000 C 
ATOM     16  F   UNL     1       7.178   4.422  13.245  0.00  0.00    +0.000 F 
ATOM     17  F   UNL     1       6.258   3.099  14.709  0.00  0.00    +0.000 F 
ATOM     18  F   UNL     1       5.200   3.588  12.872  0.00  0.00    +0.000 F 
ENDBRANCH  14  15
ENDBRANCH   7  14
ENDBRANCH   1   7
BRANCH   4  19
ATOM     19  C   UNL     1       1.727   3.684  19.961  0.00  0.00    +0.000 C 
BRANCH  19  20
ATOM     20  C   UNL     1       0.764   2.582  19.438  0.00  0.00    +0.000 C 
ATOM     21  F   UNL     1       1.357   1.361  19.386  0.00  0.00    +0.000 F 
ATOM     22  F   UNL     1      -0.388   2.411  20.105  0.00  0.00    +0.000 F 
ATOM     23  F   UNL     1       0.426   2.860  18.145  0.00  0.00    +0.000 F 
ENDBRANCH  19  20
BRANCH  19  24
ATOM     24  C   UNL     1       2.463   3.194  21.242  0.00  0.00    +0.000 C 
ATOM     25  F   UNL     1       2.672   4.200  22.130  0.00  0.00    +0.000 F 
ATOM     26  F   UNL     1       1.735   2.261  21.910  0.00  0.00    +0.000 F 
ATOM     27  F   UNL     1       3.673   2.638  21.034  0.00  0.00    +0.000 F 
ENDBRANCH  19  24
BRANCH  19  28
ATOM     28  O   UNL     1       0.922   4.874  20.313  0.00  0.00    +0.000 OA
ATOM     29  H   UNL     1       0.060   4.788  19.861  0.00  0.00    +0.000 HD
ENDBRANCH  19  28
ENDBRANCH   4  19
TORSDOF 9
ENDMDL
