MODEL 1
REMARK VINA RESULT:      -8.7      0.000      0.000
REMARK  Name = 
REMARK  5 active torsions:
REMARK  status: ('A' for Active; 'I' for Inactive)
REMARK    1  A    between atoms: C_1  and  C_2
REMARK    2  A    between atoms: C_7  and  C_8
REMARK    3  A    between atoms: C_15  and  C_16
REMARK    4  A    between atoms: C_16  and  C_17
REMARK    5  A    between atoms: C_22  and  C_23
REMARK                            x       y       z     vdW  Elec       q    Type
REMARK                         _______ _______ _______ _____ _____    ______ ____
ROOT
ATOM      1  C   UNL     1      -0.087   8.781  21.550  0.00  0.00    +0.000 C 
ATOM      2  C   UNL     1       0.856   8.629  20.398  0.00  0.00    +0.000 A 
ATOM      3  C   UNL     1       0.833   9.623  19.329  0.00  0.00    +0.000 A 
ATOM      4  C   UNL     1       1.636   9.524  18.254  0.00  0.00    +0.000 A 
ATOM      5  C   UNL     1       2.535   8.428  18.140  0.00  0.00    +0.000 A 
ATOM      6  N   UNL     1       3.373   8.104  17.183  0.00  0.00    +0.000 NA
ATOM      7  C   UNL     1       3.968   6.930  17.585  0.00  0.00    +0.000 A 
ATOM      8  C   UNL     1       3.514   6.550  18.843  0.00  0.00    +0.000 A 
ATOM      9  N   UNL     1       2.563   7.505  19.179  0.00  0.00    +0.000 N 
ATOM     10  C   UNL     1       1.727   7.603  20.295  0.00  0.00    +0.000 A 
ENDROOT
BRANCH   7  11
ATOM     11  C   UNL     1       4.949   6.265  16.736  0.00  0.00    +0.000 A 
ATOM     12  C   UNL     1       6.303   6.301  17.112  0.00  0.00    +0.000 A 
ATOM     13  C   UNL     1       7.281   5.683  16.331  0.00  0.00    +0.000 A 
ATOM     14  C   UNL     1       6.911   5.032  15.162  0.00  0.00    +0.000 A 
ATOM     15  F   UNL     1       7.844   4.431  14.414  0.00  0.00    +0.000 F 
ATOM     16  C   UNL     1       5.585   5.007  14.752  0.00  0.00    +0.000 A 
ATOM     17  C   UNL     1       4.607   5.631  15.533  0.00  0.00    +0.000 A 
ENDBRANCH   7  11
BRANCH   8  18
ATOM     18  C   UNL     1       3.870   5.406  19.745  0.00  0.00    +0.000 C 
BRANCH  18  19
ATOM     19  C   UNL     1       3.466   4.018  19.252  0.00  0.00    +0.000 A 
ATOM     20  C   UNL     1       4.166   3.401  18.193  0.00  0.00    +0.000 A 
ATOM     21  C   UNL     1       3.812   2.140  17.711  0.00  0.00    +0.000 A 
ATOM     22  C   UNL     1       2.747   1.459  18.277  0.00  0.00    +0.000 A 
ATOM     23  C   UNL     1       2.052   2.030  19.340  0.00  0.00    +0.000 A 
ATOM     24  C   UNL     1       2.398   3.302  19.851  0.00  0.00    +0.000 A 
BRANCH  24  25
ATOM     25  C   UNL     1       1.577   3.793  21.028  0.00  0.00    +0.000 C 
ATOM     26  F   UNL     1       2.278   4.437  21.998  0.00  0.00    +0.000 F 
ATOM     27  F   UNL     1       0.603   4.665  20.642  0.00  0.00    +0.000 F 
ATOM     28  F   UNL     1       0.929   2.774  21.662  0.00  0.00    +0.000 F 
ENDBRANCH  24  25
ENDBRANCH  18  19
ENDBRANCH   8  18
TORSDOF 4
ENDMDL
MODEL 2
REMARK VINA RESULT:      -8.3      1.694      2.246
REMARK  Name = 
REMARK  5 active torsions:
REMARK  status: ('A' for Active; 'I' for Inactive)
REMARK    1  A    between atoms: C_1  and  C_2
REMARK    2  A    between atoms: C_7  and  C_8
REMARK    3  A    between atoms: C_15  and  C_16
REMARK    4  A    between atoms: C_16  and  C_17
REMARK    5  A    between atoms: C_22  and  C_23
REMARK                            x       y       z     vdW  Elec       q    Type
REMARK                         _______ _______ _______ _____ _____    ______ ____
ROOT
ATOM      1  C   UNL     1      -0.431   8.872  22.104  0.00  0.00    +0.000 C 
ATOM      2  C   UNL     1       0.524   8.676  20.968  0.00  0.00    +0.000 A 
ATOM      3  C   UNL     1       0.653   9.729  19.964  0.00  0.00    +0.000 A 
ATOM      4  C   UNL     1       1.473   9.599  18.905  0.00  0.00    +0.000 A 
ATOM      5  C   UNL     1       2.238   8.412  18.743  0.00  0.00    +0.000 A 
ATOM      6  N   UNL     1       3.062   8.047  17.787  0.00  0.00    +0.000 NA
ATOM      7  C   UNL     1       3.499   6.788  18.128  0.00  0.00    +0.000 A 
ATOM      8  C   UNL     1       2.963   6.390  19.347  0.00  0.00    +0.000 A 
ATOM      9  N   UNL     1       2.122   7.431  19.721  0.00  0.00    +0.000 N 
ATOM     10  C   UNL     1       1.269   7.561  20.821  0.00  0.00    +0.000 A 
ENDROOT
BRANCH   7  11
ATOM     11  C   UNL     1       4.420   6.062  17.262  0.00  0.00    +0.000 A 
ATOM     12  C   UNL     1       4.034   4.804  16.769  0.00  0.00    +0.000 A 
ATOM     13  C   UNL     1       4.882   4.068  15.938  0.00  0.00    +0.000 A 
ATOM     14  C   UNL     1       6.127   4.584  15.604  0.00  0.00    +0.000 A 
ATOM     15  F   UNL     1       6.940   3.885  14.802  0.00  0.00    +0.000 F 
ATOM     16  C   UNL     1       6.545   5.811  16.101  0.00  0.00    +0.000 A 
ATOM     17  C   UNL     1       5.697   6.543  16.937  0.00  0.00    +0.000 A 
ENDBRANCH   7  11
BRANCH   8  18
ATOM     18  C   UNL     1       3.151   5.158  20.182  0.00  0.00    +0.000 C 
BRANCH  18  19
ATOM     19  C   UNL     1       2.368   3.925  19.737  0.00  0.00    +0.000 A 
ATOM     20  C   UNL     1       0.999   4.025  19.408  0.00  0.00    +0.000 A 
ATOM     21  C   UNL     1       0.254   2.914  19.011  0.00  0.00    +0.000 A 
ATOM     22  C   UNL     1       0.857   1.670  18.931  0.00  0.00    +0.000 A 
ATOM     23  C   UNL     1       2.212   1.543  19.227  0.00  0.00    +0.000 A 
ATOM     24  C   UNL     1       2.990   2.655  19.622  0.00  0.00    +0.000 A 
BRANCH  24  25
ATOM     25  C   UNL     1       4.458   2.382  19.886  0.00  0.00    +0.000 C 
ATOM     26  F   UNL     1       4.920   1.190  19.425  0.00  0.00    +0.000 F 
ATOM     27  F   UNL     1       5.263   3.328  19.323  0.00  0.00    +0.000 F 
ATOM     28  F   UNL     1       4.751   2.396  21.218  0.00  0.00    +0.000 F 
ENDBRANCH  24  25
ENDBRANCH  18  19
ENDBRANCH   8  18
TORSDOF 4
ENDMDL
MODEL 3
REMARK VINA RESULT:      -8.3      1.314      1.608
REMARK  Name = 
REMARK  5 active torsions:
REMARK  status: ('A' for Active; 'I' for Inactive)
REMARK    1  A    between atoms: C_1  and  C_2
REMARK    2  A    between atoms: C_7  and  C_8
REMARK    3  A    between atoms: C_15  and  C_16
REMARK    4  A    between atoms: C_16  and  C_17
REMARK    5  A    between atoms: C_22  and  C_23
REMARK                            x       y       z     vdW  Elec       q    Type
REMARK                         _______ _______ _______ _____ _____    ______ ____
ROOT
ATOM      1  C   UNL     1      -0.436   8.924  22.260  0.00  0.00    +0.000 C 
ATOM      2  C   UNL     1       0.504   8.638  21.131  0.00  0.00    +0.000 A 
ATOM      3  C   UNL     1       0.636   9.617  20.056  0.00  0.00    +0.000 A 
ATOM      4  C   UNL     1       1.442   9.404  19.000  0.00  0.00    +0.000 A 
ATOM      5  C   UNL     1       2.191   8.198  18.913  0.00  0.00    +0.000 A 
ATOM      6  N   UNL     1       3.000   7.758  17.977  0.00  0.00    +0.000 NA
ATOM      7  C   UNL     1       3.425   6.519  18.400  0.00  0.00    +0.000 A 
ATOM      8  C   UNL     1       2.897   6.213  19.649  0.00  0.00    +0.000 A 
ATOM      9  N   UNL     1       2.073   7.289  19.958  0.00  0.00    +0.000 N 
ATOM     10  C   UNL     1       1.233   7.506  21.054  0.00  0.00    +0.000 A 
ENDROOT
BRANCH   7  11
ATOM     11  C   UNL     1       4.328   5.724  17.577  0.00  0.00    +0.000 A 
ATOM     12  C   UNL     1       5.709   5.977  17.651  0.00  0.00    +0.000 A 
ATOM     13  C   UNL     1       6.614   5.244  16.880  0.00  0.00    +0.000 A 
ATOM     14  C   UNL     1       6.142   4.260  16.023  0.00  0.00    +0.000 A 
ATOM     15  F   UNL     1       7.007   3.549  15.289  0.00  0.00    +0.000 F 
ATOM     16  C   UNL     1       4.781   4.009  15.910  0.00  0.00    +0.000 A 
ATOM     17  C   UNL     1       3.875   4.747  16.678  0.00  0.00    +0.000 A 
ENDBRANCH   7  11
BRANCH   8  18
ATOM     18  C   UNL     1       3.079   5.040  20.565  0.00  0.00    +0.000 C 
BRANCH  18  19
ATOM     19  C   UNL     1       3.322   3.695  19.885  0.00  0.00    +0.000 A 
ATOM     20  C   UNL     1       4.594   3.084  19.937  0.00  0.00    +0.000 A 
ATOM     21  C   UNL     1       4.850   1.862  19.314  0.00  0.00    +0.000 A 
ATOM     22  C   UNL     1       3.841   1.215  18.621  0.00  0.00    +0.000 A 
ATOM     23  C   UNL     1       2.570   1.780  18.571  0.00  0.00    +0.000 A 
ATOM     24  C   UNL     1       2.283   3.012  19.203  0.00  0.00    +0.000 A 
BRANCH  24  25
ATOM     25  C   UNL     1       0.851   3.498  19.095  0.00  0.00    +0.000 C 
ATOM     26  F   UNL     1      -0.069   2.542  18.799  0.00  0.00    +0.000 F 
ATOM     27  F   UNL     1       0.419   4.075  20.252  0.00  0.00    +0.000 F 
ATOM     28  F   UNL     1       0.705   4.453  18.132  0.00  0.00    +0.000 F 
ENDBRANCH  24  25
ENDBRANCH  18  19
ENDBRANCH   8  18
TORSDOF 4
ENDMDL
MODEL 4
REMARK VINA RESULT:      -8.1      1.723      2.285
REMARK  Name = 
REMARK  5 active torsions:
REMARK  status: ('A' for Active; 'I' for Inactive)
REMARK    1  A    between atoms: C_1  and  C_2
REMARK    2  A    between atoms: C_7  and  C_8
REMARK    3  A    between atoms: C_15  and  C_16
REMARK    4  A    between atoms: C_16  and  C_17
REMARK    5  A    between atoms: C_22  and  C_23
REMARK                            x       y       z     vdW  Elec       q    Type
REMARK                         _______ _______ _______ _____ _____    ______ ____
ROOT
ATOM      1  C   UNL     1      -0.124   8.777  21.527  0.00  0.00    +0.000 C 
ATOM      2  C   UNL     1       0.824   8.647  20.376  0.00  0.00    +0.000 A 
ATOM      3  C   UNL     1       0.785   9.647  19.312  0.00  0.00    +0.000 A 
ATOM      4  C   UNL     1       1.592   9.569  18.238  0.00  0.00    +0.000 A 
ATOM      5  C   UNL     1       2.510   8.490  18.119  0.00  0.00    +0.000 A 
ATOM      6  N   UNL     1       3.355   8.186  17.161  0.00  0.00    +0.000 NA
ATOM      7  C   UNL     1       3.969   7.020  17.557  0.00  0.00    +0.000 A 
ATOM      8  C   UNL     1       3.520   6.624  18.812  0.00  0.00    +0.000 A 
ATOM      9  N   UNL     1       2.552   7.561  19.153  0.00  0.00    +0.000 N 
ATOM     10  C   UNL     1       1.712   7.637  20.268  0.00  0.00    +0.000 A 
ENDROOT
BRANCH   7  11
ATOM     11  C   UNL     1       4.963   6.377  16.705  0.00  0.00    +0.000 A 
ATOM     12  C   UNL     1       6.278   6.248  17.182  0.00  0.00    +0.000 A 
ATOM     13  C   UNL     1       7.267   5.643  16.403  0.00  0.00    +0.000 A 
ATOM     14  C   UNL     1       6.946   5.173  15.137  0.00  0.00    +0.000 A 
ATOM     15  F   UNL     1       7.889   4.585  14.390  0.00  0.00    +0.000 F 
ATOM     16  C   UNL     1       5.662   5.313  14.631  0.00  0.00    +0.000 A 
ATOM     17  C   UNL     1       4.674   5.924  15.410  0.00  0.00    +0.000 A 
ENDBRANCH   7  11
BRANCH   8  18
ATOM     18  C   UNL     1       3.893   5.480  19.707  0.00  0.00    +0.000 C 
BRANCH  18  19
ATOM     19  C   UNL     1       2.859   4.364  19.829  0.00  0.00    +0.000 A 
ATOM     20  C   UNL     1       1.834   4.438  20.797  0.00  0.00    +0.000 A 
ATOM     21  C   UNL     1       0.883   3.427  20.942  0.00  0.00    +0.000 A 
ATOM     22  C   UNL     1       0.929   2.313  20.122  0.00  0.00    +0.000 A 
ATOM     23  C   UNL     1       1.913   2.221  19.141  0.00  0.00    +0.000 A 
ATOM     24  C   UNL     1       2.881   3.237  18.969  0.00  0.00    +0.000 A 
BRANCH  24  25
ATOM     25  C   UNL     1       3.878   3.023  17.845  0.00  0.00    +0.000 C 
ATOM     26  F   UNL     1       5.128   3.505  18.076  0.00  0.00    +0.000 F 
ATOM     27  F   UNL     1       4.043   1.702  17.554  0.00  0.00    +0.000 F 
ATOM     28  F   UNL     1       3.471   3.608  16.682  0.00  0.00    +0.000 F 
ENDBRANCH  24  25
ENDBRANCH  18  19
ENDBRANCH   8  18
TORSDOF 4
ENDMDL
MODEL 5
REMARK VINA RESULT:      -8.1      1.725      2.215
REMARK  Name = 
REMARK  5 active torsions:
REMARK  status: ('A' for Active; 'I' for Inactive)
REMARK    1  A    between atoms: C_1  and  C_2
REMARK    2  A    between atoms: C_7  and  C_8
REMARK    3  A    between atoms: C_15  and  C_16
REMARK    4  A    between atoms: C_16  and  C_17
REMARK    5  A    between atoms: C_22  and  C_23
REMARK                            x       y       z     vdW  Elec       q    Type
REMARK                         _______ _______ _______ _____ _____    ______ ____
ROOT
ATOM      1  C   UNL     1      -0.136   9.379  21.985  0.00  0.00    +0.000 C 
ATOM      2  C   UNL     1       0.706   9.049  20.793  0.00  0.00    +0.000 A 
ATOM      3  C   UNL     1       0.741   9.984  19.672  0.00  0.00    +0.000 A 
ATOM      4  C   UNL     1       1.456   9.729  18.561  0.00  0.00    +0.000 A 
ATOM      5  C   UNL     1       2.201   8.523  18.459  0.00  0.00    +0.000 A 
ATOM      6  N   UNL     1       2.930   8.046  17.475  0.00  0.00    +0.000 NA
ATOM      7  C   UNL     1       3.396   6.827  17.910  0.00  0.00    +0.000 A 
ATOM      8  C   UNL     1       2.978   6.571  19.211  0.00  0.00    +0.000 A 
ATOM      9  N   UNL     1       2.178   7.656  19.545  0.00  0.00    +0.000 N 
ATOM     10  C   UNL     1       1.432   7.915  20.699  0.00  0.00    +0.000 A 
ENDROOT
BRANCH   7  11
ATOM     11  C   UNL     1       4.230   6.000  17.046  0.00  0.00    +0.000 A 
ATOM     12  C   UNL     1       5.251   6.616  16.302  0.00  0.00    +0.000 A 
ATOM     13  C   UNL     1       6.074   5.869  15.458  0.00  0.00    +0.000 A 
ATOM     14  C   UNL     1       5.874   4.500  15.346  0.00  0.00    +0.000 A 
ATOM     15  F   UNL     1       6.667   3.778  14.544  0.00  0.00    +0.000 F 
ATOM     16  C   UNL     1       4.855   3.870  16.047  0.00  0.00    +0.000 A 
ATOM     17  C   UNL     1       4.028   4.621  16.887  0.00  0.00    +0.000 A 
ENDBRANCH   7  11
BRANCH   8  18
ATOM     18  C   UNL     1       3.243   5.436  20.154  0.00  0.00    +0.000 C 
BRANCH  18  19
ATOM     19  C   UNL     1       2.377   4.193  19.961  0.00  0.00    +0.000 A 
ATOM     20  C   UNL     1       0.971   4.298  19.908  0.00  0.00    +0.000 A 
ATOM     21  C   UNL     1       0.153   3.179  19.746  0.00  0.00    +0.000 A 
ATOM     22  C   UNL     1       0.720   1.921  19.632  0.00  0.00    +0.000 A 
ATOM     23  C   UNL     1       2.105   1.786  19.657  0.00  0.00    +0.000 A 
ATOM     24  C   UNL     1       2.954   2.905  19.811  0.00  0.00    +0.000 A 
BRANCH  24  25
ATOM     25  C   UNL     1       4.444   2.620  19.792  0.00  0.00    +0.000 C 
ATOM     26  F   UNL     1       4.929   1.988  20.894  0.00  0.00    +0.000 F 
ATOM     27  F   UNL     1       4.800   1.836  18.735  0.00  0.00    +0.000 F 
ATOM     28  F   UNL     1       5.183   3.759  19.671  0.00  0.00    +0.000 F 
ENDBRANCH  24  25
ENDBRANCH  18  19
ENDBRANCH   8  18
TORSDOF 4
ENDMDL
MODEL 6
REMARK VINA RESULT:      -8.0      0.858      1.315
REMARK  Name = 
REMARK  5 active torsions:
REMARK  status: ('A' for Active; 'I' for Inactive)
REMARK    1  A    between atoms: C_1  and  C_2
REMARK    2  A    between atoms: C_7  and  C_8
REMARK    3  A    between atoms: C_15  and  C_16
REMARK    4  A    between atoms: C_16  and  C_17
REMARK    5  A    between atoms: C_22  and  C_23
REMARK                            x       y       z     vdW  Elec       q    Type
REMARK                         _______ _______ _______ _____ _____    ______ ____
ROOT
ATOM      1  C   UNL     1      -0.434   8.907  22.078  0.00  0.00    +0.000 C 
ATOM      2  C   UNL     1       0.512   8.707  20.936  0.00  0.00    +0.000 A 
ATOM      3  C   UNL     1       0.536   9.691  19.857  0.00  0.00    +0.000 A 
ATOM      4  C   UNL     1       1.344   9.551  18.790  0.00  0.00    +0.000 A 
ATOM      5  C   UNL     1       2.200   8.420  18.694  0.00  0.00    +0.000 A 
ATOM      6  N   UNL     1       3.032   8.054  17.746  0.00  0.00    +0.000 NA
ATOM      7  C   UNL     1       3.577   6.861  18.164  0.00  0.00    +0.000 A 
ATOM      8  C   UNL     1       3.098   6.511  19.421  0.00  0.00    +0.000 A 
ATOM      9  N   UNL     1       2.182   7.506  19.741  0.00  0.00    +0.000 N 
ATOM     10  C   UNL     1       1.342   7.647  20.849  0.00  0.00    +0.000 A 
ENDROOT
BRANCH   7  11
ATOM     11  C   UNL     1       4.538   6.151  17.329  0.00  0.00    +0.000 A 
ATOM     12  C   UNL     1       4.066   5.163  16.448  0.00  0.00    +0.000 A 
ATOM     13  C   UNL     1       4.946   4.452  15.630  0.00  0.00    +0.000 A 
ATOM     14  C   UNL     1       6.307   4.720  15.696  0.00  0.00    +0.000 A 
ATOM     15  F   UNL     1       7.153   4.047  14.907  0.00  0.00    +0.000 F 
ATOM     16  C   UNL     1       6.803   5.670  16.578  0.00  0.00    +0.000 A 
ATOM     17  C   UNL     1       5.920   6.377  17.400  0.00  0.00    +0.000 A 
ENDBRANCH   7  11
BRANCH   8  18
ATOM     18  C   UNL     1       3.401   5.362  20.336  0.00  0.00    +0.000 C 
BRANCH  18  19
ATOM     19  C   UNL     1       3.446   3.983  19.682  0.00  0.00    +0.000 A 
ATOM     20  C   UNL     1       4.647   3.493  19.122  0.00  0.00    +0.000 A 
ATOM     21  C   UNL     1       4.716   2.244  18.506  0.00  0.00    +0.000 A 
ATOM     22  C   UNL     1       3.586   1.446  18.432  0.00  0.00    +0.000 A 
ATOM     23  C   UNL     1       2.393   1.891  18.995  0.00  0.00    +0.000 A 
ATOM     24  C   UNL     1       2.301   3.148  19.633  0.00  0.00    +0.000 A 
BRANCH  24  25
ATOM     25  C   UNL     1       0.949   3.496  20.229  0.00  0.00    +0.000 C 
ATOM     26  F   UNL     1       0.618   4.813  20.192  0.00  0.00    +0.000 F 
ATOM     27  F   UNL     1      -0.069   2.845  19.598  0.00  0.00    +0.000 F 
ATOM     28  F   UNL     1       0.860   3.134  21.541  0.00  0.00    +0.000 F 
ENDBRANCH  24  25
ENDBRANCH  18  19
ENDBRANCH   8  18
TORSDOF 4
ENDMDL
MODEL 7
REMARK VINA RESULT:      -7.9      2.609      6.424
REMARK  Name = 
REMARK  5 active torsions:
REMARK  status: ('A' for Active; 'I' for Inactive)
REMARK    1  A    between atoms: C_1  and  C_2
REMARK    2  A    between atoms: C_7  and  C_8
REMARK    3  A    between atoms: C_15  and  C_16
REMARK    4  A    between atoms: C_16  and  C_17
REMARK    5  A    between atoms: C_22  and  C_23
REMARK                            x       y       z     vdW  Elec       q    Type
REMARK                         _______ _______ _______ _____ _____    ______ ____
ROOT
ATOM      1  C   UNL     1       3.746   1.014  18.586  0.00  0.00    +0.000 C 
ATOM      2  C   UNL     1       3.130   2.287  19.076  0.00  0.00    +0.000 A 
ATOM      3  C   UNL     1       2.114   2.223  20.123  0.00  0.00    +0.000 A 
ATOM      4  C   UNL     1       1.504   3.330  20.584  0.00  0.00    +0.000 A 
ATOM      5  C   UNL     1       1.843   4.602  20.048  0.00  0.00    +0.000 A 
ATOM      6  N   UNL     1       1.364   5.797  20.307  0.00  0.00    +0.000 NA
ATOM      7  C   UNL     1       2.039   6.661  19.475  0.00  0.00    +0.000 A 
ATOM      8  C   UNL     1       2.988   5.983  18.719  0.00  0.00    +0.000 A 
ATOM      9  N   UNL     1       2.831   4.647  19.071  0.00  0.00    +0.000 N 
ATOM     10  C   UNL     1       3.464   3.499  18.586  0.00  0.00    +0.000 A 
ENDROOT
BRANCH   7  11
ATOM     11  C   UNL     1       1.734   8.087  19.481  0.00  0.00    +0.000 A 
ATOM     12  C   UNL     1       1.221   8.663  20.655  0.00  0.00    +0.000 A 
ATOM     13  C   UNL     1       0.910  10.023  20.711  0.00  0.00    +0.000 A 
ATOM     14  C   UNL     1       1.103  10.814  19.586  0.00  0.00    +0.000 A 
ATOM     15  F   UNL     1       0.814  12.120  19.637  0.00  0.00    +0.000 F 
ATOM     16  C   UNL     1       1.581  10.265  18.404  0.00  0.00    +0.000 A 
ATOM     17  C   UNL     1       1.886   8.902  18.349  0.00  0.00    +0.000 A 
ENDBRANCH   7  11
BRANCH   8  18
ATOM     18  C   UNL     1       4.005   6.445  17.719  0.00  0.00    +0.000 C 
BRANCH  18  19
ATOM     19  C   UNL     1       5.414   5.882  17.893  0.00  0.00    +0.000 A 
ATOM     20  C   UNL     1       6.069   5.960  19.140  0.00  0.00    +0.000 A 
ATOM     21  C   UNL     1       7.361   5.467  19.326  0.00  0.00    +0.000 A 
ATOM     22  C   UNL     1       8.035   4.880  18.268  0.00  0.00    +0.000 A 
ATOM     23  C   UNL     1       7.407   4.766  17.031  0.00  0.00    +0.000 A 
ATOM     24  C   UNL     1       6.095   5.250  16.821  0.00  0.00    +0.000 A 
BRANCH  24  25
ATOM     25  C   UNL     1       5.520   5.036  15.434  0.00  0.00    +0.000 C 
ATOM     26  F   UNL     1       6.382   4.517  14.520  0.00  0.00    +0.000 F 
ATOM     27  F   UNL     1       4.451   4.190  15.450  0.00  0.00    +0.000 F 
ATOM     28  F   UNL     1       5.062   6.197  14.884  0.00  0.00    +0.000 F 
ENDBRANCH  24  25
ENDBRANCH  18  19
ENDBRANCH   8  18
TORSDOF 4
ENDMDL
MODEL 8
REMARK VINA RESULT:      -7.9      2.128      4.954
REMARK  Name = 
REMARK  5 active torsions:
REMARK  status: ('A' for Active; 'I' for Inactive)
REMARK    1  A    between atoms: C_1  and  C_2
REMARK    2  A    between atoms: C_7  and  C_8
REMARK    3  A    between atoms: C_15  and  C_16
REMARK    4  A    between atoms: C_16  and  C_17
REMARK    5  A    between atoms: C_22  and  C_23
REMARK                            x       y       z     vdW  Elec       q    Type
REMARK                         _______ _______ _______ _____ _____    ______ ____
ROOT
ATOM      1  C   UNL     1       2.352  11.902  17.999  0.00  0.00    +0.000 C 
ATOM      2  C   UNL     1       2.154  10.464  18.364  0.00  0.00    +0.000 A 
ATOM      3  C   UNL     1       1.122  10.117  19.336  0.00  0.00    +0.000 A 
ATOM      4  C   UNL     1       0.916   8.846  19.726  0.00  0.00    +0.000 A 
ATOM      5  C   UNL     1       1.718   7.802  19.189  0.00  0.00    +0.000 A 
ATOM      6  N   UNL     1       1.728   6.513  19.442  0.00  0.00    +0.000 NA
ATOM      7  C   UNL     1       2.727   5.984  18.657  0.00  0.00    +0.000 A 
ATOM      8  C   UNL     1       3.314   6.969  17.870  0.00  0.00    +0.000 A 
ATOM      9  N   UNL     1       2.678   8.146  18.245  0.00  0.00    +0.000 N 
ATOM     10  C   UNL     1       2.897   9.466  17.841  0.00  0.00    +0.000 A 
ENDROOT
BRANCH   7  11
ATOM     11  C   UNL     1       3.035   4.560  18.707  0.00  0.00    +0.000 A 
ATOM     12  C   UNL     1       2.250   3.673  17.950  0.00  0.00    +0.000 A 
ATOM     13  C   UNL     1       2.502   2.299  17.967  0.00  0.00    +0.000 A 
ATOM     14  C   UNL     1       3.537   1.804  18.749  0.00  0.00    +0.000 A 
ATOM     15  F   UNL     1       3.787   0.490  18.761  0.00  0.00    +0.000 F 
ATOM     16  C   UNL     1       4.309   2.655  19.527  0.00  0.00    +0.000 A 
ATOM     17  C   UNL     1       4.052   4.029  19.514  0.00  0.00    +0.000 A 
ENDBRANCH   7  11
BRANCH   8  18
ATOM     18  C   UNL     1       4.388   6.923  16.825  0.00  0.00    +0.000 C 
BRANCH  18  19
ATOM     19  C   UNL     1       5.665   6.183  17.214  0.00  0.00    +0.000 A 
ATOM     20  C   UNL     1       6.414   6.586  18.340  0.00  0.00    +0.000 A 
ATOM     21  C   UNL     1       7.592   5.938  18.713  0.00  0.00    +0.000 A 
ATOM     22  C   UNL     1       8.056   4.866  17.969  0.00  0.00    +0.000 A 
ATOM     23  C   UNL     1       7.328   4.429  16.866  0.00  0.00    +0.000 A 
ATOM     24  C   UNL     1       6.126   5.063  16.474  0.00  0.00    +0.000 A 
BRANCH  24  25
ATOM     25  C   UNL     1       5.419   4.467  15.272  0.00  0.00    +0.000 C 
ATOM     26  F   UNL     1       5.200   5.326  14.241  0.00  0.00    +0.000 F 
ATOM     27  F   UNL     1       6.113   3.423  14.737  0.00  0.00    +0.000 F 
ATOM     28  F   UNL     1       4.193   3.966  15.595  0.00  0.00    +0.000 F 
ENDBRANCH  24  25
ENDBRANCH  18  19
ENDBRANCH   8  18
TORSDOF 4
ENDMDL
MODEL 9
REMARK VINA RESULT:      -7.9      2.695      6.237
REMARK  Name = 
REMARK  5 active torsions:
REMARK  status: ('A' for Active; 'I' for Inactive)
REMARK    1  A    between atoms: C_1  and  C_2
REMARK    2  A    between atoms: C_7  and  C_8
REMARK    3  A    between atoms: C_15  and  C_16
REMARK    4  A    between atoms: C_16  and  C_17
REMARK    5  A    between atoms: C_22  and  C_23
REMARK                            x       y       z     vdW  Elec       q    Type
REMARK                         _______ _______ _______ _____ _____    ______ ____
ROOT
ATOM      1  C   UNL     1       4.849   1.222  20.064  0.00  0.00    +0.000 C 
ATOM      2  C   UNL     1       3.960   2.419  20.188  0.00  0.00    +0.000 A 
ATOM      3  C   UNL     1       2.666   2.273  20.850  0.00  0.00    +0.000 A 
ATOM      4  C   UNL     1       1.812   3.306  20.966  0.00  0.00    +0.000 A 
ATOM      5  C   UNL     1       2.160   4.578  20.435  0.00  0.00    +0.000 A 
ATOM      6  N   UNL     1       1.485   5.703  20.395  0.00  0.00    +0.000 NA
ATOM      7  C   UNL     1       2.294   6.603  19.738  0.00  0.00    +0.000 A 
ATOM      8  C   UNL     1       3.514   6.025  19.408  0.00  0.00    +0.000 A 
ATOM      9  N   UNL     1       3.406   4.706  19.832  0.00  0.00    +0.000 N 
ATOM     10  C   UNL     1       4.295   3.634  19.705  0.00  0.00    +0.000 A 
ENDROOT
BRANCH   7  11
ATOM     11  C   UNL     1       1.840   7.967  19.492  0.00  0.00    +0.000 A 
ATOM     12  C   UNL     1       2.047   8.528  18.220  0.00  0.00    +0.000 A 
ATOM     13  C   UNL     1       1.634   9.831  17.935  0.00  0.00    +0.000 A 
ATOM     14  C   UNL     1       1.019  10.584  18.925  0.00  0.00    +0.000 A 
ATOM     15  F   UNL     1       0.614  11.831  18.654  0.00  0.00    +0.000 F 
ATOM     16  C   UNL     1       0.829  10.065  20.198  0.00  0.00    +0.000 A 
ATOM     17  C   UNL     1       1.248   8.762  20.484  0.00  0.00    +0.000 A 
ENDBRANCH   7  11
BRANCH   8  18
ATOM     18  C   UNL     1       4.746   6.567  18.748  0.00  0.00    +0.000 C 
BRANCH  18  19
ATOM     19  C   UNL     1       5.336   5.711  17.631  0.00  0.00    +0.000 A 
ATOM     20  C   UNL     1       4.556   5.362  16.506  0.00  0.00    +0.000 A 
ATOM     21  C   UNL     1       5.063   4.569  15.476  0.00  0.00    +0.000 A 
ATOM     22  C   UNL     1       6.365   4.103  15.539  0.00  0.00    +0.000 A 
ATOM     23  C   UNL     1       7.168   4.450  16.623  0.00  0.00    +0.000 A 
ATOM     24  C   UNL     1       6.680   5.259  17.674  0.00  0.00    +0.000 A 
BRANCH  24  25
ATOM     25  C   UNL     1       7.668   5.584  18.778  0.00  0.00    +0.000 C 
ATOM     26  F   UNL     1       7.156   5.580  20.037  0.00  0.00    +0.000 F 
ATOM     27  F   UNL     1       8.710   4.706  18.805  0.00  0.00    +0.000 F 
ATOM     28  F   UNL     1       8.230   6.816  18.617  0.00  0.00    +0.000 F 
ENDBRANCH  24  25
ENDBRANCH  18  19
ENDBRANCH   8  18
TORSDOF 4
ENDMDL
