MODEL 1
REMARK VINA RESULT:      -7.8      0.000      0.000
REMARK  Name = 
REMARK  3 active torsions:
REMARK  status: ('A' for Active; 'I' for Inactive)
REMARK    1  A    between atoms: C_2  and  C_3
REMARK    2  A    between atoms: C_3  and  N_4
REMARK    3  A    between atoms: N_16  and  C_17
REMARK                            x       y       z     vdW  Elec       q    Type
REMARK                         _______ _______ _______ _____ _____    ______ ____
ROOT
ATOM      1  N   UNL     1       7.397   6.246  17.115  0.00  0.00    +0.000 NA
ATOM      2  C   UNL     1       7.203   5.478  18.377  0.00  0.00    +0.000 C 
ATOM      3  C   UNL     1       5.765   5.509  18.927  0.00  0.00    +0.000 C 
ATOM      4  N   UNL     1       4.833   5.012  17.914  0.00  0.00    +0.000 N 
ATOM      5  C   UNL     1       3.926   4.041  18.280  0.00  0.00    +0.000 A 
ATOM      6  C   UNL     1       2.694   3.904  17.631  0.00  0.00    +0.000 A 
ATOM      7  C   UNL     1       1.809   2.900  18.018  0.00  0.00    +0.000 A 
ATOM      8  C   UNL     1       2.164   2.040  19.052  0.00  0.00    +0.000 A 
ATOM      9  C   UNL     1       3.390   2.238  19.652  0.00  0.00    +0.000 A 
ATOM     10  N   UNL     1       4.254   3.209  19.291  0.00  0.00    +0.000 NA
ATOM     11  C   UNL     1       4.961   5.522  16.551  0.00  0.00    +0.000 C 
ATOM     12  C   UNL     1       6.451   5.677  16.117  0.00  0.00    +0.000 C 
ENDROOT
BRANCH   1  13
ATOM     13  C   UNL     1       7.134   7.693  17.293  0.00  0.00    +0.000 C 
BRANCH  13  15
ATOM     14  O   UNL     1       8.799   7.727  19.027  0.00  0.00    +0.000 OA
ATOM     15  C   UNL     1       8.187   8.371  18.178  0.00  0.00    +0.000 C 
ATOM     16  N   UNL     1       8.334   9.729  17.957  0.00  0.00    +0.000 N 
ATOM     17  H   UNL     1       7.625  10.184  17.394  0.00  0.00    +0.000 HD
BRANCH  16  18
ATOM     18  C   UNL     1       9.285  10.530  18.618  0.00  0.00    +0.000 A 
ATOM     19  C   UNL     1      10.285  11.149  17.872  0.00  0.00    +0.000 A 
ATOM     20  C   UNL     1      11.193  11.994  18.508  0.00  0.00    +0.000 A 
ATOM     21  C   UNL     1      11.108  12.147  19.883  0.00  0.00    +0.000 A 
ATOM     22  N   UNL     1      10.187  11.526  20.646  0.00  0.00    +0.000 NA
ATOM     23  C   UNL     1       9.287  10.745  19.996  0.00  0.00    +0.000 A 
ENDBRANCH  16  18
ENDBRANCH  13  15
ENDBRANCH   1  13
TORSDOF 3
ENDMDL
MODEL 2
REMARK VINA RESULT:      -7.7      1.249      1.305
REMARK  Name = 
REMARK  3 active torsions:
REMARK  status: ('A' for Active; 'I' for Inactive)
REMARK    1  A    between atoms: C_2  and  C_3
REMARK    2  A    between atoms: C_3  and  N_4
REMARK    3  A    between atoms: N_16  and  C_17
REMARK                            x       y       z     vdW  Elec       q    Type
REMARK                         _______ _______ _______ _____ _____    ______ ____
ROOT
ATOM      1  N   UNL     1       7.075   6.457  16.980  0.00  0.00    +0.000 NA
ATOM      2  C   UNL     1       6.950   4.972  16.981  0.00  0.00    +0.000 C 
ATOM      3  C   UNL     1       6.126   4.402  18.151  0.00  0.00    +0.000 C 
ATOM      4  N   UNL     1       4.788   4.996  18.153  0.00  0.00    +0.000 N 
ATOM      5  C   UNL     1       3.700   4.156  18.238  0.00  0.00    +0.000 A 
ATOM      6  C   UNL     1       2.487   4.578  18.795  0.00  0.00    +0.000 A 
ATOM      7  C   UNL     1       1.403   3.704  18.849  0.00  0.00    +0.000 A 
ATOM      8  C   UNL     1       1.540   2.416  18.344  0.00  0.00    +0.000 A 
ATOM      9  C   UNL     1       2.766   2.065  17.818  0.00  0.00    +0.000 A 
ATOM     10  N   UNL     1       3.826   2.899  17.764  0.00  0.00    +0.000 NA
ATOM     11  C   UNL     1       4.679   6.445  17.995  0.00  0.00    +0.000 C 
ATOM     12  C   UNL     1       5.692   7.003  16.949  0.00  0.00    +0.000 C 
ENDROOT
BRANCH   1  13
ATOM     13  C   UNL     1       7.790   6.960  18.175  0.00  0.00    +0.000 C 
BRANCH  13  15
ATOM     14  O   UNL     1       7.679   9.128  17.140  0.00  0.00    +0.000 OA
ATOM     15  C   UNL     1       8.119   8.455  18.070  0.00  0.00    +0.000 C 
ATOM     16  N   UNL     1       8.957   8.930  19.063  0.00  0.00    +0.000 N 
ATOM     17  H   UNL     1       9.428   8.240  19.637  0.00  0.00    +0.000 HD
BRANCH  16  18
ATOM     18  C   UNL     1       9.336  10.280  19.186  0.00  0.00    +0.000 A 
ATOM     19  C   UNL     1       9.772  10.966  18.055  0.00  0.00    +0.000 A 
ATOM     20  C   UNL     1      10.089  12.321  18.153  0.00  0.00    +0.000 A 
ATOM     21  C   UNL     1      10.017  12.932  19.395  0.00  0.00    +0.000 A 
ATOM     22  N   UNL     1       9.649  12.290  20.522  0.00  0.00    +0.000 NA
ATOM     23  C   UNL     1       9.301  10.984  20.390  0.00  0.00    +0.000 A 
ENDBRANCH  16  18
ENDBRANCH  13  15
ENDBRANCH   1  13
TORSDOF 3
ENDMDL
MODEL 3
REMARK VINA RESULT:      -7.6      1.365      1.622
REMARK  Name = 
REMARK  3 active torsions:
REMARK  status: ('A' for Active; 'I' for Inactive)
REMARK    1  A    between atoms: C_2  and  C_3
REMARK    2  A    between atoms: C_3  and  N_4
REMARK    3  A    between atoms: N_16  and  C_17
REMARK                            x       y       z     vdW  Elec       q    Type
REMARK                         _______ _______ _______ _____ _____    ______ ____
ROOT
ATOM      1  N   UNL     1       7.143   6.436  17.022  0.00  0.00    +0.000 NA
ATOM      2  C   UNL     1       7.016   4.951  17.044  0.00  0.00    +0.000 C 
ATOM      3  C   UNL     1       6.166   4.401  18.204  0.00  0.00    +0.000 C 
ATOM      4  N   UNL     1       4.829   4.997  18.169  0.00  0.00    +0.000 N 
ATOM      5  C   UNL     1       3.738   4.160  18.243  0.00  0.00    +0.000 A 
ATOM      6  C   UNL     1       2.514   4.591  18.767  0.00  0.00    +0.000 A 
ATOM      7  C   UNL     1       1.427   3.721  18.811  0.00  0.00    +0.000 A 
ATOM      8  C   UNL     1       1.573   2.424  18.329  0.00  0.00    +0.000 A 
ATOM      9  C   UNL     1       2.809   2.064  17.835  0.00  0.00    +0.000 A 
ATOM     10  N   UNL     1       3.872   2.895  17.791  0.00  0.00    +0.000 NA
ATOM     11  C   UNL     1       4.726   6.443  17.986  0.00  0.00    +0.000 C 
ATOM     12  C   UNL     1       5.762   6.983  16.953  0.00  0.00    +0.000 C 
ENDROOT
BRANCH   1  13
ATOM     13  C   UNL     1       7.834   6.957  18.225  0.00  0.00    +0.000 C 
BRANCH  13  15
ATOM     14  O   UNL     1       7.775   9.102  17.140  0.00  0.00    +0.000 OA
ATOM     15  C   UNL     1       8.172   8.447  18.102  0.00  0.00    +0.000 C 
ATOM     16  N   UNL     1       8.971   8.941  19.118  0.00  0.00    +0.000 N 
ATOM     17  H   UNL     1       9.414   8.262  19.727  0.00  0.00    +0.000 HD
BRANCH  16  18
ATOM     18  C   UNL     1       9.349  10.293  19.228  0.00  0.00    +0.000 A 
ATOM     19  C   UNL     1       9.375  10.888  20.488  0.00  0.00    +0.000 A 
ATOM     20  C   UNL     1       9.809  12.207  20.615  0.00  0.00    +0.000 A 
ATOM     21  C   UNL     1      10.147  12.909  19.470  0.00  0.00    +0.000 A 
ATOM     22  N   UNL     1      10.087  12.385  18.229  0.00  0.00    +0.000 NA
ATOM     23  C   UNL     1       9.706  11.086  18.137  0.00  0.00    +0.000 A 
ENDBRANCH  16  18
ENDBRANCH  13  15
ENDBRANCH   1  13
TORSDOF 3
ENDMDL
MODEL 4
REMARK VINA RESULT:      -7.3      4.930      6.937
REMARK  Name = 
REMARK  3 active torsions:
REMARK  status: ('A' for Active; 'I' for Inactive)
REMARK    1  A    between atoms: C_2  and  C_3
REMARK    2  A    between atoms: C_3  and  N_4
REMARK    3  A    between atoms: N_16  and  C_17
REMARK                            x       y       z     vdW  Elec       q    Type
REMARK                         _______ _______ _______ _____ _____    ______ ____
ROOT
ATOM      1  N   UNL     1       1.930   3.522  19.790  0.00  0.00    +0.000 NA
ATOM      2  C   UNL     1       1.621   4.578  20.795  0.00  0.00    +0.000 C 
ATOM      3  C   UNL     1       2.442   5.871  20.634  0.00  0.00    +0.000 C 
ATOM      4  N   UNL     1       2.251   6.418  19.290  0.00  0.00    +0.000 N 
ATOM      5  C   UNL     1       1.924   7.750  19.166  0.00  0.00    +0.000 A 
ATOM      6  C   UNL     1       2.259   8.486  18.024  0.00  0.00    +0.000 A 
ATOM      7  C   UNL     1       1.897   9.829  17.928  0.00  0.00    +0.000 A 
ATOM      8  C   UNL     1       1.202  10.424  18.975  0.00  0.00    +0.000 A 
ATOM      9  C   UNL     1       0.913   9.641  20.073  0.00  0.00    +0.000 A 
ATOM     10  N   UNL     1       1.262   8.342  20.182  0.00  0.00    +0.000 NA
ATOM     11  C   UNL     1       2.350   5.503  18.155  0.00  0.00    +0.000 C 
ATOM     12  C   UNL     1       1.688   4.122  18.451  0.00  0.00    +0.000 C 
ENDROOT
BRANCH   1  13
ATOM     13  C   UNL     1       3.330   3.049  19.887  0.00  0.00    +0.000 C 
BRANCH  13  15
ATOM     14  O   UNL     1       3.801   2.122  17.718  0.00  0.00    +0.000 OA
ATOM     15  C   UNL     1       4.031   3.023  18.523  0.00  0.00    +0.000 C 
ATOM     16  N   UNL     1       4.936   4.050  18.322  0.00  0.00    +0.000 N 
ATOM     17  H   UNL     1       5.200   4.596  19.135  0.00  0.00    +0.000 HD
BRANCH  16  18
ATOM     18  C   UNL     1       5.643   4.246  17.120  0.00  0.00    +0.000 A 
ATOM     19  C   UNL     1       4.944   4.233  15.915  0.00  0.00    +0.000 A 
ATOM     20  C   UNL     1       5.624   4.488  14.725  0.00  0.00    +0.000 A 
ATOM     21  C   UNL     1       6.994   4.689  14.772  0.00  0.00    +0.000 A 
ATOM     22  N   UNL     1       7.713   4.659  15.912  0.00  0.00    +0.000 NA
ATOM     23  C   UNL     1       7.021   4.454  17.061  0.00  0.00    +0.000 A 
ENDBRANCH  16  18
ENDBRANCH  13  15
ENDBRANCH   1  13
TORSDOF 3
ENDMDL
MODEL 5
REMARK VINA RESULT:      -7.2      3.815      7.720
REMARK  Name = 
REMARK  3 active torsions:
REMARK  status: ('A' for Active; 'I' for Inactive)
REMARK    1  A    between atoms: C_2  and  C_3
REMARK    2  A    between atoms: C_3  and  N_4
REMARK    3  A    between atoms: N_16  and  C_17
REMARK                            x       y       z     vdW  Elec       q    Type
REMARK                         _______ _______ _______ _____ _____    ______ ____
ROOT
ATOM      1  N   UNL     1       5.750   6.468  18.063  0.00  0.00    +0.000 NA
ATOM      2  C   UNL     1       6.877   6.829  17.159  0.00  0.00    +0.000 C 
ATOM      3  C   UNL     1       7.489   5.639  16.396  0.00  0.00    +0.000 C 
ATOM      4  N   UNL     1       6.451   4.958  15.621  0.00  0.00    +0.000 N 
ATOM      5  C   UNL     1       6.694   4.696  14.290  0.00  0.00    +0.000 A 
ATOM      6  C   UNL     1       6.087   3.623  13.629  0.00  0.00    +0.000 A 
ATOM      7  C   UNL     1       6.344   3.399  12.278  0.00  0.00    +0.000 A 
ATOM      8  C   UNL     1       7.207   4.253  11.599  0.00  0.00    +0.000 A 
ATOM      9  C   UNL     1       7.776   5.285  12.315  0.00  0.00    +0.000 A 
ATOM     10  N   UNL     1       7.540   5.510  13.624  0.00  0.00    +0.000 NA
ATOM     11  C   UNL     1       5.185   4.654  16.284  0.00  0.00    +0.000 C 
ATOM     12  C   UNL     1       4.716   5.812  17.219  0.00  0.00    +0.000 C 
ENDROOT
BRANCH   1  13
ATOM     13  C   UNL     1       6.173   5.552  19.148  0.00  0.00    +0.000 C 
BRANCH  13  15
ATOM     14  O   UNL     1       5.361   3.298  19.356  0.00  0.00    +0.000 OA
ATOM     15  C   UNL     1       5.107   4.496  19.466  0.00  0.00    +0.000 C 
ATOM     16  N   UNL     1       3.877   5.013  19.831  0.00  0.00    +0.000 N 
ATOM     17  H   UNL     1       3.727   6.003  19.670  0.00  0.00    +0.000 HD
BRANCH  16  18
ATOM     18  C   UNL     1       2.780   4.220  20.220  0.00  0.00    +0.000 A 
ATOM     19  C   UNL     1       1.810   3.897  19.273  0.00  0.00    +0.000 A 
ATOM     20  C   UNL     1       0.753   3.060  19.631  0.00  0.00    +0.000 A 
ATOM     21  C   UNL     1       0.667   2.623  20.943  0.00  0.00    +0.000 A 
ATOM     22  N   UNL     1       1.557   2.955  21.900  0.00  0.00    +0.000 NA
ATOM     23  C   UNL     1       2.601   3.732  21.514  0.00  0.00    +0.000 A 
ENDBRANCH  16  18
ENDBRANCH  13  15
ENDBRANCH   1  13
TORSDOF 3
ENDMDL
MODEL 6
REMARK VINA RESULT:      -7.2      0.930      1.139
REMARK  Name = 
REMARK  3 active torsions:
REMARK  status: ('A' for Active; 'I' for Inactive)
REMARK    1  A    between atoms: C_2  and  C_3
REMARK    2  A    between atoms: C_3  and  N_4
REMARK    3  A    between atoms: N_16  and  C_17
REMARK                            x       y       z     vdW  Elec       q    Type
REMARK                         _______ _______ _______ _____ _____    ______ ____
ROOT
ATOM      1  N   UNL     1       7.713   6.475  17.315  0.00  0.00    +0.000 NA
ATOM      2  C   UNL     1       7.463   5.731  18.581  0.00  0.00    +0.000 C 
ATOM      3  C   UNL     1       5.976   5.590  18.955  0.00  0.00    +0.000 C 
ATOM      4  N   UNL     1       5.247   4.940  17.864  0.00  0.00    +0.000 N 
ATOM      5  C   UNL     1       4.433   3.872  18.168  0.00  0.00    +0.000 A 
ATOM      6  C   UNL     1       3.318   3.551  17.385  0.00  0.00    +0.000 A 
ATOM      7  C   UNL     1       2.526   2.452  17.714  0.00  0.00    +0.000 A 
ATOM      8  C   UNL     1       2.858   1.682  18.824  0.00  0.00    +0.000 A 
ATOM      9  C   UNL     1       3.965   2.060  19.554  0.00  0.00    +0.000 A 
ATOM     10  N   UNL     1       4.736   3.125  19.251  0.00  0.00    +0.000 NA
ATOM     11  C   UNL     1       5.478   5.417  16.503  0.00  0.00    +0.000 C 
ATOM     12  C   UNL     1       6.978   5.753  16.241  0.00  0.00    +0.000 C 
ENDROOT
BRANCH   1  13
ATOM     13  C   UNL     1       7.248   7.879  17.388  0.00  0.00    +0.000 C 
BRANCH  13  15
ATOM     14  O   UNL     1       8.924   8.322  19.056  0.00  0.00    +0.000 OA
ATOM     15  C   UNL     1       8.231   8.778  18.148  0.00  0.00    +0.000 C 
ATOM     16  N   UNL     1       8.223  10.103  17.750  0.00  0.00    +0.000 N 
ATOM     17  H   UNL     1       7.459  10.401  17.154  0.00  0.00    +0.000 HD
BRANCH  16  18
ATOM     18  C   UNL     1       9.087  11.083  18.276  0.00  0.00    +0.000 A 
ATOM     19  C   UNL     1       9.809  10.797  19.433  0.00  0.00    +0.000 A 
ATOM     20  C   UNL     1      10.715  11.736  19.927  0.00  0.00    +0.000 A 
ATOM     21  C   UNL     1      10.825  12.956  19.280  0.00  0.00    +0.000 A 
ATOM     22  N   UNL     1      10.108  13.290  18.189  0.00  0.00    +0.000 NA
ATOM     23  C   UNL     1       9.268  12.341  17.702  0.00  0.00    +0.000 A 
ENDBRANCH  16  18
ENDBRANCH  13  15
ENDBRANCH   1  13
TORSDOF 3
ENDMDL
MODEL 7
REMARK VINA RESULT:      -7.1      1.254      1.443
REMARK  Name = 
REMARK  3 active torsions:
REMARK  status: ('A' for Active; 'I' for Inactive)
REMARK    1  A    between atoms: C_2  and  C_3
REMARK    2  A    between atoms: C_3  and  N_4
REMARK    3  A    between atoms: N_16  and  C_17
REMARK                            x       y       z     vdW  Elec       q    Type
REMARK                         _______ _______ _______ _____ _____    ______ ____
ROOT
ATOM      1  N   UNL     1       7.036   5.348  17.568  0.00  0.00    +0.000 NA
ATOM      2  C   UNL     1       6.488   5.221  18.948  0.00  0.00    +0.000 C 
ATOM      3  C   UNL     1       4.992   5.564  19.074  0.00  0.00    +0.000 C 
ATOM      4  N   UNL     1       4.210   4.723  18.168  0.00  0.00    +0.000 N 
ATOM      5  C   UNL     1       3.115   4.058  18.674  0.00  0.00    +0.000 A 
ATOM      6  C   UNL     1       2.024   3.715  17.867  0.00  0.00    +0.000 A 
ATOM      7  C   UNL     1       0.941   3.028  18.411  0.00  0.00    +0.000 A 
ATOM      8  C   UNL     1       0.957   2.690  19.760  0.00  0.00    +0.000 A 
ATOM      9  C   UNL     1       2.060   3.066  20.498  0.00  0.00    +0.000 A 
ATOM     10  N   UNL     1       3.113   3.736  19.985  0.00  0.00    +0.000 NA
ATOM     11  C   UNL     1       4.675   4.578  16.790  0.00  0.00    +0.000 C 
ATOM     12  C   UNL     1       6.227   4.451  16.701  0.00  0.00    +0.000 C 
ENDROOT
BRANCH   1  13
ATOM     13  C   UNL     1       6.963   6.739  17.063  0.00  0.00    +0.000 C 
BRANCH  13  15
ATOM     14  O   UNL     1       8.549   7.281  18.787  0.00  0.00    +0.000 OA
ATOM     15  C   UNL     1       7.835   7.701  17.878  0.00  0.00    +0.000 C 
ATOM     16  N   UNL     1       7.705   9.033  17.527  0.00  0.00    +0.000 N 
ATOM     17  H   UNL     1       6.929   9.276  16.922  0.00  0.00    +0.000 HD
BRANCH  16  18
ATOM     18  C   UNL     1       8.456  10.072  18.109  0.00  0.00    +0.000 A 
ATOM     19  C   UNL     1       9.219   9.802  19.243  0.00  0.00    +0.000 A 
ATOM     20  C   UNL     1      10.016  10.807  19.790  0.00  0.00    +0.000 A 
ATOM     21  C   UNL     1       9.977  12.069  19.219  0.00  0.00    +0.000 A 
ATOM     22  N   UNL     1       9.214  12.383  18.154  0.00  0.00    +0.000 NA
ATOM     23  C   UNL     1       8.484  11.375  17.613  0.00  0.00    +0.000 A 
ENDBRANCH  16  18
ENDBRANCH  13  15
ENDBRANCH   1  13
TORSDOF 3
ENDMDL
MODEL 8
REMARK VINA RESULT:      -7.1      1.190      1.307
REMARK  Name = 
REMARK  3 active torsions:
REMARK  status: ('A' for Active; 'I' for Inactive)
REMARK    1  A    between atoms: C_2  and  C_3
REMARK    2  A    between atoms: C_3  and  N_4
REMARK    3  A    between atoms: N_16  and  C_17
REMARK                            x       y       z     vdW  Elec       q    Type
REMARK                         _______ _______ _______ _____ _____    ______ ____
ROOT
ATOM      1  N   UNL     1       7.816   6.725  17.542  0.00  0.00    +0.000 NA
ATOM      2  C   UNL     1       7.534   5.968  18.794  0.00  0.00    +0.000 C 
ATOM      3  C   UNL     1       6.037   5.756  19.087  0.00  0.00    +0.000 C 
ATOM      4  N   UNL     1       5.400   5.074  17.960  0.00  0.00    +0.000 N 
ATOM      5  C   UNL     1       4.622   3.967  18.220  0.00  0.00    +0.000 A 
ATOM      6  C   UNL     1       3.568   3.595  17.379  0.00  0.00    +0.000 A 
ATOM      7  C   UNL     1       2.813   2.459  17.666  0.00  0.00    +0.000 A 
ATOM      8  C   UNL     1       3.121   1.704  18.793  0.00  0.00    +0.000 A 
ATOM      9  C   UNL     1       4.168   2.133  19.581  0.00  0.00    +0.000 A 
ATOM     10  N   UNL     1       4.903   3.234  19.318  0.00  0.00    +0.000 NA
ATOM     11  C   UNL     1       5.681   5.564  16.612  0.00  0.00    +0.000 C 
ATOM     12  C   UNL     1       7.175   5.971  16.431  0.00  0.00    +0.000 C 
ENDROOT
BRANCH   1  13
ATOM     13  C   UNL     1       7.282   8.106  17.589  0.00  0.00    +0.000 C 
BRANCH  13  15
ATOM     14  O   UNL     1       9.011   8.792  19.113  0.00  0.00    +0.000 OA
ATOM     15  C   UNL     1       8.296   9.103  18.163  0.00  0.00    +0.000 C 
ATOM     16  N   UNL     1       8.289  10.345  17.551  0.00  0.00    +0.000 N 
ATOM     17  H   UNL     1       7.511  10.551  16.936  0.00  0.00    +0.000 HD
BRANCH  16  18
ATOM     18  C   UNL     1       9.179  11.384  17.884  0.00  0.00    +0.000 A 
ATOM     19  C   UNL     1       8.687  12.683  18.003  0.00  0.00    +0.000 A 
ATOM     20  C   UNL     1       9.547  13.709  18.393  0.00  0.00    +0.000 A 
ATOM     21  C   UNL     1      10.885  13.414  18.594  0.00  0.00    +0.000 A 
ATOM     22  N   UNL     1      11.409  12.181  18.440  0.00  0.00    +0.000 NA
ATOM     23  C   UNL     1      10.542  11.192  18.105  0.00  0.00    +0.000 A 
ENDBRANCH  16  18
ENDBRANCH  13  15
ENDBRANCH   1  13
TORSDOF 3
ENDMDL
MODEL 9
REMARK VINA RESULT:      -7.1      3.776      7.824
REMARK  Name = 
REMARK  3 active torsions:
REMARK  status: ('A' for Active; 'I' for Inactive)
REMARK    1  A    between atoms: C_2  and  C_3
REMARK    2  A    between atoms: C_3  and  N_4
REMARK    3  A    between atoms: N_16  and  C_17
REMARK                            x       y       z     vdW  Elec       q    Type
REMARK                         _______ _______ _______ _____ _____    ______ ____
ROOT
ATOM      1  N   UNL     1       5.826   6.443  18.178  0.00  0.00    +0.000 NA
ATOM      2  C   UNL     1       6.996   6.751  17.309  0.00  0.00    +0.000 C 
ATOM      3  C   UNL     1       7.542   5.545  16.523  0.00  0.00    +0.000 C 
ATOM      4  N   UNL     1       6.479   4.959  15.706  0.00  0.00    +0.000 N 
ATOM      5  C   UNL     1       6.734   4.720  14.373  0.00  0.00    +0.000 A 
ATOM      6  C   UNL     1       6.070   3.710  13.667  0.00  0.00    +0.000 A 
ATOM      7  C   UNL     1       6.343   3.509  12.316  0.00  0.00    +0.000 A 
ATOM      8  C   UNL     1       7.278   4.320  11.681  0.00  0.00    +0.000 A 
ATOM      9  C   UNL     1       7.899   5.290  12.440  0.00  0.00    +0.000 A 
ATOM     10  N   UNL     1       7.649   5.492  13.750  0.00  0.00    +0.000 NA
ATOM     11  C   UNL     1       5.180   4.725  16.333  0.00  0.00    +0.000 C 
ATOM     12  C   UNL     1       4.770   5.884  17.292  0.00  0.00    +0.000 C 
ENDROOT
BRANCH   1  13
ATOM     13  C   UNL     1       6.160   5.469  19.242  0.00  0.00    +0.000 C 
BRANCH  13  15
ATOM     14  O   UNL     1       5.351   3.206  19.332  0.00  0.00    +0.000 OA
ATOM     15  C   UNL     1       5.073   4.401  19.416  0.00  0.00    +0.000 C 
ATOM     16  N   UNL     1       3.801   4.904  19.624  0.00  0.00    +0.000 N 
ATOM     17  H   UNL     1       3.663   5.893  19.452  0.00  0.00    +0.000 HD
BRANCH  16  18
ATOM     18  C   UNL     1       2.672   4.098  19.865  0.00  0.00    +0.000 A 
ATOM     19  C   UNL     1       2.467   3.587  21.145  0.00  0.00    +0.000 A 
ATOM     20  C   UNL     1       1.319   2.841  21.410  0.00  0.00    +0.000 A 
ATOM     21  C   UNL     1       0.442   2.579  20.370  0.00  0.00    +0.000 A 
ATOM     22  N   UNL     1       0.631   3.013  19.108  0.00  0.00    +0.000 NA
ATOM     23  C   UNL     1       1.732   3.775  18.887  0.00  0.00    +0.000 A 
ENDBRANCH  16  18
ENDBRANCH  13  15
ENDBRANCH   1  13
TORSDOF 3
ENDMDL
