MODEL 1
REMARK VINA RESULT:      -7.8      0.000      0.000
REMARK  Name = 
REMARK  5 active torsions:
REMARK  status: ('A' for Active; 'I' for Inactive)
REMARK    1  A    between atoms: C_5  and  C_6
REMARK    2  A    between atoms: C_6  and  N_7
REMARK    3  A    between atoms: C_11  and  C_12
REMARK    4  A    between atoms: C_12  and  O_13
REMARK    5  A    between atoms: O_13  and  C_14
REMARK                            x       y       z     vdW  Elec       q    Type
REMARK                         _______ _______ _______ _____ _____    ______ ____
ROOT
ATOM      1  N   UNL     1       3.481   3.248  18.038  0.00  0.00    +0.000 NA
ATOM      2  C   UNL     1       2.529   2.141  17.953  0.00  0.00    +0.000 C 
ATOM      3  C   UNL     1       1.227   2.546  18.676  0.00  0.00    +0.000 C 
ATOM      4  O   UNL     1       1.441   3.086  19.992  0.00  0.00    +0.000 OA
ATOM      5  C   UNL     1       2.470   4.102  20.035  0.00  0.00    +0.000 C 
ATOM      6  C   UNL     1       3.780   3.537  19.440  0.00  0.00    +0.000 C 
ENDROOT
BRANCH   1   7
ATOM      7  C   UNL     1       4.570   3.295  17.091  0.00  0.00    +0.000 C 
BRANCH   7  12
ATOM      8 CL   UNL     1       7.828   8.359  17.607  0.00  0.00    +0.000 Cl
ATOM      9  C   UNL     1       6.885   6.921  17.484  0.00  0.00    +0.000 A 
ATOM     10  C   UNL     1       5.628   6.972  16.890  0.00  0.00    +0.000 A 
ATOM     11  C   UNL     1       4.871   5.802  16.784  0.00  0.00    +0.000 A 
ATOM     12  C   UNL     1       5.363   4.579  17.279  0.00  0.00    +0.000 A 
ATOM     13  C   UNL     1       6.633   4.552  17.870  0.00  0.00    +0.000 A 
ATOM     14  C   UNL     1       7.393   5.719  17.972  0.00  0.00    +0.000 A 
ENDBRANCH   7  12
ENDBRANCH   1   7
BRANCH   5  15
ATOM     15  C   UNL     1       2.110   5.400  19.275  0.00  0.00    +0.000 C 
BRANCH  15  16
ATOM     16  O   UNL     1       2.888   6.522  19.699  0.00  0.00    +0.000 OA
BRANCH  16  17
ATOM     17  C   UNL     1       2.217   7.709  19.439  0.00  0.00    +0.000 A 
ATOM     18  C   UNL     1       2.339   8.222  18.159  0.00  0.00    +0.000 A 
ATOM     19  C   UNL     1       1.671   9.407  17.859  0.00  0.00    +0.000 A 
ATOM     20  C   UNL     1       0.912  10.033  18.840  0.00  0.00    +0.000 A 
ATOM     21  C   UNL     1       0.857   9.438  20.087  0.00  0.00    +0.000 A 
ATOM     22 CL   UNL     1      -0.050  10.138  21.364  0.00  0.00    +0.000 Cl
ATOM     23  N   UNL     1       1.482   8.292  20.412  0.00  0.00    +0.000 NA
ENDBRANCH  16  17
ENDBRANCH  15  16
ENDBRANCH   5  15
TORSDOF 5
ENDMDL
MODEL 2
REMARK VINA RESULT:      -7.7      0.537      1.142
REMARK  Name = 
REMARK  5 active torsions:
REMARK  status: ('A' for Active; 'I' for Inactive)
REMARK    1  A    between atoms: C_5  and  C_6
REMARK    2  A    between atoms: C_6  and  N_7
REMARK    3  A    between atoms: C_11  and  C_12
REMARK    4  A    between atoms: C_12  and  O_13
REMARK    5  A    between atoms: O_13  and  C_14
REMARK                            x       y       z     vdW  Elec       q    Type
REMARK                         _______ _______ _______ _____ _____    ______ ____
ROOT
ATOM      1  N   UNL     1       3.566   3.432  18.082  0.00  0.00    +0.000 NA
ATOM      2  C   UNL     1       2.386   2.593  17.875  0.00  0.00    +0.000 C 
ATOM      3  C   UNL     1       1.206   3.188  18.673  0.00  0.00    +0.000 C 
ATOM      4  O   UNL     1       1.527   3.487  20.042  0.00  0.00    +0.000 OA
ATOM      5  C   UNL     1       2.762   4.225  20.194  0.00  0.00    +0.000 C 
ATOM      6  C   UNL     1       3.912   3.458  19.503  0.00  0.00    +0.000 C 
ENDROOT
BRANCH   1   7
ATOM      7  C   UNL     1       4.644   3.352  17.125  0.00  0.00    +0.000 C 
BRANCH   7  12
ATOM      8 CL   UNL     1       7.909   8.414  17.623  0.00  0.00    +0.000 Cl
ATOM      9  C   UNL     1       6.991   6.964  17.457  0.00  0.00    +0.000 A 
ATOM     10  C   UNL     1       7.533   5.754  17.876  0.00  0.00    +0.000 A 
ATOM     11  C   UNL     1       6.781   4.583  17.747  0.00  0.00    +0.000 A 
ATOM     12  C   UNL     1       5.488   4.615  17.191  0.00  0.00    +0.000 A 
ATOM     13  C   UNL     1       4.961   5.847  16.779  0.00  0.00    +0.000 A 
ATOM     14  C   UNL     1       5.709   7.018  16.912  0.00  0.00    +0.000 A 
ENDBRANCH   7  12
ENDBRANCH   1   7
BRANCH   5  15
ATOM     15  C   UNL     1       2.717   5.659  19.617  0.00  0.00    +0.000 C 
BRANCH  15  16
ATOM     16  O   UNL     1       2.008   6.571  20.459  0.00  0.00    +0.000 OA
BRANCH  16  17
ATOM     17  C   UNL     1       1.785   7.773  19.802  0.00  0.00    +0.000 A 
ATOM     18  C   UNL     1       2.300   7.884  18.522  0.00  0.00    +0.000 A 
ATOM     19  C   UNL     1       2.087   9.073  17.827  0.00  0.00    +0.000 A 
ATOM     20  C   UNL     1       1.375  10.101  18.431  0.00  0.00    +0.000 A 
ATOM     21  C   UNL     1       0.903   9.888  19.714  0.00  0.00    +0.000 A 
ATOM     22 CL   UNL     1       0.016  11.100  20.545  0.00  0.00    +0.000 Cl
ATOM     23  N   UNL     1       1.083   8.753  20.413  0.00  0.00    +0.000 NA
ENDBRANCH  16  17
ENDBRANCH  15  16
ENDBRANCH   5  15
TORSDOF 5
ENDMDL
MODEL 3
REMARK VINA RESULT:      -7.3      2.274      4.354
REMARK  Name = 
REMARK  5 active torsions:
REMARK  status: ('A' for Active; 'I' for Inactive)
REMARK    1  A    between atoms: C_5  and  C_6
REMARK    2  A    between atoms: C_6  and  N_7
REMARK    3  A    between atoms: C_11  and  C_12
REMARK    4  A    between atoms: C_12  and  O_13
REMARK    5  A    between atoms: O_13  and  C_14
REMARK                            x       y       z     vdW  Elec       q    Type
REMARK                         _______ _______ _______ _____ _____    ______ ____
ROOT
ATOM      1  N   UNL     1       5.498   4.561  16.747  0.00  0.00    +0.000 NA
ATOM      2  C   UNL     1       6.959   4.607  16.762  0.00  0.00    +0.000 C 
ATOM      3  C   UNL     1       7.409   5.943  17.392  0.00  0.00    +0.000 C 
ATOM      4  O   UNL     1       6.754   7.095  16.833  0.00  0.00    +0.000 OA
ATOM      5  C   UNL     1       5.317   6.950  16.741  0.00  0.00    +0.000 C 
ATOM      6  C   UNL     1       4.976   5.669  15.946  0.00  0.00    +0.000 C 
ENDROOT
BRANCH   1   7
ATOM      7  C   UNL     1       4.850   3.276  16.625  0.00  0.00    +0.000 C 
BRANCH   7  12
ATOM      8 CL   UNL     1       1.038   2.682  21.278  0.00  0.00    +0.000 Cl
ATOM      9  C   UNL     1       2.127   2.823  19.949  0.00  0.00    +0.000 A 
ATOM     10  C   UNL     1       1.637   2.762  18.648  0.00  0.00    +0.000 A 
ATOM     11  C   UNL     1       2.523   2.886  17.574  0.00  0.00    +0.000 A 
ATOM     12  C   UNL     1       3.902   3.063  17.795  0.00  0.00    +0.000 A 
ATOM     13  C   UNL     1       4.372   3.126  19.114  0.00  0.00    +0.000 A 
ATOM     14  C   UNL     1       3.488   3.008  20.188  0.00  0.00    +0.000 A 
ENDBRANCH   7  12
ENDBRANCH   1   7
BRANCH   5  15
ATOM     15  C   UNL     1       4.600   6.880  18.110  0.00  0.00    +0.000 C 
BRANCH  15  16
ATOM     16  O   UNL     1       3.204   6.602  17.988  0.00  0.00    +0.000 OA
BRANCH  16  17
ATOM     17  C   UNL     1       2.450   7.646  18.506  0.00  0.00    +0.000 A 
ATOM     18  C   UNL     1       2.097   8.653  17.624  0.00  0.00    +0.000 A 
ATOM     19  C   UNL     1       1.331   9.713  18.106  0.00  0.00    +0.000 A 
ATOM     20  C   UNL     1       0.949   9.728  19.441  0.00  0.00    +0.000 A 
ATOM     21  C   UNL     1       1.354   8.673  20.239  0.00  0.00    +0.000 A 
ATOM     22 CL   UNL     1       0.934   8.606  21.901  0.00  0.00    +0.000 Cl
ATOM     23  N   UNL     1       2.087   7.631  19.808  0.00  0.00    +0.000 NA
ENDBRANCH  16  17
ENDBRANCH  15  16
ENDBRANCH   5  15
TORSDOF 5
ENDMDL
MODEL 4
REMARK VINA RESULT:      -7.3      2.658      5.553
REMARK  Name = 
REMARK  5 active torsions:
REMARK  status: ('A' for Active; 'I' for Inactive)
REMARK    1  A    between atoms: C_5  and  C_6
REMARK    2  A    between atoms: C_6  and  N_7
REMARK    3  A    between atoms: C_11  and  C_12
REMARK    4  A    between atoms: C_12  and  O_13
REMARK    5  A    between atoms: O_13  and  C_14
REMARK                            x       y       z     vdW  Elec       q    Type
REMARK                         _______ _______ _______ _____ _____    ______ ____
ROOT
ATOM      1  N   UNL     1       5.268   6.269  16.758  0.00  0.00    +0.000 NA
ATOM      2  C   UNL     1       5.768   5.405  15.689  0.00  0.00    +0.000 C 
ATOM      3  C   UNL     1       6.433   4.165  16.322  0.00  0.00    +0.000 C 
ATOM      4  O   UNL     1       7.377   4.482  17.361  0.00  0.00    +0.000 OA
ATOM      5  C   UNL     1       6.866   5.426  18.331  0.00  0.00    +0.000 C 
ATOM      6  C   UNL     1       6.380   6.701  17.605  0.00  0.00    +0.000 C 
ENDROOT
BRANCH   1   7
ATOM      7  C   UNL     1       4.246   7.238  16.440  0.00  0.00    +0.000 C 
BRANCH   7  12
ATOM      8 CL   UNL     1       0.723   8.008  21.290  0.00  0.00    +0.000 Cl
ATOM      9  C   UNL     1       1.705   7.782  19.891  0.00  0.00    +0.000 A 
ATOM     10  C   UNL     1       1.867   8.827  18.988  0.00  0.00    +0.000 A 
ATOM     11  C   UNL     1       2.671   8.642  17.860  0.00  0.00    +0.000 A 
ATOM     12  C   UNL     1       3.310   7.409  17.626  0.00  0.00    +0.000 A 
ATOM     13  C   UNL     1       3.135   6.372  18.551  0.00  0.00    +0.000 A 
ATOM     14  C   UNL     1       2.336   6.557  19.682  0.00  0.00    +0.000 A 
ENDBRANCH   7  12
ENDBRANCH   1   7
BRANCH   5  15
ATOM     15  C   UNL     1       5.703   4.881  19.191  0.00  0.00    +0.000 C 
BRANCH  15  16
ATOM     16  O   UNL     1       5.593   3.457  19.134  0.00  0.00    +0.000 OA
BRANCH  16  17
ATOM     17  C   UNL     1       4.261   3.068  19.124  0.00  0.00    +0.000 A 
ATOM     18  C   UNL     1       3.733   2.696  17.900  0.00  0.00    +0.000 A 
ATOM     19  C   UNL     1       2.401   2.288  17.854  0.00  0.00    +0.000 A 
ATOM     20  C   UNL     1       1.650   2.269  19.022  0.00  0.00    +0.000 A 
ATOM     21  C   UNL     1       2.273   2.661  20.193  0.00  0.00    +0.000 A 
ATOM     22 CL   UNL     1       1.427   2.674  21.686  0.00  0.00    +0.000 Cl
ATOM     23  N   UNL     1       3.557   3.053  20.278  0.00  0.00    +0.000 NA
ENDBRANCH  16  17
ENDBRANCH  15  16
ENDBRANCH   5  15
TORSDOF 5
ENDMDL
MODEL 5
REMARK VINA RESULT:      -7.3      2.300      4.502
REMARK  Name = 
REMARK  5 active torsions:
REMARK  status: ('A' for Active; 'I' for Inactive)
REMARK    1  A    between atoms: C_5  and  C_6
REMARK    2  A    between atoms: C_6  and  N_7
REMARK    3  A    between atoms: C_11  and  C_12
REMARK    4  A    between atoms: C_12  and  O_13
REMARK    5  A    between atoms: O_13  and  C_14
REMARK                            x       y       z     vdW  Elec       q    Type
REMARK                         _______ _______ _______ _____ _____    ______ ____
ROOT
ATOM      1  N   UNL     1       5.545   4.556  16.627  0.00  0.00    +0.000 NA
ATOM      2  C   UNL     1       7.005   4.588  16.684  0.00  0.00    +0.000 C 
ATOM      3  C   UNL     1       7.451   5.951  17.256  0.00  0.00    +0.000 C 
ATOM      4  O   UNL     1       6.826   7.078  16.617  0.00  0.00    +0.000 OA
ATOM      5  C   UNL     1       5.392   6.942  16.489  0.00  0.00    +0.000 C 
ATOM      6  C   UNL     1       5.060   5.624  15.753  0.00  0.00    +0.000 C 
ENDROOT
BRANCH   1   7
ATOM      7  C   UNL     1       4.886   3.272  16.554  0.00  0.00    +0.000 C 
BRANCH   7  12
ATOM      8 CL   UNL     1       1.030   2.900  21.193  0.00  0.00    +0.000 Cl
ATOM      9  C   UNL     1       2.133   2.978  19.870  0.00  0.00    +0.000 A 
ATOM     10  C   UNL     1       1.665   2.794  18.573  0.00  0.00    +0.000 A 
ATOM     11  C   UNL     1       2.562   2.867  17.503  0.00  0.00    +0.000 A 
ATOM     12  C   UNL     1       3.930   3.116  17.725  0.00  0.00    +0.000 A 
ATOM     13  C   UNL     1       4.377   3.301  19.041  0.00  0.00    +0.000 A 
ATOM     14  C   UNL     1       3.482   3.234  20.110  0.00  0.00    +0.000 A 
ENDBRANCH   7  12
ENDBRANCH   1   7
BRANCH   5  15
ATOM     15  C   UNL     1       4.633   6.952  17.837  0.00  0.00    +0.000 C 
BRANCH  15  16
ATOM     16  O   UNL     1       3.240   6.670  17.688  0.00  0.00    +0.000 OA
BRANCH  16  17
ATOM     17  C   UNL     1       2.492   7.396  18.605  0.00  0.00    +0.000 A 
ATOM     18  C   UNL     1       2.258   6.793  19.829  0.00  0.00    +0.000 A 
ATOM     19  C   UNL     1       1.520   7.497  20.778  0.00  0.00    +0.000 A 
ATOM     20  C   UNL     1       1.045   8.766  20.473  0.00  0.00    +0.000 A 
ATOM     21  C   UNL     1       1.335   9.277  19.221  0.00  0.00    +0.000 A 
ATOM     22 CL   UNL     1       0.788  10.834  18.750  0.00  0.00    +0.000 Cl
ATOM     23  N   UNL     1       2.049   8.631  18.282  0.00  0.00    +0.000 NA
ENDBRANCH  16  17
ENDBRANCH  15  16
ENDBRANCH   5  15
TORSDOF 5
ENDMDL
MODEL 6
REMARK VINA RESULT:      -7.2      1.088      1.556
REMARK  Name = 
REMARK  5 active torsions:
REMARK  status: ('A' for Active; 'I' for Inactive)
REMARK    1  A    between atoms: C_5  and  C_6
REMARK    2  A    between atoms: C_6  and  N_7
REMARK    3  A    between atoms: C_11  and  C_12
REMARK    4  A    between atoms: C_12  and  O_13
REMARK    5  A    between atoms: O_13  and  C_14
REMARK                            x       y       z     vdW  Elec       q    Type
REMARK                         _______ _______ _______ _____ _____    ______ ____
ROOT
ATOM      1  N   UNL     1       4.479   3.941  17.646  0.00  0.00    +0.000 NA
ATOM      2  C   UNL     1       3.297   3.424  16.957  0.00  0.00    +0.000 C 
ATOM      3  C   UNL     1       2.035   3.904  17.703  0.00  0.00    +0.000 C 
ATOM      4  O   UNL     1       2.080   3.674  19.123  0.00  0.00    +0.000 OA
ATOM      5  C   UNL     1       3.317   4.108  19.735  0.00  0.00    +0.000 C 
ATOM      6  C   UNL     1       4.511   3.437  19.019  0.00  0.00    +0.000 C 
ENDROOT
BRANCH   1   7
ATOM      7  C   UNL     1       5.725   4.009  16.921  0.00  0.00    +0.000 C 
BRANCH   7  12
ATOM      8 CL   UNL     1       8.606   9.003  18.732  0.00  0.00    +0.000 Cl
ATOM      9  C   UNL     1       7.807   7.572  18.199  0.00  0.00    +0.000 A 
ATOM     10  C   UNL     1       8.078   6.359  18.823  0.00  0.00    +0.000 A 
ATOM     11  C   UNL     1       7.421   5.203  18.393  0.00  0.00    +0.000 A 
ATOM     12  C   UNL     1       6.496   5.253  17.333  0.00  0.00    +0.000 A 
ATOM     13  C   UNL     1       6.235   6.487  16.722  0.00  0.00    +0.000 A 
ATOM     14  C   UNL     1       6.888   7.644  17.153  0.00  0.00    +0.000 A 
ENDBRANCH   7  12
ENDBRANCH   1   7
BRANCH   5  15
ATOM     15  C   UNL     1       3.532   5.639  19.710  0.00  0.00    +0.000 C 
BRANCH  15  16
ATOM     16  O   UNL     1       2.492   6.353  20.383  0.00  0.00    +0.000 OA
BRANCH  16  17
ATOM     17  C   UNL     1       2.161   7.507  19.686  0.00  0.00    +0.000 A 
ATOM     18  C   UNL     1       2.537   7.557  18.355  0.00  0.00    +0.000 A 
ATOM     19  C   UNL     1       2.211   8.696  17.621  0.00  0.00    +0.000 A 
ATOM     20  C   UNL     1       1.529   9.736  18.239  0.00  0.00    +0.000 A 
ATOM     21  C   UNL     1       1.200   9.586  19.574  0.00  0.00    +0.000 A 
ATOM     22 CL   UNL     1       0.361  10.818  20.424  0.00  0.00    +0.000 Cl
ATOM     23  N   UNL     1       1.491   8.500  20.312  0.00  0.00    +0.000 NA
ENDBRANCH  16  17
ENDBRANCH  15  16
ENDBRANCH   5  15
TORSDOF 5
ENDMDL
MODEL 7
REMARK VINA RESULT:      -7.2      2.649      5.623
REMARK  Name = 
REMARK  5 active torsions:
REMARK  status: ('A' for Active; 'I' for Inactive)
REMARK    1  A    between atoms: C_5  and  C_6
REMARK    2  A    between atoms: C_6  and  N_7
REMARK    3  A    between atoms: C_11  and  C_12
REMARK    4  A    between atoms: C_12  and  O_13
REMARK    5  A    between atoms: O_13  and  C_14
REMARK                            x       y       z     vdW  Elec       q    Type
REMARK                         _______ _______ _______ _____ _____    ______ ____
ROOT
ATOM      1  N   UNL     1       5.142   6.281  16.708  0.00  0.00    +0.000 NA
ATOM      2  C   UNL     1       5.533   5.387  15.620  0.00  0.00    +0.000 C 
ATOM      3  C   UNL     1       6.190   4.127  16.222  0.00  0.00    +0.000 C 
ATOM      4  O   UNL     1       7.213   4.416  17.190  0.00  0.00    +0.000 OA
ATOM      5  C   UNL     1       6.808   5.390  18.181  0.00  0.00    +0.000 C 
ATOM      6  C   UNL     1       6.324   6.676  17.473  0.00  0.00    +0.000 C 
ENDROOT
BRANCH   1   7
ATOM      7  C   UNL     1       4.139   7.287  16.447  0.00  0.00    +0.000 C 
BRANCH   7  12
ATOM      8 CL   UNL     1       0.606   8.099  21.283  0.00  0.00    +0.000 Cl
ATOM      9  C   UNL     1       1.636   7.875  19.919  0.00  0.00    +0.000 A 
ATOM     10  C   UNL     1       2.324   6.676  19.766  0.00  0.00    +0.000 A 
ATOM     11  C   UNL     1       3.151   6.496  18.654  0.00  0.00    +0.000 A 
ATOM     12  C   UNL     1       3.300   7.517  17.695  0.00  0.00    +0.000 A 
ATOM     13  C   UNL     1       2.594   8.714  17.868  0.00  0.00    +0.000 A 
ATOM     14  C   UNL     1       1.763   8.894  18.976  0.00  0.00    +0.000 A 
ENDBRANCH   7  12
ENDBRANCH   1   7
BRANCH   5  15
ATOM     15  C   UNL     1       5.684   4.901  19.124  0.00  0.00    +0.000 C 
BRANCH  15  16
ATOM     16  O   UNL     1       5.572   3.477  19.157  0.00  0.00    +0.000 OA
BRANCH  16  17
ATOM     17  C   UNL     1       4.239   3.090  19.148  0.00  0.00    +0.000 A 
ATOM     18  C   UNL     1       3.703   2.742  17.920  0.00  0.00    +0.000 A 
ATOM     19  C   UNL     1       2.370   2.338  17.875  0.00  0.00    +0.000 A 
ATOM     20  C   UNL     1       1.626   2.298  19.047  0.00  0.00    +0.000 A 
ATOM     21  C   UNL     1       2.257   2.666  20.221  0.00  0.00    +0.000 A 
ATOM     22 CL   UNL     1       1.420   2.653  21.719  0.00  0.00    +0.000 Cl
ATOM     23  N   UNL     1       3.542   3.054  20.306  0.00  0.00    +0.000 NA
ENDBRANCH  16  17
ENDBRANCH  15  16
ENDBRANCH   5  15
TORSDOF 5
ENDMDL
MODEL 8
REMARK VINA RESULT:      -7.2      2.371      4.631
REMARK  Name = 
REMARK  5 active torsions:
REMARK  status: ('A' for Active; 'I' for Inactive)
REMARK    1  A    between atoms: C_5  and  C_6
REMARK    2  A    between atoms: C_6  and  N_7
REMARK    3  A    between atoms: C_11  and  C_12
REMARK    4  A    between atoms: C_12  and  O_13
REMARK    5  A    between atoms: O_13  and  C_14
REMARK                            x       y       z     vdW  Elec       q    Type
REMARK                         _______ _______ _______ _____ _____    ______ ____
ROOT
ATOM      1  N   UNL     1       5.590   4.644  16.808  0.00  0.00    +0.000 NA
ATOM      2  C   UNL     1       7.041   4.658  16.992  0.00  0.00    +0.000 C 
ATOM      3  C   UNL     1       7.466   6.056  17.488  0.00  0.00    +0.000 C 
ATOM      4  O   UNL     1       6.925   7.136  16.707  0.00  0.00    +0.000 OA
ATOM      5  C   UNL     1       5.504   7.013  16.464  0.00  0.00    +0.000 C 
ATOM      6  C   UNL     1       5.208   5.644  15.811  0.00  0.00    +0.000 C 
ENDROOT
BRANCH   1   7
ATOM      7  C   UNL     1       4.912   3.369  16.781  0.00  0.00    +0.000 C 
BRANCH   7  12
ATOM      8 CL   UNL     1       0.944   2.796  21.304  0.00  0.00    +0.000 Cl
ATOM      9  C   UNL     1       2.081   2.986  20.023  0.00  0.00    +0.000 A 
ATOM     10  C   UNL     1       3.434   2.773  20.266  0.00  0.00    +0.000 A 
ATOM     11  C   UNL     1       4.351   2.920  19.222  0.00  0.00    +0.000 A 
ATOM     12  C   UNL     1       3.921   3.288  17.932  0.00  0.00    +0.000 A 
ATOM     13  C   UNL     1       2.552   3.493  17.710  0.00  0.00    +0.000 A 
ATOM     14  C   UNL     1       1.635   3.342  18.751  0.00  0.00    +0.000 A 
ENDBRANCH   7  12
ENDBRANCH   1   7
BRANCH   5  15
ATOM     15  C   UNL     1       4.632   7.146  17.735  0.00  0.00    +0.000 C 
BRANCH  15  16
ATOM     16  O   UNL     1       3.234   7.044  17.457  0.00  0.00    +0.000 OA
BRANCH  16  17
ATOM     17  C   UNL     1       2.489   7.634  18.469  0.00  0.00    +0.000 A 
ATOM     18  C   UNL     1       2.353   6.911  19.640  0.00  0.00    +0.000 A 
ATOM     19  C   UNL     1       1.620   7.477  20.682  0.00  0.00    +0.000 A 
ATOM     20  C   UNL     1       1.055   8.734  20.517  0.00  0.00    +0.000 A 
ATOM     21  C   UNL     1       1.250   9.373  19.306  0.00  0.00    +0.000 A 
ATOM     22 CL   UNL     1       0.587  10.927  19.006  0.00  0.00    +0.000 Cl
ATOM     23  N   UNL     1       1.956   8.862  18.281  0.00  0.00    +0.000 NA
ENDBRANCH  16  17
ENDBRANCH  15  16
ENDBRANCH   5  15
TORSDOF 5
ENDMDL
MODEL 9
REMARK VINA RESULT:      -7.2      1.349      1.917
REMARK  Name = 
REMARK  5 active torsions:
REMARK  status: ('A' for Active; 'I' for Inactive)
REMARK    1  A    between atoms: C_5  and  C_6
REMARK    2  A    between atoms: C_6  and  N_7
REMARK    3  A    between atoms: C_11  and  C_12
REMARK    4  A    between atoms: C_12  and  O_13
REMARK    5  A    between atoms: O_13  and  C_14
REMARK                            x       y       z     vdW  Elec       q    Type
REMARK                         _______ _______ _______ _____ _____    ______ ____
ROOT
ATOM      1  N   UNL     1       3.481   3.209  17.888  0.00  0.00    +0.000 NA
ATOM      2  C   UNL     1       2.300   2.353  17.784  0.00  0.00    +0.000 C 
ATOM      3  C   UNL     1       1.330   2.700  18.933  0.00  0.00    +0.000 C 
ATOM      4  O   UNL     1       1.958   2.743  20.226  0.00  0.00    +0.000 OA
ATOM      5  C   UNL     1       3.181   3.515  20.245  0.00  0.00    +0.000 C 
ATOM      6  C   UNL     1       4.150   2.976  19.167  0.00  0.00    +0.000 C 
ENDROOT
BRANCH   1   7
ATOM      7  C   UNL     1       4.306   3.390  16.717  0.00  0.00    +0.000 C 
BRANCH   7  12
ATOM      8 CL   UNL     1       7.737   8.280  17.637  0.00  0.00    +0.000 Cl
ATOM      9  C   UNL     1       6.765   6.886  17.347  0.00  0.00    +0.000 A 
ATOM     10  C   UNL     1       7.358   5.628  17.314  0.00  0.00    +0.000 A 
ATOM     11  C   UNL     1       6.564   4.501  17.087  0.00  0.00    +0.000 A 
ATOM     12  C   UNL     1       5.176   4.626  16.884  0.00  0.00    +0.000 A 
ATOM     13  C   UNL     1       4.601   5.903  16.926  0.00  0.00    +0.000 A 
ATOM     14  C   UNL     1       5.392   7.030  17.157  0.00  0.00    +0.000 A 
ENDBRANCH   7  12
ENDBRANCH   1   7
BRANCH   5  15
ATOM     15  C   UNL     1       2.977   5.029  20.003  0.00  0.00    +0.000 C 
BRANCH  15  16
ATOM     16  O   UNL     1       2.036   5.610  20.908  0.00  0.00    +0.000 OA
BRANCH  16  17
ATOM     17  C   UNL     1       1.707   6.899  20.512  0.00  0.00    +0.000 A 
ATOM     18  C   UNL     1       0.959   7.648  21.404  0.00  0.00    +0.000 A 
ATOM     19  C   UNL     1       0.619   8.951  21.045  0.00  0.00    +0.000 A 
ATOM     20  C   UNL     1       1.033   9.454  19.818  0.00  0.00    +0.000 A 
ATOM     21  C   UNL     1       1.776   8.622  19.000  0.00  0.00    +0.000 A 
ATOM     22 CL   UNL     1       2.330   9.151  17.465  0.00  0.00    +0.000 Cl
ATOM     23  N   UNL     1       2.129   7.363  19.315  0.00  0.00    +0.000 NA
ENDBRANCH  16  17
ENDBRANCH  15  16
ENDBRANCH   5  15
TORSDOF 5
ENDMDL
