MODEL 1
REMARK VINA RESULT:      -7.7      0.000      0.000
REMARK  Name = 
REMARK  9 active torsions:
REMARK  status: ('A' for Active; 'I' for Inactive)
REMARK    1  A    between atoms: C_1  and  C_2
REMARK    2  A    between atoms: C_2  and  C_3
REMARK    3  A    between atoms: C_4  and  C_5
REMARK    4  A    between atoms: C_5  and  C_6
REMARK    5  A    between atoms: C_6  and  C_7
REMARK    6  A    between atoms: C_7  and  C_8
REMARK    7  A    between atoms: C_9  and  C_10
REMARK    8  A    between atoms: C_10  and  N_11
REMARK    9  A    between atoms: C_12  and  C_14
REMARK                            x       y       z     vdW  Elec       q    Type
REMARK                         _______ _______ _______ _____ _____    ______ ____
ROOT
ATOM      1  N   UNL     1       7.056   6.401  18.783  0.00  0.00    +0.000 N 
ATOM      2  C   UNL     1       7.550   7.098  17.705  0.00  0.00    +0.000 C 
ATOM      3  O   UNL     1       7.544   6.649  16.561  0.00  0.00    +0.000 OA
ATOM      4  H   UNL     1       7.023   6.842  19.689  0.00  0.00    +0.000 HD
ENDROOT
BRANCH   2   5
ATOM      5  C   UNL     1       8.095   8.402  18.006  0.00  0.00    +0.000 A 
ATOM      6  C   UNL     1       8.005   9.626  17.364  0.00  0.00    +0.000 A 
ATOM      7  C   UNL     1       8.657  10.602  18.166  0.00  0.00    +0.000 A 
ATOM      8  C   UNL     1       8.835  11.995  18.069  0.00  0.00    +0.000 A 
ATOM      9  F   UNL     1       8.338  12.668  17.021  0.00  0.00    +0.000 F 
ATOM     10  C   UNL     1       9.505  12.691  19.069  0.00  0.00    +0.000 A 
ATOM     11  C   UNL     1      10.015  11.998  20.158  0.00  0.00    +0.000 A 
ATOM     12  F   UNL     1      10.649  12.679  21.122  0.00  0.00    +0.000 F 
ATOM     13  C   UNL     1       9.881  10.613  20.287  0.00  0.00    +0.000 A 
ATOM     14  C   UNL     1       9.184   9.940  19.275  0.00  0.00    +0.000 A 
ATOM     15  N   UNL     1       8.863   8.612  19.135  0.00  0.00    +0.000 N 
ATOM     16  H   UNL     1       9.101   7.875  19.789  0.00  0.00    +0.000 HD
ENDBRANCH   2   5
BRANCH   1  17
ATOM     17  C   UNL     1       6.437   5.106  18.650  0.00  0.00    +0.000 C 
BRANCH  17  20
ATOM     18  C   UNL     1       4.080   4.943  17.677  0.00  0.00    +0.000 C 
ATOM     19  C   UNL     1       4.565   4.340  16.381  0.00  0.00    +0.000 C 
ATOM     20  C   UNL     1       4.947   5.290  18.654  0.00  0.00    +0.000 C 
BRANCH  18  21
ATOM     21  C   UNL     1       2.563   5.085  17.794  0.00  0.00    +0.000 C 
BRANCH  21  22
ATOM     22  C   UNL     1       1.780   3.786  18.038  0.00  0.00    +0.000 C 
BRANCH  22  26
ATOM     23  C   UNL     1       1.530   2.682  21.788  0.00  0.00    +0.000 C 
ATOM     24  C   UNL     1       2.097   2.907  20.411  0.00  0.00    +0.000 C 
ATOM     25  C   UNL     1       3.455   2.328  20.133  0.00  0.00    +0.000 C 
ATOM     26  C   UNL     1       1.387   3.579  19.481  0.00  0.00    +0.000 C 
ENDBRANCH  22  26
ENDBRANCH  21  22
ENDBRANCH  18  21
ENDBRANCH  17  20
ENDBRANCH   1  17
TORSDOF 6
ENDMDL
MODEL 2
REMARK VINA RESULT:      -7.7      1.153      1.560
REMARK  Name = 
REMARK  9 active torsions:
REMARK  status: ('A' for Active; 'I' for Inactive)
REMARK    1  A    between atoms: C_1  and  C_2
REMARK    2  A    between atoms: C_2  and  C_3
REMARK    3  A    between atoms: C_4  and  C_5
REMARK    4  A    between atoms: C_5  and  C_6
REMARK    5  A    between atoms: C_6  and  C_7
REMARK    6  A    between atoms: C_7  and  C_8
REMARK    7  A    between atoms: C_9  and  C_10
REMARK    8  A    between atoms: C_10  and  N_11
REMARK    9  A    between atoms: C_12  and  C_14
REMARK                            x       y       z     vdW  Elec       q    Type
REMARK                         _______ _______ _______ _____ _____    ______ ____
ROOT
ATOM      1  N   UNL     1       6.793   7.453  17.040  0.00  0.00    +0.000 N 
ATOM      2  C   UNL     1       7.751   7.533  18.024  0.00  0.00    +0.000 C 
ATOM      3  O   UNL     1       8.105   6.564  18.689  0.00  0.00    +0.000 OA
ATOM      4  H   UNL     1       6.587   8.264  16.477  0.00  0.00    +0.000 HD
ENDROOT
BRANCH   2   5
ATOM      5  C   UNL     1       8.313   8.847  18.237  0.00  0.00    +0.000 A 
ATOM      6  C   UNL     1       8.243  10.025  17.513  0.00  0.00    +0.000 A 
ATOM      7  C   UNL     1       8.905  11.046  18.249  0.00  0.00    +0.000 A 
ATOM      8  C   UNL     1       9.102  12.426  18.058  0.00  0.00    +0.000 A 
ATOM      9  F   UNL     1       8.619  13.031  16.963  0.00  0.00    +0.000 F 
ATOM     10  C   UNL     1       9.777  13.180  19.012  0.00  0.00    +0.000 A 
ATOM     11  C   UNL     1      10.271  12.557  20.148  0.00  0.00    +0.000 A 
ATOM     12  F   UNL     1      10.910  13.294  21.068  0.00  0.00    +0.000 F 
ATOM     13  C   UNL     1      10.118  11.185  20.371  0.00  0.00    +0.000 A 
ATOM     14  C   UNL     1       9.417  10.454  19.404  0.00  0.00    +0.000 A 
ATOM     15  N   UNL     1       9.078   9.124  19.354  0.00  0.00    +0.000 N 
ATOM     16  H   UNL     1       9.303   8.431  20.058  0.00  0.00    +0.000 HD
ENDBRANCH   2   5
BRANCH   1  17
ATOM     17  C   UNL     1       6.165   6.209  16.671  0.00  0.00    +0.000 C 
BRANCH  17  20
ATOM     18  C   UNL     1       4.045   6.031  18.087  0.00  0.00    +0.000 C 
ATOM     19  C   UNL     1       4.785   5.474  19.277  0.00  0.00    +0.000 C 
ATOM     20  C   UNL     1       4.691   6.326  16.936  0.00  0.00    +0.000 C 
BRANCH  18  21
ATOM     21  C   UNL     1       2.549   6.260  18.306  0.00  0.00    +0.000 C 
BRANCH  21  22
ATOM     22  C   UNL     1       1.608   5.226  17.669  0.00  0.00    +0.000 C 
BRANCH  22  26
ATOM     23  C   UNL     1       2.374   1.690  19.171  0.00  0.00    +0.000 C 
ATOM     24  C   UNL     1       1.795   3.072  19.021  0.00  0.00    +0.000 C 
ATOM     25  C   UNL     1       0.981   3.593  20.171  0.00  0.00    +0.000 C 
ATOM     26  C   UNL     1       2.031   3.797  17.908  0.00  0.00    +0.000 C 
ENDBRANCH  22  26
ENDBRANCH  21  22
ENDBRANCH  18  21
ENDBRANCH  17  20
ENDBRANCH   1  17
TORSDOF 6
ENDMDL
MODEL 3
REMARK VINA RESULT:      -7.6      5.940      7.445
REMARK  Name = 
REMARK  9 active torsions:
REMARK  status: ('A' for Active; 'I' for Inactive)
REMARK    1  A    between atoms: C_1  and  C_2
REMARK    2  A    between atoms: C_2  and  C_3
REMARK    3  A    between atoms: C_4  and  C_5
REMARK    4  A    between atoms: C_5  and  C_6
REMARK    5  A    between atoms: C_6  and  C_7
REMARK    6  A    between atoms: C_7  and  C_8
REMARK    7  A    between atoms: C_9  and  C_10
REMARK    8  A    between atoms: C_10  and  N_11
REMARK    9  A    between atoms: C_12  and  C_14
REMARK                            x       y       z     vdW  Elec       q    Type
REMARK                         _______ _______ _______ _____ _____    ______ ____
ROOT
ATOM      1  N   UNL     1       2.556   7.468  18.881  0.00  0.00    +0.000 N 
ATOM      2  C   UNL     1       1.922   8.646  18.556  0.00  0.00    +0.000 C 
ATOM      3  O   UNL     1       2.064   9.201  17.470  0.00  0.00    +0.000 OA
ATOM      4  H   UNL     1       2.353   7.019  19.761  0.00  0.00    +0.000 HD
ENDROOT
BRANCH   2   5
ATOM      5  C   UNL     1       1.080   9.203  19.590  0.00  0.00    +0.000 A 
ATOM      6  C   UNL     1       0.942   8.921  20.938  0.00  0.00    +0.000 A 
ATOM      7  C   UNL     1       0.032   9.857  21.502  0.00  0.00    +0.000 A 
ATOM      8  C   UNL     1      -0.444  10.106  22.803  0.00  0.00    +0.000 A 
ATOM      9  F   UNL     1      -0.035   9.345  23.828  0.00  0.00    +0.000 F 
ATOM     10  C   UNL     1      -1.323  11.157  23.043  0.00  0.00    +0.000 A 
ATOM     11  C   UNL     1      -1.743  11.949  21.985  0.00  0.00    +0.000 A 
ATOM     12  F   UNL     1      -2.581  12.967  22.228  0.00  0.00    +0.000 F 
ATOM     13  C   UNL     1      -1.314  11.728  20.673  0.00  0.00    +0.000 A 
ATOM     14  C   UNL     1      -0.413  10.676  20.463  0.00  0.00    +0.000 A 
ATOM     15  N   UNL     1       0.205  10.237  19.317  0.00  0.00    +0.000 N 
ATOM     16  H   UNL     1       0.090  10.638  18.394  0.00  0.00    +0.000 HD
ENDBRANCH   2   5
BRANCH   1  17
ATOM     17  C   UNL     1       3.396   6.759  17.949  0.00  0.00    +0.000 C 
BRANCH  17  20
ATOM     18  C   UNL     1       3.497   4.278  17.345  0.00  0.00    +0.000 C 
ATOM     19  C   UNL     1       4.956   4.343  16.967  0.00  0.00    +0.000 C 
ATOM     20  C   UNL     1       2.832   5.380  17.757  0.00  0.00    +0.000 C 
BRANCH  18  21
ATOM     21  C   UNL     1       2.869   2.887  17.258  0.00  0.00    +0.000 C 
BRANCH  21  22
ATOM     22  C   UNL     1       3.311   1.879  18.330  0.00  0.00    +0.000 C 
BRANCH  22  26
ATOM     23  C   UNL     1       2.152   3.448  21.727  0.00  0.00    +0.000 C 
ATOM     24  C   UNL     1       2.087   2.831  20.355  0.00  0.00    +0.000 C 
ATOM     25  C   UNL     1       0.730   2.737  19.717  0.00  0.00    +0.000 C 
ATOM     26  C   UNL     1       3.212   2.413  19.738  0.00  0.00    +0.000 C 
ENDBRANCH  22  26
ENDBRANCH  21  22
ENDBRANCH  18  21
ENDBRANCH  17  20
ENDBRANCH   1  17
TORSDOF 6
ENDMDL
MODEL 4
REMARK VINA RESULT:      -7.6      1.527      2.518
REMARK  Name = 
REMARK  9 active torsions:
REMARK  status: ('A' for Active; 'I' for Inactive)
REMARK    1  A    between atoms: C_1  and  C_2
REMARK    2  A    between atoms: C_2  and  C_3
REMARK    3  A    between atoms: C_4  and  C_5
REMARK    4  A    between atoms: C_5  and  C_6
REMARK    5  A    between atoms: C_6  and  C_7
REMARK    6  A    between atoms: C_7  and  C_8
REMARK    7  A    between atoms: C_9  and  C_10
REMARK    8  A    between atoms: C_10  and  N_11
REMARK    9  A    between atoms: C_12  and  C_14
REMARK                            x       y       z     vdW  Elec       q    Type
REMARK                         _______ _______ _______ _____ _____    ______ ____
ROOT
ATOM      1  N   UNL     1       7.285   7.930  17.088  0.00  0.00    +0.000 N 
ATOM      2  C   UNL     1       8.099   8.032  18.193  0.00  0.00    +0.000 C 
ATOM      3  O   UNL     1       8.371   7.074  18.911  0.00  0.00    +0.000 OA
ATOM      4  H   UNL     1       7.148   8.733  16.494  0.00  0.00    +0.000 HD
ENDROOT
BRANCH   2   5
ATOM      5  C   UNL     1       8.610   9.356  18.467  0.00  0.00    +0.000 A 
ATOM      6  C   UNL     1       9.481   9.843  19.427  0.00  0.00    +0.000 A 
ATOM      7  C   UNL     1       9.716  11.220  19.163  0.00  0.00    +0.000 A 
ATOM      8  C   UNL     1      10.535  12.207  19.742  0.00  0.00    +0.000 A 
ATOM      9  F   UNL     1      11.304  11.910  20.800  0.00  0.00    +0.000 F 
ATOM     10  C   UNL     1      10.575  13.492  19.210  0.00  0.00    +0.000 A 
ATOM     11  C   UNL     1       9.785  13.799  18.112  0.00  0.00    +0.000 A 
ATOM     12  F   UNL     1       9.839  15.036  17.598  0.00  0.00    +0.000 F 
ATOM     13  C   UNL     1       8.941  12.857  17.516  0.00  0.00    +0.000 A 
ATOM     14  C   UNL     1       8.936  11.567  18.060  0.00  0.00    +0.000 A 
ATOM     15  N   UNL     1       8.252  10.436  17.683  0.00  0.00    +0.000 N 
ATOM     16  H   UNL     1       7.608  10.367  16.904  0.00  0.00    +0.000 HD
ENDBRANCH   2   5
BRANCH   1  17
ATOM     17  C   UNL     1       6.728   6.675  16.650  0.00  0.00    +0.000 C 
BRANCH  17  20
ATOM     18  C   UNL     1       4.523   6.210  17.855  0.00  0.00    +0.000 C 
ATOM     19  C   UNL     1       5.194   5.436  18.963  0.00  0.00    +0.000 C 
ATOM     20  C   UNL     1       5.238   6.728  16.832  0.00  0.00    +0.000 C 
BRANCH  18  21
ATOM     21  C   UNL     1       3.012   6.382  18.011  0.00  0.00    +0.000 C 
BRANCH  21  22
ATOM     22  C   UNL     1       2.357   5.592  19.154  0.00  0.00    +0.000 C 
BRANCH  22  26
ATOM     23  C   UNL     1       0.675   2.064  18.892  0.00  0.00    +0.000 C 
ATOM     24  C   UNL     1       1.237   3.326  19.492  0.00  0.00    +0.000 C 
ATOM     25  C   UNL     1       1.305   3.392  20.991  0.00  0.00    +0.000 C 
ATOM     26  C   UNL     1       1.675   4.325  18.697  0.00  0.00    +0.000 C 
ENDBRANCH  22  26
ENDBRANCH  21  22
ENDBRANCH  18  21
ENDBRANCH  17  20
ENDBRANCH   1  17
TORSDOF 6
ENDMDL
MODEL 5
REMARK VINA RESULT:      -7.5      5.034      7.411
REMARK  Name = 
REMARK  9 active torsions:
REMARK  status: ('A' for Active; 'I' for Inactive)
REMARK    1  A    between atoms: C_1  and  C_2
REMARK    2  A    between atoms: C_2  and  C_3
REMARK    3  A    between atoms: C_4  and  C_5
REMARK    4  A    between atoms: C_5  and  C_6
REMARK    5  A    between atoms: C_6  and  C_7
REMARK    6  A    between atoms: C_7  and  C_8
REMARK    7  A    between atoms: C_9  and  C_10
REMARK    8  A    between atoms: C_10  and  N_11
REMARK    9  A    between atoms: C_12  and  C_14
REMARK                            x       y       z     vdW  Elec       q    Type
REMARK                         _______ _______ _______ _____ _____    ______ ____
ROOT
ATOM      1  N   UNL     1       4.043   5.457  19.155  0.00  0.00    +0.000 N 
ATOM      2  C   UNL     1       2.830   5.496  19.803  0.00  0.00    +0.000 C 
ATOM      3  O   UNL     1       2.250   4.485  20.193  0.00  0.00    +0.000 OA
ATOM      4  H   UNL     1       4.508   6.319  18.916  0.00  0.00    +0.000 HD
ENDROOT
BRANCH   2   5
ATOM      5  C   UNL     1       2.266   6.813  19.988  0.00  0.00    +0.000 A 
ATOM      6  C   UNL     1       2.051   7.869  19.119  0.00  0.00    +0.000 A 
ATOM      7  C   UNL     1       1.363   8.896  19.822  0.00  0.00    +0.000 A 
ATOM      8  C   UNL     1       0.833  10.149  19.463  0.00  0.00    +0.000 A 
ATOM      9  F   UNL     1       0.953  10.597  18.205  0.00  0.00    +0.000 F 
ATOM     10  C   UNL     1       0.157  10.924  20.400  0.00  0.00    +0.000 A 
ATOM     11  C   UNL     1       0.027  10.460  21.701  0.00  0.00    +0.000 A 
ATOM     12  F   UNL     1      -0.635  11.208  22.595  0.00  0.00    +0.000 F 
ATOM     13  C   UNL     1       0.555   9.231  22.109  0.00  0.00    +0.000 A 
ATOM     14  C   UNL     1       1.212   8.463  21.140  0.00  0.00    +0.000 A 
ATOM     15  N   UNL     1       1.796   7.222  21.221  0.00  0.00    +0.000 N 
ATOM     16  H   UNL     1       1.841   6.644  22.052  0.00  0.00    +0.000 HD
ENDBRANCH   2   5
BRANCH   1  17
ATOM     17  C   UNL     1       4.762   4.227  18.930  0.00  0.00    +0.000 C 
BRANCH  17  20
ATOM     18  C   UNL     1       6.574   4.638  17.176  0.00  0.00    +0.000 C 
ATOM     19  C   UNL     1       7.564   5.146  18.195  0.00  0.00    +0.000 C 
ATOM     20  C   UNL     1       5.329   4.258  17.540  0.00  0.00    +0.000 C 
BRANCH  18  21
ATOM     21  C   UNL     1       7.105   4.558  15.745  0.00  0.00    +0.000 C 
BRANCH  21  22
ATOM     22  C   UNL     1       6.133   4.999  14.640  0.00  0.00    +0.000 C 
BRANCH  22  26
ATOM     23  C   UNL     1       5.496   2.472  11.714  0.00  0.00    +0.000 C 
ATOM     24  C   UNL     1       6.133   3.567  12.530  0.00  0.00    +0.000 C 
ATOM     25  C   UNL     1       7.276   4.307  11.895  0.00  0.00    +0.000 C 
ATOM     26  C   UNL     1       5.666   3.865  13.759  0.00  0.00    +0.000 C 
ENDBRANCH  22  26
ENDBRANCH  21  22
ENDBRANCH  18  21
ENDBRANCH  17  20
ENDBRANCH   1  17
TORSDOF 6
ENDMDL
MODEL 6
REMARK VINA RESULT:      -7.4      5.267      7.422
REMARK  Name = 
REMARK  9 active torsions:
REMARK  status: ('A' for Active; 'I' for Inactive)
REMARK    1  A    between atoms: C_1  and  C_2
REMARK    2  A    between atoms: C_2  and  C_3
REMARK    3  A    between atoms: C_4  and  C_5
REMARK    4  A    between atoms: C_5  and  C_6
REMARK    5  A    between atoms: C_6  and  C_7
REMARK    6  A    between atoms: C_7  and  C_8
REMARK    7  A    between atoms: C_9  and  C_10
REMARK    8  A    between atoms: C_10  and  N_11
REMARK    9  A    between atoms: C_12  and  C_14
REMARK                            x       y       z     vdW  Elec       q    Type
REMARK                         _______ _______ _______ _____ _____    ______ ____
ROOT
ATOM      1  N   UNL     1       3.647   4.765  17.947  0.00  0.00    +0.000 N 
ATOM      2  C   UNL     1       3.577   5.276  19.223  0.00  0.00    +0.000 C 
ATOM      3  O   UNL     1       4.156   4.766  20.179  0.00  0.00    +0.000 OA
ATOM      4  H   UNL     1       3.208   5.260  17.187  0.00  0.00    +0.000 HD
ENDROOT
BRANCH   2   5
ATOM      5  C   UNL     1       2.758   6.457  19.374  0.00  0.00    +0.000 A 
ATOM      6  C   UNL     1       1.911   6.887  20.381  0.00  0.00    +0.000 A 
ATOM      7  C   UNL     1       1.440   8.187  20.048  0.00  0.00    +0.000 A 
ATOM      8  C   UNL     1       0.622   9.132  20.694  0.00  0.00    +0.000 A 
ATOM      9  F   UNL     1       0.093   8.858  21.895  0.00  0.00    +0.000 F 
ATOM     10  C   UNL     1       0.375  10.369  20.107  0.00  0.00    +0.000 A 
ATOM     11  C   UNL     1       0.927  10.657  18.867  0.00  0.00    +0.000 A 
ATOM     12  F   UNL     1       0.693  11.855  18.315  0.00  0.00    +0.000 F 
ATOM     13  C   UNL     1       1.728   9.741  18.178  0.00  0.00    +0.000 A 
ATOM     14  C   UNL     1       1.976   8.512  18.802  0.00  0.00    +0.000 A 
ATOM     15  N   UNL     1       2.736   7.440  18.402  0.00  0.00    +0.000 N 
ATOM     16  H   UNL     1       3.262   7.378  17.539  0.00  0.00    +0.000 HD
ENDBRANCH   2   5
BRANCH   1  17
ATOM     17  C   UNL     1       4.455   3.617  17.617  0.00  0.00    +0.000 C 
BRANCH  17  20
ATOM     18  C   UNL     1       6.364   4.398  16.108  0.00  0.00    +0.000 C 
ATOM     19  C   UNL     1       7.216   4.842  17.272  0.00  0.00    +0.000 C 
ATOM     20  C   UNL     1       5.132   3.877  16.302  0.00  0.00    +0.000 C 
BRANCH  18  21
ATOM     21  C   UNL     1       7.017   4.551  14.735  0.00  0.00    +0.000 C 
BRANCH  21  22
ATOM     22  C   UNL     1       6.084   4.404  13.523  0.00  0.00    +0.000 C 
BRANCH  22  26
ATOM     23  C   UNL     1       5.883   1.331  11.101  0.00  0.00    +0.000 C 
ATOM     24  C   UNL     1       5.536   2.636  11.769  0.00  0.00    +0.000 C 
ATOM     25  C   UNL     1       4.240   3.280  11.365  0.00  0.00    +0.000 C 
ATOM     26  C   UNL     1       6.355   3.168  12.700  0.00  0.00    +0.000 C 
ENDBRANCH  22  26
ENDBRANCH  21  22
ENDBRANCH  18  21
ENDBRANCH  17  20
ENDBRANCH   1  17
TORSDOF 6
ENDMDL
MODEL 7
REMARK VINA RESULT:      -7.3      1.089      1.466
REMARK  Name = 
REMARK  9 active torsions:
REMARK  status: ('A' for Active; 'I' for Inactive)
REMARK    1  A    between atoms: C_1  and  C_2
REMARK    2  A    between atoms: C_2  and  C_3
REMARK    3  A    between atoms: C_4  and  C_5
REMARK    4  A    between atoms: C_5  and  C_6
REMARK    5  A    between atoms: C_6  and  C_7
REMARK    6  A    between atoms: C_7  and  C_8
REMARK    7  A    between atoms: C_9  and  C_10
REMARK    8  A    between atoms: C_10  and  N_11
REMARK    9  A    between atoms: C_12  and  C_14
REMARK                            x       y       z     vdW  Elec       q    Type
REMARK                         _______ _______ _______ _____ _____    ______ ____
ROOT
ATOM      1  N   UNL     1       8.069   6.862  18.908  0.00  0.00    +0.000 N 
ATOM      2  C   UNL     1       8.111   7.770  17.875  0.00  0.00    +0.000 C 
ATOM      3  O   UNL     1       7.840   7.472  16.714  0.00  0.00    +0.000 OA
ATOM      4  H   UNL     1       8.235   7.173  19.852  0.00  0.00    +0.000 HD
ENDROOT
BRANCH   2   5
ATOM      5  C   UNL     1       8.510   9.109  18.241  0.00  0.00    +0.000 A 
ATOM      6  C   UNL     1       8.376  10.333  17.608  0.00  0.00    +0.000 A 
ATOM      7  C   UNL     1       8.861  11.346  18.479  0.00  0.00    +0.000 A 
ATOM      8  C   UNL     1       8.926  12.750  18.416  0.00  0.00    +0.000 A 
ATOM      9  F   UNL     1       8.475  13.398  17.332  0.00  0.00    +0.000 F 
ATOM     10  C   UNL     1       9.435  13.482  19.484  0.00  0.00    +0.000 A 
ATOM     11  C   UNL     1       9.896  12.814  20.609  0.00  0.00    +0.000 A 
ATOM     12  F   UNL     1      10.374  13.527  21.638  0.00  0.00    +0.000 F 
ATOM     13  C   UNL     1       9.871  11.419  20.709  0.00  0.00    +0.000 A 
ATOM     14  C   UNL     1       9.335  10.710  19.627  0.00  0.00    +0.000 A 
ATOM     15  N   UNL     1       9.145   9.362  19.442  0.00  0.00    +0.000 N 
ATOM     16  H   UNL     1       9.383   8.635  20.108  0.00  0.00    +0.000 HD
ENDBRANCH   2   5
BRANCH   1  17
ATOM     17  C   UNL     1       7.649   5.495  18.720  0.00  0.00    +0.000 C 
BRANCH  17  20
ATOM     18  C   UNL     1       5.663   4.940  17.211  0.00  0.00    +0.000 C 
ATOM     19  C   UNL     1       6.529   4.262  16.178  0.00  0.00    +0.000 C 
ATOM     20  C   UNL     1       6.202   5.496  18.319  0.00  0.00    +0.000 C 
BRANCH  18  21
ATOM     21  C   UNL     1       4.163   4.909  16.917  0.00  0.00    +0.000 C 
BRANCH  21  22
ATOM     22  C   UNL     1       3.246   5.425  18.036  0.00  0.00    +0.000 C 
BRANCH  22  26
ATOM     23  C   UNL     1       0.916   3.236  20.301  0.00  0.00    +0.000 C 
ATOM     24  C   UNL     1       1.703   4.419  19.800  0.00  0.00    +0.000 C 
ATOM     25  C   UNL     1       1.760   5.623  20.696  0.00  0.00    +0.000 C 
ATOM     26  C   UNL     1       2.339   4.364  18.611  0.00  0.00    +0.000 C 
ENDBRANCH  22  26
ENDBRANCH  21  22
ENDBRANCH  18  21
ENDBRANCH  17  20
ENDBRANCH   1  17
TORSDOF 6
ENDMDL
MODEL 8
REMARK VINA RESULT:      -7.3      5.393      7.292
REMARK  Name = 
REMARK  9 active torsions:
REMARK  status: ('A' for Active; 'I' for Inactive)
REMARK    1  A    between atoms: C_1  and  C_2
REMARK    2  A    between atoms: C_2  and  C_3
REMARK    3  A    between atoms: C_4  and  C_5
REMARK    4  A    between atoms: C_5  and  C_6
REMARK    5  A    between atoms: C_6  and  C_7
REMARK    6  A    between atoms: C_7  and  C_8
REMARK    7  A    between atoms: C_9  and  C_10
REMARK    8  A    between atoms: C_10  and  N_11
REMARK    9  A    between atoms: C_12  and  C_14
REMARK                            x       y       z     vdW  Elec       q    Type
REMARK                         _______ _______ _______ _____ _____    ______ ____
ROOT
ATOM      1  N   UNL     1       4.790   5.362  18.944  0.00  0.00    +0.000 N 
ATOM      2  C   UNL     1       3.418   5.359  18.839  0.00  0.00    +0.000 C 
ATOM      3  O   UNL     1       2.784   4.394  18.421  0.00  0.00    +0.000 OA
ATOM      4  H   UNL     1       5.257   6.156  19.356  0.00  0.00    +0.000 HD
ENDROOT
BRANCH   2   5
ATOM      5  C   UNL     1       2.762   6.582  19.242  0.00  0.00    +0.000 A 
ATOM      6  C   UNL     1       2.395   7.721  18.547  0.00  0.00    +0.000 A 
ATOM      7  C   UNL     1       1.678   8.575  19.430  0.00  0.00    +0.000 A 
ATOM      8  C   UNL     1       1.019   9.810  19.285  0.00  0.00    +0.000 A 
ATOM      9  F   UNL     1       1.008  10.433  18.098  0.00  0.00    +0.000 F 
ATOM     10  C   UNL     1       0.353  10.384  20.362  0.00  0.00    +0.000 A 
ATOM     11  C   UNL     1       0.358   9.738  21.590  0.00  0.00    +0.000 A 
ATOM     12  F   UNL     1      -0.296  10.293  22.619  0.00  0.00    +0.000 F 
ATOM     13  C   UNL     1       1.016   8.520  21.787  0.00  0.00    +0.000 A 
ATOM     14  C   UNL     1       1.661   7.955  20.679  0.00  0.00    +0.000 A 
ATOM     15  N   UNL     1       2.352   6.775  20.548  0.00  0.00    +0.000 N 
ATOM     16  H   UNL     1       2.506   6.096  21.284  0.00  0.00    +0.000 HD
ENDBRANCH   2   5
BRANCH   1  17
ATOM     17  C   UNL     1       5.593   4.209  18.624  0.00  0.00    +0.000 C 
BRANCH  17  20
ATOM     18  C   UNL     1       6.099   4.388  16.126  0.00  0.00    +0.000 C 
ATOM     19  C   UNL     1       4.770   3.793  15.728  0.00  0.00    +0.000 C 
ATOM     20  C   UNL     1       6.437   4.537  17.426  0.00  0.00    +0.000 C 
BRANCH  18  21
ATOM     21  C   UNL     1       6.984   4.827  14.960  0.00  0.00    +0.000 C 
BRANCH  21  22
ATOM     22  C   UNL     1       6.335   4.788  13.568  0.00  0.00    +0.000 C 
BRANCH  22  26
ATOM     23  C   UNL     1       6.426   1.611  11.278  0.00  0.00    +0.000 C 
ATOM     24  C   UNL     1       5.922   2.861  11.949  0.00  0.00    +0.000 C 
ATOM     25  C   UNL     1       4.487   3.233  11.700  0.00  0.00    +0.000 C 
ATOM     26  C   UNL     1       6.733   3.582  12.751  0.00  0.00    +0.000 C 
ENDBRANCH  22  26
ENDBRANCH  21  22
ENDBRANCH  18  21
ENDBRANCH  17  20
ENDBRANCH   1  17
TORSDOF 6
ENDMDL
MODEL 9
REMARK VINA RESULT:      -7.3      1.602      2.580
REMARK  Name = 
REMARK  9 active torsions:
REMARK  status: ('A' for Active; 'I' for Inactive)
REMARK    1  A    between atoms: C_1  and  C_2
REMARK    2  A    between atoms: C_2  and  C_3
REMARK    3  A    between atoms: C_4  and  C_5
REMARK    4  A    between atoms: C_5  and  C_6
REMARK    5  A    between atoms: C_6  and  C_7
REMARK    6  A    between atoms: C_7  and  C_8
REMARK    7  A    between atoms: C_9  and  C_10
REMARK    8  A    between atoms: C_10  and  N_11
REMARK    9  A    between atoms: C_12  and  C_14
REMARK                            x       y       z     vdW  Elec       q    Type
REMARK                         _______ _______ _______ _____ _____    ______ ____
ROOT
ATOM      1  N   UNL     1       7.971   6.574  18.698  0.00  0.00    +0.000 N 
ATOM      2  C   UNL     1       7.787   7.549  17.744  0.00  0.00    +0.000 C 
ATOM      3  O   UNL     1       7.252   7.328  16.661  0.00  0.00    +0.000 OA
ATOM      4  H   UNL     1       8.355   6.822  19.596  0.00  0.00    +0.000 HD
ENDROOT
BRANCH   2   5
ATOM      5  C   UNL     1       8.280   8.861  18.094  0.00  0.00    +0.000 A 
ATOM      6  C   UNL     1       8.191  10.093  17.469  0.00  0.00    +0.000 A 
ATOM      7  C   UNL     1       8.773  11.072  18.320  0.00  0.00    +0.000 A 
ATOM      8  C   UNL     1       8.918  12.470  18.255  0.00  0.00    +0.000 A 
ATOM      9  F   UNL     1       8.459  13.148  17.193  0.00  0.00    +0.000 F 
ATOM     10  C   UNL     1       9.515  13.166  19.301  0.00  0.00    +0.000 A 
ATOM     11  C   UNL     1       9.985  12.468  20.403  0.00  0.00    +0.000 A 
ATOM     12  F   UNL     1      10.549  13.148  21.411  0.00  0.00    +0.000 F 
ATOM     13  C   UNL     1       9.882  11.077  20.503  0.00  0.00    +0.000 A 
ATOM     14  C   UNL     1       9.258  10.404  19.444  0.00  0.00    +0.000 A 
ATOM     15  N   UNL     1       8.981   9.071  19.267  0.00  0.00    +0.000 N 
ATOM     16  H   UNL     1       9.204   8.329  19.920  0.00  0.00    +0.000 HD
ENDBRANCH   2   5
BRANCH   1  17
ATOM     17  C   UNL     1       7.498   5.223  18.524  0.00  0.00    +0.000 C 
BRANCH  17  20
ATOM     18  C   UNL     1       5.008   4.653  18.576  0.00  0.00    +0.000 C 
ATOM     19  C   UNL     1       4.990   4.223  17.130  0.00  0.00    +0.000 C 
ATOM     20  C   UNL     1       6.139   5.112  19.155  0.00  0.00    +0.000 C 
BRANCH  18  21
ATOM     21  C   UNL     1       3.679   4.491  19.315  0.00  0.00    +0.000 C 
BRANCH  21  22
ATOM     22  C   UNL     1       3.036   5.784  19.838  0.00  0.00    +0.000 C 
BRANCH  22  26
ATOM     23  C   UNL     1       1.914   8.882  17.719  0.00  0.00    +0.000 C 
ATOM     24  C   UNL     1       2.137   7.980  18.905  0.00  0.00    +0.000 C 
ATOM     25  C   UNL     1       1.533   8.415  20.210  0.00  0.00    +0.000 C 
ATOM     26  C   UNL     1       2.828   6.830  18.769  0.00  0.00    +0.000 C 
ENDBRANCH  22  26
ENDBRANCH  21  22
ENDBRANCH  18  21
ENDBRANCH  17  20
ENDBRANCH   1  17
TORSDOF 6
ENDMDL
