MODEL 1
REMARK VINA RESULT:      -6.6      0.000      0.000
REMARK  Name = 
REMARK  6 active torsions:
REMARK  status: ('A' for Active; 'I' for Inactive)
REMARK    1  A    between atoms: C_1  and  O_2
REMARK    2  A    between atoms: O_2  and  C_3
REMARK    3  A    between atoms: C_6  and  N_7
REMARK    4  A    between atoms: N_10  and  N_11
REMARK    5  A    between atoms: C_17  and  O_18
REMARK    6  A    between atoms: O_18  and  C_19
REMARK                            x       y       z     vdW  Elec       q    Type
REMARK                         _______ _______ _______ _____ _____    ______ ____
ROOT
ATOM      1  N   UNL     1       2.830   5.667  19.917  0.00  0.00    +0.000 N 
ATOM      2  C   UNL     1       2.306   6.941  19.931  0.00  0.00    +0.000 C 
ATOM      3  O   UNL     1       2.456   7.779  19.048  0.00  0.00    +0.000 OA
ATOM      4  N   UNL     1       1.577   7.216  21.059  0.00  0.00    +0.000 N 
ATOM      5  H   UNL     1       2.529   5.017  20.631  0.00  0.00    +0.000 HD
ATOM      6  H   UNL     1       1.577   6.626  21.876  0.00  0.00    +0.000 HD
ENDROOT
BRANCH   1  10
ATOM      7  C   UNL     1       5.644   4.352  17.018  0.00  0.00    +0.000 A 
ATOM      8  C   UNL     1       4.273   4.269  16.761  0.00  0.00    +0.000 A 
ATOM      9  C   UNL     1       3.339   4.690  17.700  0.00  0.00    +0.000 A 
ATOM     10  C   UNL     1       3.739   5.160  18.952  0.00  0.00    +0.000 A 
ATOM     11  C   UNL     1       5.106   5.148  19.249  0.00  0.00    +0.000 A 
ATOM     12  C   UNL     1       6.067   4.738  18.299  0.00  0.00    +0.000 A 
BRANCH   7  14
ATOM     13  C   UNL     1       6.040   4.025  14.712  0.00  0.00    +0.000 C 
ATOM     14  O   UNL     1       6.558   4.055  16.044  0.00  0.00    +0.000 OA
ENDBRANCH   7  14
BRANCH  12  15
ATOM     15  O   UNL     1       7.346   4.805  18.790  0.00  0.00    +0.000 OA
ATOM     16  C   UNL     1       7.930   6.081  19.011  0.00  0.00    +0.000 C 
ENDBRANCH  12  15
ENDBRANCH   1  10
BRANCH   4  17
ATOM     17  N   UNL     1       1.094   8.475  21.226  0.00  0.00    +0.000 N 
ATOM     18  C   UNL     1       1.425   9.301  22.248  0.00  0.00    +0.000 A 
ATOM     19  N   UNL     1       0.832  10.461  22.068  0.00  0.00    +0.000 NA
ATOM     20  N   UNL     1       0.097  10.381  20.901  0.00  0.00    +0.000 NA
ATOM     21  C   UNL     1       0.274   9.176  20.399  0.00  0.00    +0.000 A 
ENDBRANCH   4  17
TORSDOF 4
ENDMDL
MODEL 2
REMARK VINA RESULT:      -6.6      3.717      4.383
REMARK  Name = 
REMARK  6 active torsions:
REMARK  status: ('A' for Active; 'I' for Inactive)
REMARK    1  A    between atoms: C_1  and  O_2
REMARK    2  A    between atoms: O_2  and  C_3
REMARK    3  A    between atoms: C_6  and  N_7
REMARK    4  A    between atoms: N_10  and  N_11
REMARK    5  A    between atoms: C_17  and  O_18
REMARK    6  A    between atoms: O_18  and  C_19
REMARK                            x       y       z     vdW  Elec       q    Type
REMARK                         _______ _______ _______ _____ _____    ______ ____
ROOT
ATOM      1  N   UNL     1       3.640   4.565  17.170  0.00  0.00    +0.000 N 
ATOM      2  C   UNL     1       3.565   4.200  18.496  0.00  0.00    +0.000 C 
ATOM      3  O   UNL     1       4.525   4.046  19.245  0.00  0.00    +0.000 OA
ATOM      4  N   UNL     1       2.280   4.005  18.933  0.00  0.00    +0.000 N 
ATOM      5  H   UNL     1       2.782   4.796  16.687  0.00  0.00    +0.000 HD
ATOM      6  H   UNL     1       1.487   3.949  18.314  0.00  0.00    +0.000 HD
ENDROOT
BRANCH   1  10
ATOM      7  C   UNL     1       7.159   5.150  14.861  0.00  0.00    +0.000 A 
ATOM      8  C   UNL     1       6.261   4.131  14.535  0.00  0.00    +0.000 A 
ATOM      9  C   UNL     1       5.108   3.922  15.282  0.00  0.00    +0.000 A 
ATOM     10  C   UNL     1       4.836   4.690  16.415  0.00  0.00    +0.000 A 
ATOM     11  C   UNL     1       5.784   5.643  16.802  0.00  0.00    +0.000 A 
ATOM     12  C   UNL     1       6.952   5.877  16.043  0.00  0.00    +0.000 A 
BRANCH   7  14
ATOM     13  C   UNL     1       7.951   5.382  12.647  0.00  0.00    +0.000 C 
ATOM     14  O   UNL     1       8.224   5.431  14.049  0.00  0.00    +0.000 OA
ENDBRANCH   7  14
BRANCH  12  15
ATOM     15  O   UNL     1       7.745   6.852  16.593  0.00  0.00    +0.000 OA
ATOM     16  C   UNL     1       7.683   7.076  17.995  0.00  0.00    +0.000 C 
ENDBRANCH  12  15
ENDBRANCH   1  10
BRANCH   4  17
ATOM     17  N   UNL     1       2.090   3.548  20.199  0.00  0.00    +0.000 N 
ATOM     18  C   UNL     1       1.660   2.301  20.513  0.00  0.00    +0.000 A 
ATOM     19  N   UNL     1       1.651   2.171  21.822  0.00  0.00    +0.000 NA
ATOM     20  N   UNL     1       2.084   3.366  22.366  0.00  0.00    +0.000 NA
ATOM     21  C   UNL     1       2.354   4.184  21.370  0.00  0.00    +0.000 A 
ENDBRANCH   4  17
TORSDOF 4
ENDMDL
MODEL 3
REMARK VINA RESULT:      -6.5      3.064      3.842
REMARK  Name = 
REMARK  6 active torsions:
REMARK  status: ('A' for Active; 'I' for Inactive)
REMARK    1  A    between atoms: C_1  and  O_2
REMARK    2  A    between atoms: O_2  and  C_3
REMARK    3  A    between atoms: C_6  and  N_7
REMARK    4  A    between atoms: N_10  and  N_11
REMARK    5  A    between atoms: C_17  and  O_18
REMARK    6  A    between atoms: O_18  and  C_19
REMARK                            x       y       z     vdW  Elec       q    Type
REMARK                         _______ _______ _______ _____ _____    ______ ____
ROOT
ATOM      1  N   UNL     1       2.110   7.457  20.717  0.00  0.00    +0.000 N 
ATOM      2  C   UNL     1       1.033   8.171  21.195  0.00  0.00    +0.000 C 
ATOM      3  O   UNL     1      -0.141   7.827  21.106  0.00  0.00    +0.000 OA
ATOM      4  N   UNL     1       1.389   9.349  21.798  0.00  0.00    +0.000 N 
ATOM      5  H   UNL     1       3.040   7.767  20.967  0.00  0.00    +0.000 HD
ATOM      6  H   UNL     1       2.313   9.747  21.737  0.00  0.00    +0.000 HD
ENDROOT
BRANCH   1  10
ATOM      7  C   UNL     1       2.032   3.841  18.487  0.00  0.00    +0.000 A 
ATOM      8  C   UNL     1       2.412   5.039  17.877  0.00  0.00    +0.000 A 
ATOM      9  C   UNL     1       2.439   6.232  18.590  0.00  0.00    +0.000 A 
ATOM     10  C   UNL     1       2.035   6.281  19.925  0.00  0.00    +0.000 A 
ATOM     11  C   UNL     1       1.557   5.102  20.508  0.00  0.00    +0.000 A 
ATOM     12  C   UNL     1       1.540   3.880  19.801  0.00  0.00    +0.000 A 
BRANCH   7  14
ATOM     13  C   UNL     1       3.337   1.922  18.041  0.00  0.00    +0.000 C 
ATOM     14  O   UNL     1       2.129   2.653  17.816  0.00  0.00    +0.000 OA
ENDBRANCH   7  14
BRANCH  12  15
ATOM     15  O   UNL     1       1.038   2.849  20.553  0.00  0.00    +0.000 OA
ATOM     16  C   UNL     1       1.642   2.557  21.805  0.00  0.00    +0.000 C 
ENDBRANCH  12  15
ENDBRANCH   1  10
BRANCH   4  17
ATOM     17  N   UNL     1       0.402  10.183  22.222  0.00  0.00    +0.000 N 
ATOM     18  C   UNL     1       0.030  11.322  21.590  0.00  0.00    +0.000 A 
ATOM     19  N   UNL     1      -0.994  11.848  22.227  0.00  0.00    +0.000 NA
ATOM     20  N   UNL     1      -1.289  11.027  23.299  0.00  0.00    +0.000 NA
ATOM     21  C   UNL     1      -0.441  10.019  23.275  0.00  0.00    +0.000 A 
ENDBRANCH   4  17
TORSDOF 4
ENDMDL
MODEL 4
REMARK VINA RESULT:      -6.3      3.097      7.470
REMARK  Name = 
REMARK  6 active torsions:
REMARK  status: ('A' for Active; 'I' for Inactive)
REMARK    1  A    between atoms: C_1  and  O_2
REMARK    2  A    between atoms: O_2  and  C_3
REMARK    3  A    between atoms: C_6  and  N_7
REMARK    4  A    between atoms: N_10  and  N_11
REMARK    5  A    between atoms: C_17  and  O_18
REMARK    6  A    between atoms: O_18  and  C_19
REMARK                            x       y       z     vdW  Elec       q    Type
REMARK                         _______ _______ _______ _____ _____    ______ ____
ROOT
ATOM      1  N   UNL     1       3.097   6.363  18.698  0.00  0.00    +0.000 N 
ATOM      2  C   UNL     1       4.225   6.230  17.918  0.00  0.00    +0.000 C 
ATOM      3  O   UNL     1       4.807   7.148  17.350  0.00  0.00    +0.000 OA
ATOM      4  N   UNL     1       4.663   4.935  17.815  0.00  0.00    +0.000 N 
ATOM      5  H   UNL     1       2.783   5.561  19.228  0.00  0.00    +0.000 HD
ATOM      6  H   UNL     1       4.120   4.141  18.116  0.00  0.00    +0.000 HD
ENDROOT
BRANCH   1  10
ATOM      7  C   UNL     1       0.672   9.807  19.259  0.00  0.00    +0.000 A 
ATOM      8  C   UNL     1       1.196   9.510  17.999  0.00  0.00    +0.000 A 
ATOM      9  C   UNL     1       1.995   8.390  17.798  0.00  0.00    +0.000 A 
ATOM     10  C   UNL     1       2.344   7.556  18.861  0.00  0.00    +0.000 A 
ATOM     11  C   UNL     1       1.904   7.909  20.141  0.00  0.00    +0.000 A 
ATOM     12  C   UNL     1       1.079   9.034  20.358  0.00  0.00    +0.000 A 
BRANCH   7  14
ATOM     13  C   UNL     1      -1.322  10.837  18.520  0.00  0.00    +0.000 C 
ATOM     14  O   UNL     1      -0.214  10.836  19.423  0.00  0.00    +0.000 OA
ENDBRANCH   7  14
BRANCH  12  15
ATOM     15  O   UNL     1       0.760   9.200  21.681  0.00  0.00    +0.000 OA
ATOM     16  C   UNL     1      -0.479   8.693  22.156  0.00  0.00    +0.000 C 
ENDBRANCH  12  15
ENDBRANCH   1  10
BRANCH   4  17
ATOM     17  N   UNL     1       5.712   4.670  16.992  0.00  0.00    +0.000 N 
ATOM     18  C   UNL     1       5.605   4.389  15.671  0.00  0.00    +0.000 A 
ATOM     19  N   UNL     1       6.811   4.251  15.166  0.00  0.00    +0.000 NA
ATOM     20  N   UNL     1       7.720   4.446  16.188  0.00  0.00    +0.000 NA
ATOM     21  C   UNL     1       7.038   4.709  17.284  0.00  0.00    +0.000 A 
ENDBRANCH   4  17
TORSDOF 4
ENDMDL
MODEL 5
REMARK VINA RESULT:      -6.2      2.585      2.822
REMARK  Name = 
REMARK  6 active torsions:
REMARK  status: ('A' for Active; 'I' for Inactive)
REMARK    1  A    between atoms: C_1  and  O_2
REMARK    2  A    between atoms: O_2  and  C_3
REMARK    3  A    between atoms: C_6  and  N_7
REMARK    4  A    between atoms: N_10  and  N_11
REMARK    5  A    between atoms: C_17  and  O_18
REMARK    6  A    between atoms: O_18  and  C_19
REMARK                            x       y       z     vdW  Elec       q    Type
REMARK                         _______ _______ _______ _____ _____    ______ ____
ROOT
ATOM      1  N   UNL     1       2.812   7.679  17.747  0.00  0.00    +0.000 N 
ATOM      2  C   UNL     1       2.060   8.570  18.482  0.00  0.00    +0.000 C 
ATOM      3  O   UNL     1       1.662   8.385  19.628  0.00  0.00    +0.000 OA
ATOM      4  N   UNL     1       1.771   9.725  17.803  0.00  0.00    +0.000 N 
ATOM      5  H   UNL     1       3.199   7.992  16.866  0.00  0.00    +0.000 HD
ATOM      6  H   UNL     1       1.925   9.840  16.814  0.00  0.00    +0.000 HD
ENDROOT
BRANCH   1  10
ATOM      7  C   UNL     1       3.931   3.706  18.753  0.00  0.00    +0.000 A 
ATOM      8  C   UNL     1       2.618   3.996  18.376  0.00  0.00    +0.000 A 
ATOM      9  C   UNL     1       2.233   5.290  18.048  0.00  0.00    +0.000 A 
ATOM     10  C   UNL     1       3.134   6.353  18.138  0.00  0.00    +0.000 A 
ATOM     11  C   UNL     1       4.421   6.081  18.613  0.00  0.00    +0.000 A 
ATOM     12  C   UNL     1       4.831   4.768  18.934  0.00  0.00    +0.000 A 
BRANCH   7  14
ATOM     13  C   UNL     1       3.437   1.414  18.461  0.00  0.00    +0.000 C 
ATOM     14  O   UNL     1       4.333   2.413  18.951  0.00  0.00    +0.000 OA
ENDBRANCH   7  14
BRANCH  12  15
ATOM     15  O   UNL     1       6.127   4.720  19.378  0.00  0.00    +0.000 OA
ATOM     16  C   UNL     1       7.037   5.721  18.945  0.00  0.00    +0.000 C 
ENDBRANCH  12  15
ENDBRANCH   1  10
BRANCH   4  17
ATOM     17  N   UNL     1       0.952  10.635  18.394  0.00  0.00    +0.000 N 
ATOM     18  C   UNL     1       1.370  11.786  18.976  0.00  0.00    +0.000 A 
ATOM     19  N   UNL     1       0.319  12.461  19.387  0.00  0.00    +0.000 NA
ATOM     20  N   UNL     1      -0.806  11.726  19.065  0.00  0.00    +0.000 NA
ATOM     21  C   UNL     1      -0.405  10.629  18.456  0.00  0.00    +0.000 A 
ENDBRANCH   4  17
TORSDOF 4
ENDMDL
MODEL 6
REMARK VINA RESULT:      -6.2      1.357      1.371
REMARK  Name = 
REMARK  6 active torsions:
REMARK  status: ('A' for Active; 'I' for Inactive)
REMARK    1  A    between atoms: C_1  and  O_2
REMARK    2  A    between atoms: O_2  and  C_3
REMARK    3  A    between atoms: C_6  and  N_7
REMARK    4  A    between atoms: N_10  and  N_11
REMARK    5  A    between atoms: C_17  and  O_18
REMARK    6  A    between atoms: O_18  and  C_19
REMARK                            x       y       z     vdW  Elec       q    Type
REMARK                         _______ _______ _______ _____ _____    ______ ____
ROOT
ATOM      1  N   UNL     1       2.993   5.877  19.642  0.00  0.00    +0.000 N 
ATOM      2  C   UNL     1       2.248   7.011  19.879  0.00  0.00    +0.000 C 
ATOM      3  O   UNL     1       2.039   7.905  19.066  0.00  0.00    +0.000 OA
ATOM      4  N   UNL     1       1.743   7.071  21.152  0.00  0.00    +0.000 N 
ATOM      5  H   UNL     1       2.985   5.144  20.338  0.00  0.00    +0.000 HD
ATOM      6  H   UNL     1       2.034   6.454  21.893  0.00  0.00    +0.000 HD
ENDROOT
BRANCH   1  10
ATOM      7  C   UNL     1       5.179   5.293  16.045  0.00  0.00    +0.000 A 
ATOM      8  C   UNL     1       4.264   4.331  16.480  0.00  0.00    +0.000 A 
ATOM      9  C   UNL     1       3.544   4.504  17.656  0.00  0.00    +0.000 A 
ATOM     10  C   UNL     1       3.752   5.619  18.469  0.00  0.00    +0.000 A 
ATOM     11  C   UNL     1       4.740   6.532  18.088  0.00  0.00    +0.000 A 
ATOM     12  C   UNL     1       5.468   6.378  16.887  0.00  0.00    +0.000 A 
BRANCH   7  14
ATOM     13  C   UNL     1       7.080   4.564  14.846  0.00  0.00    +0.000 C 
ATOM     14  O   UNL     1       5.789   5.177  14.826  0.00  0.00    +0.000 OA
ENDBRANCH   7  14
BRANCH  12  15
ATOM     15  O   UNL     1       6.384   7.381  16.700  0.00  0.00    +0.000 OA
ATOM     16  C   UNL     1       7.535   7.422  17.532  0.00  0.00    +0.000 C 
ENDBRANCH  12  15
ENDBRANCH   1  10
BRANCH   4  17
ATOM     17  N   UNL     1       1.073   8.192  21.530  0.00  0.00    +0.000 N 
ATOM     18  C   UNL     1       1.637   9.258  22.147  0.00  0.00    +0.000 A 
ATOM     19  N   UNL     1       0.723  10.190  22.308  0.00  0.00    +0.000 NA
ATOM     20  N   UNL     1      -0.462   9.712  21.783  0.00  0.00    +0.000 NA
ATOM     21  C   UNL     1      -0.230   8.506  21.307  0.00  0.00    +0.000 A 
ENDBRANCH   4  17
TORSDOF 4
ENDMDL
MODEL 7
REMARK VINA RESULT:      -6.1      5.136      6.442
REMARK  Name = 
REMARK  6 active torsions:
REMARK  status: ('A' for Active; 'I' for Inactive)
REMARK    1  A    between atoms: C_1  and  O_2
REMARK    2  A    between atoms: O_2  and  C_3
REMARK    3  A    between atoms: C_6  and  N_7
REMARK    4  A    between atoms: N_10  and  N_11
REMARK    5  A    between atoms: C_17  and  O_18
REMARK    6  A    between atoms: O_18  and  C_19
REMARK                            x       y       z     vdW  Elec       q    Type
REMARK                         _______ _______ _______ _____ _____    ______ ____
ROOT
ATOM      1  N   UNL     1       8.462   7.575  18.940  0.00  0.00    +0.000 N 
ATOM      2  C   UNL     1       8.478   8.902  18.569  0.00  0.00    +0.000 C 
ATOM      3  O   UNL     1       7.687   9.431  17.796  0.00  0.00    +0.000 OA
ATOM      4  N   UNL     1       9.494   9.614  19.151  0.00  0.00    +0.000 N 
ATOM      5  H   UNL     1       9.075   7.278  19.688  0.00  0.00    +0.000 HD
ATOM      6  H   UNL     1      10.260   9.185  19.645  0.00  0.00    +0.000 HD
ENDROOT
BRANCH   1  10
ATOM      7  C   UNL     1       5.799   4.744  17.221  0.00  0.00    +0.000 A 
ATOM      8  C   UNL     1       6.105   4.690  18.583  0.00  0.00    +0.000 A 
ATOM      9  C   UNL     1       6.977   5.605  19.161  0.00  0.00    +0.000 A 
ATOM     10  C   UNL     1       7.619   6.574  18.388  0.00  0.00    +0.000 A 
ATOM     11  C   UNL     1       7.393   6.565  17.008  0.00  0.00    +0.000 A 
ATOM     12  C   UNL     1       6.496   5.652  16.409  0.00  0.00    +0.000 A 
BRANCH   7  14
ATOM     13  C   UNL     1       4.001   3.268  17.635  0.00  0.00    +0.000 C 
ATOM     14  O   UNL     1       4.846   3.923  16.685  0.00  0.00    +0.000 OA
ENDBRANCH   7  14
BRANCH  12  15
ATOM     15  O   UNL     1       6.418   5.813  15.050  0.00  0.00    +0.000 OA
ATOM     16  C   UNL     1       6.975   4.814  14.208  0.00  0.00    +0.000 C 
ENDBRANCH  12  15
ENDBRANCH   1  10
BRANCH   4  17
ATOM     17  N   UNL     1       9.667  10.912  18.783  0.00  0.00    +0.000 N 
ATOM     18  C   UNL     1       9.191  11.979  19.469  0.00  0.00    +0.000 A 
ATOM     19  N   UNL     1       9.594  13.081  18.876  0.00  0.00    +0.000 NA
ATOM     20  N   UNL     1      10.347  12.716  17.776  0.00  0.00    +0.000 NA
ATOM     21  C   UNL     1      10.390  11.400  17.741  0.00  0.00    +0.000 A 
ENDBRANCH   4  17
TORSDOF 4
ENDMDL
MODEL 8
REMARK VINA RESULT:      -6.1      2.290      3.063
REMARK  Name = 
REMARK  6 active torsions:
REMARK  status: ('A' for Active; 'I' for Inactive)
REMARK    1  A    between atoms: C_1  and  O_2
REMARK    2  A    between atoms: O_2  and  C_3
REMARK    3  A    between atoms: C_6  and  N_7
REMARK    4  A    between atoms: N_10  and  N_11
REMARK    5  A    between atoms: C_17  and  O_18
REMARK    6  A    between atoms: O_18  and  C_19
REMARK                            x       y       z     vdW  Elec       q    Type
REMARK                         _______ _______ _______ _____ _____    ______ ____
ROOT
ATOM      1  N   UNL     1       2.467   7.436  18.849  0.00  0.00    +0.000 N 
ATOM      2  C   UNL     1       1.871   8.595  18.403  0.00  0.00    +0.000 C 
ATOM      3  O   UNL     1       1.802   8.952  17.232  0.00  0.00    +0.000 OA
ATOM      4  N   UNL     1       1.344   9.356  19.414  0.00  0.00    +0.000 N 
ATOM      5  H   UNL     1       2.344   7.175  19.819  0.00  0.00    +0.000 HD
ATOM      6  H   UNL     1       1.531   9.189  20.390  0.00  0.00    +0.000 HD
ENDROOT
BRANCH   1  10
ATOM      7  C   UNL     1       4.753   4.616  16.639  0.00  0.00    +0.000 A 
ATOM      8  C   UNL     1       5.121   5.964  16.661  0.00  0.00    +0.000 A 
ATOM      9  C   UNL     1       4.383   6.900  17.374  0.00  0.00    +0.000 A 
ATOM     10  C   UNL     1       3.217   6.534  18.049  0.00  0.00    +0.000 A 
ATOM     11  C   UNL     1       2.791   5.206  17.944  0.00  0.00    +0.000 A 
ATOM     12  C   UNL     1       3.539   4.240  17.236  0.00  0.00    +0.000 A 
BRANCH   7  14
ATOM     13  C   UNL     1       6.585   4.207  15.205  0.00  0.00    +0.000 C 
ATOM     14  O   UNL     1       5.553   3.681  16.041  0.00  0.00    +0.000 OA
ENDBRANCH   7  14
BRANCH  12  15
ATOM     15  O   UNL     1       2.948   3.003  17.259  0.00  0.00    +0.000 OA
ATOM     16  C   UNL     1       3.251   2.118  18.328  0.00  0.00    +0.000 C 
ENDBRANCH  12  15
ENDBRANCH   1  10
BRANCH   4  17
ATOM     17  N   UNL     1       0.816  10.570  19.102  0.00  0.00    +0.000 N 
ATOM     18  C   UNL     1      -0.499  10.804  18.872  0.00  0.00    +0.000 A 
ATOM     19  N   UNL     1      -0.673  12.091  18.665  0.00  0.00    +0.000 NA
ATOM     20  N   UNL     1       0.563  12.703  18.762  0.00  0.00    +0.000 NA
ATOM     21  C   UNL     1       1.450  11.769  19.037  0.00  0.00    +0.000 A 
ENDBRANCH   4  17
TORSDOF 4
ENDMDL
MODEL 9
REMARK VINA RESULT:      -6.1      2.588      3.803
REMARK  Name = 
REMARK  6 active torsions:
REMARK  status: ('A' for Active; 'I' for Inactive)
REMARK    1  A    between atoms: C_1  and  O_2
REMARK    2  A    between atoms: O_2  and  C_3
REMARK    3  A    between atoms: C_6  and  N_7
REMARK    4  A    between atoms: N_10  and  N_11
REMARK    5  A    between atoms: C_17  and  O_18
REMARK    6  A    between atoms: O_18  and  C_19
REMARK                            x       y       z     vdW  Elec       q    Type
REMARK                         _______ _______ _______ _____ _____    ______ ____
ROOT
ATOM      1  N   UNL     1       1.804   7.875  21.229  0.00  0.00    +0.000 N 
ATOM      2  C   UNL     1       0.714   8.712  21.329  0.00  0.00    +0.000 C 
ATOM      3  O   UNL     1      -0.334   8.591  20.703  0.00  0.00    +0.000 OA
ATOM      4  N   UNL     1       0.901   9.741  22.216  0.00  0.00    +0.000 N 
ATOM      5  H   UNL     1       2.559   7.989  21.891  0.00  0.00    +0.000 HD
ATOM      6  H   UNL     1       1.798   9.974  22.612  0.00  0.00    +0.000 HD
ENDROOT
BRANCH   1  10
ATOM      7  C   UNL     1       2.377   4.615  18.564  0.00  0.00    +0.000 A 
ATOM      8  C   UNL     1       2.697   5.916  18.169  0.00  0.00    +0.000 A 
ATOM      9  C   UNL     1       2.512   6.994  19.025  0.00  0.00    +0.000 A 
ATOM     10  C   UNL     1       1.948   6.819  20.290  0.00  0.00    +0.000 A 
ATOM     11  C   UNL     1       1.533   5.533  20.649  0.00  0.00    +0.000 A 
ATOM     12  C   UNL     1       1.730   4.425  19.795  0.00  0.00    +0.000 A 
BRANCH   7  14
ATOM     13  C   UNL     1       3.968   3.591  17.149  0.00  0.00    +0.000 C 
ATOM     14  O   UNL     1       2.680   3.546  17.766  0.00  0.00    +0.000 OA
ENDBRANCH   7  14
BRANCH  12  15
ATOM     15  O   UNL     1       1.255   3.258  20.337  0.00  0.00    +0.000 OA
ATOM     16  C   UNL     1       1.821   2.785  21.550  0.00  0.00    +0.000 C 
ENDBRANCH  12  15
ENDBRANCH   1  10
BRANCH   4  17
ATOM     17  N   UNL     1      -0.070  10.685  22.325  0.00  0.00    +0.000 N 
ATOM     18  C   UNL     1      -1.114  10.623  23.187  0.00  0.00    +0.000 A 
ATOM     19  N   UNL     1      -1.822  11.726  23.078  0.00  0.00    +0.000 NA
ATOM     20  N   UNL     1      -1.221  12.519  22.120  0.00  0.00    +0.000 NA
ATOM     21  C   UNL     1      -0.156  11.879  21.682  0.00  0.00    +0.000 A 
ENDBRANCH   4  17
TORSDOF 4
ENDMDL
