MODEL 1
REMARK VINA RESULT:      -7.3      0.000      0.000
REMARK  Name = 
REMARK  8 active torsions:
REMARK  status: ('A' for Active; 'I' for Inactive)
REMARK    1  A    between atoms: C_1  and  C_2
REMARK    2  A    between atoms: C_2  and  C_3
REMARK    3  A    between atoms: C_3  and  S_4
REMARK    4  A    between atoms: C_3  and  C_17
REMARK    5  A    between atoms: S_4  and  C_5
REMARK    6  A    between atoms: C_8  and  C_9
REMARK    7  A    between atoms: N_19  and  C_20
REMARK    8  A    between atoms: C_23  and  C_24
REMARK                            x       y       z     vdW  Elec       q    Type
REMARK                         _______ _______ _______ _____ _____    ______ ____
ROOT
ATOM      1  C   UNL     1      -0.081  11.868  19.816  0.00  0.00    +0.000 C 
ENDROOT
BRANCH   1   2
ATOM      2  C   UNL     1      -1.039  12.937  20.404  0.00  0.00    +0.000 C 
ATOM      3  O   UNL     1      -0.554  13.833  21.116  0.00  0.00    +0.000 OA
ATOM      4  N   UNL     1      -2.417  12.914  20.157  0.00  0.00    +0.000 N 
ATOM      5  C   UNL     1      -3.245  13.822  20.948  0.00  0.00    +0.000 C 
ATOM      6  C   UNL     1      -2.934  12.197  19.080  0.00  0.00    +0.000 A 
ATOM      7  N   UNL     1      -2.258  11.712  18.066  0.00  0.00    +0.000 NA
ATOM      8  C   UNL     1      -3.084  11.019  17.202  0.00  0.00    +0.000 A 
ATOM      9  C   UNL     1      -2.479  10.358  16.022  0.00  0.00    +0.000 C 
ATOM     10  C   UNL     1      -4.418  11.024  17.557  0.00  0.00    +0.000 A 
ATOM     11  S   UNL     1      -4.629  11.915  19.001  0.00  0.00    +0.000 S 
ENDBRANCH   1   2
BRANCH   1  13
ATOM     12  C   UNL     1       1.824  13.054  18.505  0.00  0.00    +0.000 C 
ATOM     13  C   UNL     1       1.379  12.380  19.797  0.00  0.00    +0.000 C 
ENDBRANCH   1  13
BRANCH   1  14
ATOM     14  S   UNL     1      -0.236  10.238  20.666  0.00  0.00    +0.000 S 
BRANCH  14  15
ATOM     15  C   UNL     1       0.984   9.244  19.848  0.00  0.00    +0.000 A 
ATOM     16  C   UNL     1       1.199   9.436  18.496  0.00  0.00    +0.000 A 
ATOM     17  C   UNL     1       2.007   8.536  17.803  0.00  0.00    +0.000 A 
ATOM     18  C   UNL     1       2.575   7.462  18.479  0.00  0.00    +0.000 A 
ATOM     19  N   UNL     1       2.351   7.315  19.807  0.00  0.00    +0.000 NA
ATOM     20  N   UNL     1       1.545   8.207  20.497  0.00  0.00    +0.000 NA
BRANCH  18  21
ATOM     21  C   UNL     1       3.371   6.417  17.804  0.00  0.00    +0.000 A 
ATOM     22  C   UNL     1       4.527   6.726  17.059  0.00  0.00    +0.000 A 
ATOM     23  C   UNL     1       5.244   5.737  16.378  0.00  0.00    +0.000 A 
ATOM     24  C   UNL     1       4.825   4.411  16.433  0.00  0.00    +0.000 A 
ATOM     25  C   UNL     1       3.696   4.074  17.173  0.00  0.00    +0.000 A 
ATOM     26  C   UNL     1       2.980   5.066  17.852  0.00  0.00    +0.000 A 
ENDBRANCH  18  21
ENDBRANCH  14  15
ENDBRANCH   1  14
TORSDOF 5
ENDMDL
MODEL 2
REMARK VINA RESULT:      -7.0      5.780      8.739
REMARK  Name = 
REMARK  8 active torsions:
REMARK  status: ('A' for Active; 'I' for Inactive)
REMARK    1  A    between atoms: C_1  and  C_2
REMARK    2  A    between atoms: C_2  and  C_3
REMARK    3  A    between atoms: C_3  and  S_4
REMARK    4  A    between atoms: C_3  and  C_17
REMARK    5  A    between atoms: S_4  and  C_5
REMARK    6  A    between atoms: C_8  and  C_9
REMARK    7  A    between atoms: N_19  and  C_20
REMARK    8  A    between atoms: C_23  and  C_24
REMARK                            x       y       z     vdW  Elec       q    Type
REMARK                         _______ _______ _______ _____ _____    ______ ____
ROOT
ATOM      1  C   UNL     1       5.033   4.887  16.285  0.00  0.00    +0.000 C 
ENDROOT
BRANCH   1   2
ATOM      2  C   UNL     1       4.364   6.218  16.714  0.00  0.00    +0.000 C 
ATOM      3  O   UNL     1       4.545   7.222  16.005  0.00  0.00    +0.000 OA
ATOM      4  N   UNL     1       3.575   6.314  17.867  0.00  0.00    +0.000 N 
ATOM      5  C   UNL     1       3.196   7.658  18.297  0.00  0.00    +0.000 C 
ATOM      6  C   UNL     1       3.030   5.173  18.452  0.00  0.00    +0.000 A 
ATOM      7  N   UNL     1       2.944   3.981  17.912  0.00  0.00    +0.000 NA
ATOM      8  C   UNL     1       2.386   3.074  18.792  0.00  0.00    +0.000 A 
ATOM      9  C   UNL     1       2.258   1.661  18.365  0.00  0.00    +0.000 C 
ATOM     10  C   UNL     1       2.005   3.612  20.004  0.00  0.00    +0.000 A 
ATOM     11  S   UNL     1       2.358   5.285  20.032  0.00  0.00    +0.000 S 
ENDBRANCH   1   2
BRANCH   1  13
ATOM     12  C   UNL     1       6.672   4.080  14.436  0.00  0.00    +0.000 C 
ATOM     13  C   UNL     1       5.461   4.931  14.799  0.00  0.00    +0.000 C 
ENDBRANCH   1  13
BRANCH   1  14
ATOM     14  S   UNL     1       6.427   4.407  17.395  0.00  0.00    +0.000 S 
BRANCH  14  15
ATOM     15  C   UNL     1       7.284   5.939  17.644  0.00  0.00    +0.000 A 
ATOM     16  C   UNL     1       7.903   6.162  18.860  0.00  0.00    +0.000 A 
ATOM     17  C   UNL     1       8.410   7.431  19.140  0.00  0.00    +0.000 A 
ATOM     18  C   UNL     1       8.278   8.446  18.200  0.00  0.00    +0.000 A 
ATOM     19  N   UNL     1       7.676   8.184  17.015  0.00  0.00    +0.000 NA
ATOM     20  N   UNL     1       7.170   6.924  16.735  0.00  0.00    +0.000 NA
BRANCH  18  21
ATOM     21  C   UNL     1       8.708   9.836  18.451  0.00  0.00    +0.000 A 
ATOM     22  C   UNL     1       8.380  10.888  17.572  0.00  0.00    +0.000 A 
ATOM     23  C   UNL     1       8.837  12.192  17.789  0.00  0.00    +0.000 A 
ATOM     24  C   UNL     1       9.630  12.477  18.897  0.00  0.00    +0.000 A 
ATOM     25  C   UNL     1       9.957  11.461  19.789  0.00  0.00    +0.000 A 
ATOM     26  C   UNL     1       9.499  10.158  19.569  0.00  0.00    +0.000 A 
ENDBRANCH  18  21
ENDBRANCH  14  15
ENDBRANCH   1  14
TORSDOF 5
ENDMDL
MODEL 3
REMARK VINA RESULT:      -6.9      1.045      1.518
REMARK  Name = 
REMARK  8 active torsions:
REMARK  status: ('A' for Active; 'I' for Inactive)
REMARK    1  A    between atoms: C_1  and  C_2
REMARK    2  A    between atoms: C_2  and  C_3
REMARK    3  A    between atoms: C_3  and  S_4
REMARK    4  A    between atoms: C_3  and  C_17
REMARK    5  A    between atoms: S_4  and  C_5
REMARK    6  A    between atoms: C_8  and  C_9
REMARK    7  A    between atoms: N_19  and  C_20
REMARK    8  A    between atoms: C_23  and  C_24
REMARK                            x       y       z     vdW  Elec       q    Type
REMARK                         _______ _______ _______ _____ _____    ______ ____
ROOT
ATOM      1  C   UNL     1      -0.689  12.037  19.685  0.00  0.00    +0.000 C 
ENDROOT
BRANCH   1   2
ATOM      2  C   UNL     1      -1.825  12.856  20.350  0.00  0.00    +0.000 C 
ATOM      3  O   UNL     1      -1.515  13.713  21.194  0.00  0.00    +0.000 OA
ATOM      4  N   UNL     1      -3.172  12.652  20.028  0.00  0.00    +0.000 N 
ATOM      5  C   UNL     1      -4.161  13.306  20.881  0.00  0.00    +0.000 C 
ATOM      6  C   UNL     1      -3.531  12.013  18.843  0.00  0.00    +0.000 A 
ATOM      7  N   UNL     1      -2.753  11.778  17.814  0.00  0.00    +0.000 NA
ATOM      8  C   UNL     1      -3.427  11.086  16.827  0.00  0.00    +0.000 A 
ATOM      9  C   UNL     1      -2.684  10.690  15.607  0.00  0.00    +0.000 C 
ATOM     10  C   UNL     1      -4.755  10.836  17.107  0.00  0.00    +0.000 A 
ATOM     11  S   UNL     1      -5.155  11.483  18.638  0.00  0.00    +0.000 S 
ENDBRANCH   1   2
BRANCH   1  13
ATOM     12  C   UNL     1       1.442  13.449  19.212  0.00  0.00    +0.000 C 
ATOM     13  C   UNL     1       0.116  12.907  18.690  0.00  0.00    +0.000 C 
ENDBRANCH   1  13
BRANCH   1  14
ATOM     14  S   UNL     1       0.401  11.207  20.921  0.00  0.00    +0.000 S 
BRANCH  14  15
ATOM     15  C   UNL     1       0.981   9.778  20.047  0.00  0.00    +0.000 A 
ATOM     16  C   UNL     1       1.249   8.626  20.763  0.00  0.00    +0.000 A 
ATOM     17  C   UNL     1       1.887   7.563  20.124  0.00  0.00    +0.000 A 
ATOM     18  C   UNL     1       2.247   7.682  18.787  0.00  0.00    +0.000 A 
ATOM     19  N   UNL     1       1.955   8.822  18.115  0.00  0.00    +0.000 NA
ATOM     20  N   UNL     1       1.323   9.880  18.750  0.00  0.00    +0.000 NA
BRANCH  18  21
ATOM     21  C   UNL     1       3.001   6.640  18.061  0.00  0.00    +0.000 A 
ATOM     22  C   UNL     1       2.608   5.286  18.081  0.00  0.00    +0.000 A 
ATOM     23  C   UNL     1       3.357   4.297  17.435  0.00  0.00    +0.000 A 
ATOM     24  C   UNL     1       4.517   4.642  16.746  0.00  0.00    +0.000 A 
ATOM     25  C   UNL     1       4.920   5.972  16.697  0.00  0.00    +0.000 A 
ATOM     26  C   UNL     1       4.169   6.958  17.344  0.00  0.00    +0.000 A 
ENDBRANCH  18  21
ENDBRANCH  14  15
ENDBRANCH   1  14
TORSDOF 5
ENDMDL
MODEL 4
REMARK VINA RESULT:      -6.9      0.781      1.257
REMARK  Name = 
REMARK  8 active torsions:
REMARK  status: ('A' for Active; 'I' for Inactive)
REMARK    1  A    between atoms: C_1  and  C_2
REMARK    2  A    between atoms: C_2  and  C_3
REMARK    3  A    between atoms: C_3  and  S_4
REMARK    4  A    between atoms: C_3  and  C_17
REMARK    5  A    between atoms: S_4  and  C_5
REMARK    6  A    between atoms: C_8  and  C_9
REMARK    7  A    between atoms: N_19  and  C_20
REMARK    8  A    between atoms: C_23  and  C_24
REMARK                            x       y       z     vdW  Elec       q    Type
REMARK                         _______ _______ _______ _____ _____    ______ ____
ROOT
ATOM      1  C   UNL     1      -0.743  12.090  19.986  0.00  0.00    +0.000 C 
ENDROOT
BRANCH   1   2
ATOM      2  C   UNL     1      -1.887  13.023  20.460  0.00  0.00    +0.000 C 
ATOM      3  O   UNL     1      -1.602  13.965  21.218  0.00  0.00    +0.000 OA
ATOM      4  N   UNL     1      -3.215  12.829  20.060  0.00  0.00    +0.000 N 
ATOM      5  C   UNL     1      -4.234  13.617  20.751  0.00  0.00    +0.000 C 
ATOM      6  C   UNL     1      -3.514  12.065  18.934  0.00  0.00    +0.000 A 
ATOM      7  N   UNL     1      -2.674  11.680  18.004  0.00  0.00    +0.000 NA
ATOM      8  C   UNL     1      -3.304  10.898  17.056  0.00  0.00    +0.000 A 
ATOM      9  C   UNL     1      -2.492  10.332  15.952  0.00  0.00    +0.000 C 
ATOM     10  C   UNL     1      -4.659  10.731  17.259  0.00  0.00    +0.000 A 
ATOM     11  S   UNL     1      -5.141  11.572  18.668  0.00  0.00    +0.000 S 
ENDBRANCH   1   2
BRANCH   1  13
ATOM     12  C   UNL     1       1.563  13.025  20.738  0.00  0.00    +0.000 C 
ATOM     13  C   UNL     1       0.525  12.902  19.628  0.00  0.00    +0.000 C 
ENDBRANCH   1  13
BRANCH   1  14
ATOM     14  S   UNL     1      -0.386  10.741  21.193  0.00  0.00    +0.000 S 
BRANCH  14  15
ATOM     15  C   UNL     1       0.729   9.690  20.301  0.00  0.00    +0.000 A 
ATOM     16  C   UNL     1       0.838   9.849  18.932  0.00  0.00    +0.000 A 
ATOM     17  C   UNL     1       1.556   8.908  18.195  0.00  0.00    +0.000 A 
ATOM     18  C   UNL     1       2.142   7.828  18.845  0.00  0.00    +0.000 A 
ATOM     19  N   UNL     1       2.023   7.714  20.190  0.00  0.00    +0.000 NA
ATOM     20  N   UNL     1       1.307   8.647  20.924  0.00  0.00    +0.000 NA
BRANCH  18  21
ATOM     21  C   UNL     1       2.845   6.744  18.130  0.00  0.00    +0.000 A 
ATOM     22  C   UNL     1       2.392   5.409  18.172  0.00  0.00    +0.000 A 
ATOM     23  C   UNL     1       3.094   4.379  17.537  0.00  0.00    +0.000 A 
ATOM     24  C   UNL     1       4.264   4.662  16.838  0.00  0.00    +0.000 A 
ATOM     25  C   UNL     1       4.726   5.972  16.768  0.00  0.00    +0.000 A 
ATOM     26  C   UNL     1       4.022   7.000  17.405  0.00  0.00    +0.000 A 
ENDBRANCH  18  21
ENDBRANCH  14  15
ENDBRANCH   1  14
TORSDOF 5
ENDMDL
MODEL 5
REMARK VINA RESULT:      -6.8      3.732      9.071
REMARK  Name = 
REMARK  8 active torsions:
REMARK  status: ('A' for Active; 'I' for Inactive)
REMARK    1  A    between atoms: C_1  and  C_2
REMARK    2  A    between atoms: C_2  and  C_3
REMARK    3  A    between atoms: C_3  and  S_4
REMARK    4  A    between atoms: C_3  and  C_17
REMARK    5  A    between atoms: S_4  and  C_5
REMARK    6  A    between atoms: C_8  and  C_9
REMARK    7  A    between atoms: N_19  and  C_20
REMARK    8  A    between atoms: C_23  and  C_24
REMARK                            x       y       z     vdW  Elec       q    Type
REMARK                         _______ _______ _______ _____ _____    ______ ____
ROOT
ATOM      1  C   UNL     1       3.188   5.817  17.742  0.00  0.00    +0.000 C 
ENDROOT
BRANCH   1   2
ATOM      2  C   UNL     1       4.213   5.354  18.809  0.00  0.00    +0.000 C 
ATOM      3  O   UNL     1       3.827   5.238  19.984  0.00  0.00    +0.000 OA
ATOM      4  N   UNL     1       5.545   5.072  18.484  0.00  0.00    +0.000 N 
ATOM      5  C   UNL     1       6.470   4.877  19.598  0.00  0.00    +0.000 C 
ATOM      6  C   UNL     1       5.915   4.806  17.166  0.00  0.00    +0.000 A 
ATOM      7  N   UNL     1       5.110   4.528  16.169  0.00  0.00    +0.000 NA
ATOM      8  C   UNL     1       5.814   4.362  14.992  0.00  0.00    +0.000 A 
ATOM      9  C   UNL     1       5.056   4.091  13.747  0.00  0.00    +0.000 C 
ATOM     10  C   UNL     1       7.182   4.475  15.122  0.00  0.00    +0.000 A 
ATOM     11  S   UNL     1       7.585   4.796  16.753  0.00  0.00    +0.000 S 
ENDBRANCH   1   2
BRANCH   1  13
ATOM     12  C   UNL     1       1.398   3.945  17.958  0.00  0.00    +0.000 C 
ATOM     13  C   UNL     1       1.748   5.417  18.143  0.00  0.00    +0.000 C 
ENDBRANCH   1  13
BRANCH   1  14
ATOM     14  S   UNL     1       3.328   7.617  17.361  0.00  0.00    +0.000 S 
BRANCH  14  15
ATOM     15  C   UNL     1       2.055   8.338  18.363  0.00  0.00    +0.000 A 
ATOM     16  C   UNL     1       1.234   9.299  17.803  0.00  0.00    +0.000 A 
ATOM     17  C   UNL     1       0.363  10.011  18.627  0.00  0.00    +0.000 A 
ATOM     18  C   UNL     1       0.340   9.748  19.992  0.00  0.00    +0.000 A 
ATOM     19  N   UNL     1       1.151   8.789  20.501  0.00  0.00    +0.000 NA
ATOM     20  N   UNL     1       2.019   8.082  19.684  0.00  0.00    +0.000 NA
BRANCH  18  21
ATOM     21  C   UNL     1      -0.488  10.515  20.945  0.00  0.00    +0.000 A 
ATOM     22  C   UNL     1      -1.255  11.625  20.539  0.00  0.00    +0.000 A 
ATOM     23  C   UNL     1      -1.994  12.379  21.457  0.00  0.00    +0.000 A 
ATOM     24  C   UNL     1      -1.989  12.033  22.806  0.00  0.00    +0.000 A 
ATOM     25  C   UNL     1      -1.252  10.933  23.232  0.00  0.00    +0.000 A 
ATOM     26  C   UNL     1      -0.513  10.182  22.311  0.00  0.00    +0.000 A 
ENDBRANCH  18  21
ENDBRANCH  14  15
ENDBRANCH   1  14
TORSDOF 5
ENDMDL
MODEL 6
REMARK VINA RESULT:      -6.8      6.216      9.223
REMARK  Name = 
REMARK  8 active torsions:
REMARK  status: ('A' for Active; 'I' for Inactive)
REMARK    1  A    between atoms: C_1  and  C_2
REMARK    2  A    between atoms: C_2  and  C_3
REMARK    3  A    between atoms: C_3  and  S_4
REMARK    4  A    between atoms: C_3  and  C_17
REMARK    5  A    between atoms: S_4  and  C_5
REMARK    6  A    between atoms: C_8  and  C_9
REMARK    7  A    between atoms: N_19  and  C_20
REMARK    8  A    between atoms: C_23  and  C_24
REMARK                            x       y       z     vdW  Elec       q    Type
REMARK                         _______ _______ _______ _____ _____    ______ ____
ROOT
ATOM      1  C   UNL     1       5.941   4.747  16.150  0.00  0.00    +0.000 C 
ENDROOT
BRANCH   1   2
ATOM      2  C   UNL     1       5.009   5.967  16.373  0.00  0.00    +0.000 C 
ATOM      3  O   UNL     1       5.056   6.900  15.555  0.00  0.00    +0.000 OA
ATOM      4  N   UNL     1       4.132   6.040  17.462  0.00  0.00    +0.000 N 
ATOM      5  C   UNL     1       3.483   7.327  17.701  0.00  0.00    +0.000 C 
ATOM      6  C   UNL     1       3.763   4.889  18.156  0.00  0.00    +0.000 A 
ATOM      7  N   UNL     1       3.937   3.650  17.765  0.00  0.00    +0.000 NA
ATOM      8  C   UNL     1       3.490   2.759  18.721  0.00  0.00    +0.000 A 
ATOM      9  C   UNL     1       3.655   1.308  18.468  0.00  0.00    +0.000 C 
ATOM     10  C   UNL     1       2.927   3.347  19.835  0.00  0.00    +0.000 A 
ATOM     11  S   UNL     1       2.965   5.049  19.672  0.00  0.00    +0.000 S 
ENDBRANCH   1   2
BRANCH   1  13
ATOM     12  C   UNL     1       5.930   3.888  13.697  0.00  0.00    +0.000 C 
ATOM     13  C   UNL     1       6.582   4.786  14.742  0.00  0.00    +0.000 C 
ENDBRANCH   1  13
BRANCH   1  14
ATOM     14  S   UNL     1       7.204   4.569  17.484  0.00  0.00    +0.000 S 
BRANCH  14  15
ATOM     15  C   UNL     1       7.558   6.249  17.925  0.00  0.00    +0.000 A 
ATOM     16  C   UNL     1       7.404   7.234  16.967  0.00  0.00    +0.000 A 
ATOM     17  C   UNL     1       7.863   8.523  17.239  0.00  0.00    +0.000 A 
ATOM     18  C   UNL     1       8.471   8.792  18.459  0.00  0.00    +0.000 A 
ATOM     19  N   UNL     1       8.592   7.803  19.378  0.00  0.00    +0.000 NA
ATOM     20  N   UNL     1       8.139   6.521  19.108  0.00  0.00    +0.000 NA
BRANCH  18  21
ATOM     21  C   UNL     1       9.061  10.104  18.792  0.00  0.00    +0.000 A 
ATOM     22  C   UNL     1       9.264  11.099  17.814  0.00  0.00    +0.000 A 
ATOM     23  C   UNL     1       9.873  12.319  18.127  0.00  0.00    +0.000 A 
ATOM     24  C   UNL     1      10.287  12.576  19.431  0.00  0.00    +0.000 A 
ATOM     25  C   UNL     1      10.085  11.619  20.419  0.00  0.00    +0.000 A 
ATOM     26  C   UNL     1       9.477  10.399  20.103  0.00  0.00    +0.000 A 
ENDBRANCH  18  21
ENDBRANCH  14  15
ENDBRANCH   1  14
TORSDOF 5
ENDMDL
MODEL 7
REMARK VINA RESULT:      -6.7      4.463      8.581
REMARK  Name = 
REMARK  8 active torsions:
REMARK  status: ('A' for Active; 'I' for Inactive)
REMARK    1  A    between atoms: C_1  and  C_2
REMARK    2  A    between atoms: C_2  and  C_3
REMARK    3  A    between atoms: C_3  and  S_4
REMARK    4  A    between atoms: C_3  and  C_17
REMARK    5  A    between atoms: S_4  and  C_5
REMARK    6  A    between atoms: C_8  and  C_9
REMARK    7  A    between atoms: N_19  and  C_20
REMARK    8  A    between atoms: C_23  and  C_24
REMARK                            x       y       z     vdW  Elec       q    Type
REMARK                         _______ _______ _______ _____ _____    ______ ____
ROOT
ATOM      1  C   UNL     1       4.696   5.447  18.056  0.00  0.00    +0.000 C 
ENDROOT
BRANCH   1   2
ATOM      2  C   UNL     1       4.477   4.158  17.224  0.00  0.00    +0.000 C 
ATOM      3  O   UNL     1       5.304   3.881  16.339  0.00  0.00    +0.000 OA
ATOM      4  N   UNL     1       3.381   3.313  17.441  0.00  0.00    +0.000 N 
ATOM      5  C   UNL     1       3.149   2.265  16.449  0.00  0.00    +0.000 C 
ATOM      6  C   UNL     1       2.674   3.360  18.640  0.00  0.00    +0.000 A 
ATOM      7  N   UNL     1       3.055   3.943  19.751  0.00  0.00    +0.000 NA
ATOM      8  C   UNL     1       2.088   3.830  20.731  0.00  0.00    +0.000 A 
ATOM      9  C   UNL     1       2.330   4.477  22.042  0.00  0.00    +0.000 C 
ATOM     10  C   UNL     1       0.975   3.106  20.356  0.00  0.00    +0.000 A 
ATOM     11  S   UNL     1       1.153   2.562  18.744  0.00  0.00    +0.000 S 
ENDBRANCH   1   2
BRANCH   1  13
ATOM     12  C   UNL     1       7.081   6.455  17.824  0.00  0.00    +0.000 C 
ATOM     13  C   UNL     1       6.147   5.525  18.590  0.00  0.00    +0.000 C 
ENDBRANCH   1  13
BRANCH   1  14
ATOM     14  S   UNL     1       4.211   6.972  17.138  0.00  0.00    +0.000 S 
BRANCH  14  15
ATOM     15  C   UNL     1       2.934   7.662  18.156  0.00  0.00    +0.000 A 
ATOM     16  C   UNL     1       2.409   8.896  17.817  0.00  0.00    +0.000 A 
ATOM     17  C   UNL     1       1.551   9.536  18.710  0.00  0.00    +0.000 A 
ATOM     18  C   UNL     1       1.244   8.930  19.923  0.00  0.00    +0.000 A 
ATOM     19  N   UNL     1       1.769   7.714  20.213  0.00  0.00    +0.000 NA
ATOM     20  N   UNL     1       2.624   7.077  19.328  0.00  0.00    +0.000 NA
BRANCH  18  21
ATOM     21  C   UNL     1       0.415   9.577  20.959  0.00  0.00    +0.000 A 
ATOM     22  C   UNL     1      -0.365  10.718  20.683  0.00  0.00    +0.000 A 
ATOM     23  C   UNL     1      -1.106  11.358  21.683  0.00  0.00    +0.000 A 
ATOM     24  C   UNL     1      -1.090  10.864  22.984  0.00  0.00    +0.000 A 
ATOM     25  C   UNL     1      -0.341   9.730  23.282  0.00  0.00    +0.000 A 
ATOM     26  C   UNL     1       0.400   9.094  22.280  0.00  0.00    +0.000 A 
ENDBRANCH  18  21
ENDBRANCH  14  15
ENDBRANCH   1  14
TORSDOF 5
ENDMDL
MODEL 8
REMARK VINA RESULT:      -6.7      1.071      1.563
REMARK  Name = 
REMARK  8 active torsions:
REMARK  status: ('A' for Active; 'I' for Inactive)
REMARK    1  A    between atoms: C_1  and  C_2
REMARK    2  A    between atoms: C_2  and  C_3
REMARK    3  A    between atoms: C_3  and  S_4
REMARK    4  A    between atoms: C_3  and  C_17
REMARK    5  A    between atoms: S_4  and  C_5
REMARK    6  A    between atoms: C_8  and  C_9
REMARK    7  A    between atoms: N_19  and  C_20
REMARK    8  A    between atoms: C_23  and  C_24
REMARK                            x       y       z     vdW  Elec       q    Type
REMARK                         _______ _______ _______ _____ _____    ______ ____
ROOT
ATOM      1  C   UNL     1       0.116  11.460  20.589  0.00  0.00    +0.000 C 
ENDROOT
BRANCH   1   2
ATOM      2  C   UNL     1      -0.601  12.603  21.353  0.00  0.00    +0.000 C 
ATOM      3  O   UNL     1       0.064  13.288  22.147  0.00  0.00    +0.000 OA
ATOM      4  N   UNL     1      -1.963  12.874  21.174  0.00  0.00    +0.000 N 
ATOM      5  C   UNL     1      -2.580  13.808  22.113  0.00  0.00    +0.000 C 
ATOM      6  C   UNL     1      -2.636  12.416  20.042  0.00  0.00    +0.000 A 
ATOM      7  N   UNL     1      -2.092  11.952  18.943  0.00  0.00    +0.000 NA
ATOM      8  C   UNL     1      -3.058  11.548  18.042  0.00  0.00    +0.000 A 
ATOM      9  C   UNL     1      -2.621  10.947  16.759  0.00  0.00    +0.000 C 
ATOM     10  C   UNL     1      -4.356  11.757  18.460  0.00  0.00    +0.000 A 
ATOM     11  S   UNL     1      -4.355  12.472  20.013  0.00  0.00    +0.000 S 
ENDBRANCH   1   2
BRANCH   1  13
ATOM     12  C   UNL     1       1.303  12.794  18.700  0.00  0.00    +0.000 C 
ATOM     13  C   UNL     1       1.443  11.955  19.965  0.00  0.00    +0.000 C 
ENDBRANCH   1  13
BRANCH   1  14
ATOM     14  S   UNL     1       0.357   9.956  21.631  0.00  0.00    +0.000 S 
BRANCH  14  15
ATOM     15  C   UNL     1       1.053   8.789  20.493  0.00  0.00    +0.000 A 
ATOM     16  C   UNL     1       1.409   7.537  20.960  0.00  0.00    +0.000 A 
ATOM     17  C   UNL     1       2.133   6.683  20.129  0.00  0.00    +0.000 A 
ATOM     18  C   UNL     1       2.489   7.106  18.853  0.00  0.00    +0.000 A 
ATOM     19  N   UNL     1       2.111   8.335  18.427  0.00  0.00    +0.000 NA
ATOM     20  N   UNL     1       1.393   9.186  19.253  0.00  0.00    +0.000 NA
BRANCH  18  21
ATOM     21  C   UNL     1       3.327   6.299  17.944  0.00  0.00    +0.000 A 
ATOM     22  C   UNL     1       3.198   4.898  17.858  0.00  0.00    +0.000 A 
ATOM     23  C   UNL     1       4.032   4.135  17.034  0.00  0.00    +0.000 A 
ATOM     24  C   UNL     1       5.013   4.758  16.269  0.00  0.00    +0.000 A 
ATOM     25  C   UNL     1       5.154   6.141  16.323  0.00  0.00    +0.000 A 
ATOM     26  C   UNL     1       4.319   6.901  17.148  0.00  0.00    +0.000 A 
ENDBRANCH  18  21
ENDBRANCH  14  15
ENDBRANCH   1  14
TORSDOF 5
ENDMDL
MODEL 9
REMARK VINA RESULT:      -6.7      2.469      3.114
REMARK  Name = 
REMARK  8 active torsions:
REMARK  status: ('A' for Active; 'I' for Inactive)
REMARK    1  A    between atoms: C_1  and  C_2
REMARK    2  A    between atoms: C_2  and  C_3
REMARK    3  A    between atoms: C_3  and  S_4
REMARK    4  A    between atoms: C_3  and  C_17
REMARK    5  A    between atoms: S_4  and  C_5
REMARK    6  A    between atoms: C_8  and  C_9
REMARK    7  A    between atoms: N_19  and  C_20
REMARK    8  A    between atoms: C_23  and  C_24
REMARK                            x       y       z     vdW  Elec       q    Type
REMARK                         _______ _______ _______ _____ _____    ______ ____
ROOT
ATOM      1  C   UNL     1       0.327  12.468  19.713  0.00  0.00    +0.000 C 
ENDROOT
BRANCH   1   2
ATOM      2  C   UNL     1       0.027  12.579  21.230  0.00  0.00    +0.000 C 
ATOM      3  O   UNL     1       0.537  11.743  21.993  0.00  0.00    +0.000 OA
ATOM      4  N   UNL     1      -0.797  13.585  21.751  0.00  0.00    +0.000 N 
ATOM      5  C   UNL     1      -1.197  13.451  23.150  0.00  0.00    +0.000 C 
ATOM      6  C   UNL     1      -1.056  14.742  21.019  0.00  0.00    +0.000 A 
ATOM      7  N   UNL     1      -0.410  15.156  19.955  0.00  0.00    +0.000 NA
ATOM      8  C   UNL     1      -0.963  16.321  19.459  0.00  0.00    +0.000 A 
ATOM      9  C   UNL     1      -0.388  16.906  18.225  0.00  0.00    +0.000 C 
ATOM     10  C   UNL     1      -2.020  16.813  20.196  0.00  0.00    +0.000 A 
ATOM     11  S   UNL     1      -2.321  15.789  21.532  0.00  0.00    +0.000 S 
ENDBRANCH   1   2
BRANCH   1  13
ATOM     12  C   UNL     1       2.301  13.245  18.211  0.00  0.00    +0.000 C 
ATOM     13  C   UNL     1       1.851  12.471  19.445  0.00  0.00    +0.000 C 
ENDBRANCH   1  13
BRANCH   1  14
ATOM     14  S   UNL     1      -0.513  11.023  18.931  0.00  0.00    +0.000 S 
BRANCH  14  15
ATOM     15  C   UNL     1       0.737   9.766  18.966  0.00  0.00    +0.000 A 
ATOM     16  C   UNL     1       1.358   9.414  17.782  0.00  0.00    +0.000 A 
ATOM     17  C   UNL     1       2.196   8.300  17.761  0.00  0.00    +0.000 A 
ATOM     18  C   UNL     1       2.387   7.562  18.924  0.00  0.00    +0.000 A 
ATOM     19  N   UNL     1       1.771   7.947  20.068  0.00  0.00    +0.000 NA
ATOM     20  N   UNL     1       0.936   9.053  20.090  0.00  0.00    +0.000 NA
BRANCH  18  21
ATOM     21  C   UNL     1       3.188   6.322  18.967  0.00  0.00    +0.000 A 
ATOM     22  C   UNL     1       4.311   6.131  18.136  0.00  0.00    +0.000 A 
ATOM     23  C   UNL     1       5.032   4.932  18.145  0.00  0.00    +0.000 A 
ATOM     24  C   UNL     1       4.650   3.896  18.993  0.00  0.00    +0.000 A 
ATOM     25  C   UNL     1       3.555   4.062  19.834  0.00  0.00    +0.000 A 
ATOM     26  C   UNL     1       2.835   5.262  19.822  0.00  0.00    +0.000 A 
ENDBRANCH  18  21
ENDBRANCH  14  15
ENDBRANCH   1  14
TORSDOF 5
ENDMDL
