MODEL 1
REMARK VINA RESULT:      -4.7      0.000      0.000
REMARK  Name = 
REMARK  16 active torsions:
REMARK  status: ('A' for Active; 'I' for Inactive)
REMARK    1  A    between atoms: C_1  and  C_2
REMARK    2  A    between atoms: C_2  and  C_3
REMARK    3  A    between atoms: C_3  and  C_4
REMARK    4  A    between atoms: C_4  and  O_5
REMARK    5  A    between atoms: O_5  and  C_6
REMARK    6  A    between atoms: C_6  and  C_7
REMARK    7  A    between atoms: C_7  and  O_8
REMARK    8  A    between atoms: O_8  and  C_9
REMARK    9  A    between atoms: C_9  and  C_10
REMARK   10  A    between atoms: C_10  and  O_11
REMARK   11  A    between atoms: O_11  and  C_12
REMARK   12  A    between atoms: C_12  and  C_13
REMARK   13  A    between atoms: C_13  and  O_14
REMARK   14  A    between atoms: O_14  and  C_15
REMARK   15  A    between atoms: C_15  and  C_16
REMARK   16  A    between atoms: C_16  and  O_17
REMARK                            x       y       z     vdW  Elec       q    Type
REMARK                         _______ _______ _______ _____ _____    ______ ____
ROOT
ATOM      1  C   UNL     1       4.136   4.764  17.384  0.00  0.00    +0.000 C 
ENDROOT
BRANCH   1   2
ATOM      2  O   UNL     1       5.376   4.654  18.077  0.00  0.00    +0.000 OA
BRANCH   2   3
ATOM      3  C   UNL     1       6.478   4.615  17.173  0.00  0.00    +0.000 C 
BRANCH   3   4
ATOM      4  C   UNL     1       6.575   5.955  16.457  0.00  0.00    +0.000 C 
BRANCH   4   5
ATOM      5  O   UNL     1       6.232   5.788  15.082  0.00  0.00    +0.000 OA
BRANCH   5   6
ATOM      6  C   UNL     1       6.980   4.724  14.496  0.00  0.00    +0.000 C 
BRANCH   6   7
ATOM      7  C   UNL     1       6.004   3.692  13.946  0.00  0.00    +0.000 C 
BRANCH   7   9
ATOM      8  C   UNL     1       4.804   3.305  11.764  0.00  0.00    +0.000 C 
ATOM      9  C   UNL     1       6.146   3.550  12.433  0.00  0.00    +0.000 C 
ENDBRANCH   7   9
ENDBRANCH   6   7
ENDBRANCH   5   6
ENDBRANCH   4   5
ENDBRANCH   3   4
ENDBRANCH   2   3
ENDBRANCH   1   2
BRANCH   1  10
ATOM     10  C   UNL     1       3.274   5.815  18.071  0.00  0.00    +0.000 C 
BRANCH  10  11
ATOM     11  O   UNL     1       1.986   5.266  18.340  0.00  0.00    +0.000 OA
BRANCH  11  12
ATOM     12  C   UNL     1       1.803   4.016  17.675  0.00  0.00    +0.000 C 
BRANCH  12  13
ATOM     13  C   UNL     1       1.177   3.025  18.647  0.00  0.00    +0.000 C 
BRANCH  13  14
ATOM     14  O   UNL     1       0.769   3.703  19.836  0.00  0.00    +0.000 OA
BRANCH  14  15
ATOM     15  C   UNL     1       1.134   2.951  21.002  0.00  0.00    +0.000 C 
BRANCH  15  16
ATOM     16  C   UNL     1       2.381   3.579  21.619  0.00  0.00    +0.000 C 
BRANCH  16  17
ATOM     17  O   UNL     1       2.439   4.970  21.310  0.00  0.00    +0.000 OA
ATOM     18  H   UNL     1       2.075   5.421  22.097  0.00  0.00    +0.000 HD
ENDBRANCH  16  17
ENDBRANCH  15  16
ENDBRANCH  14  15
ENDBRANCH  13  14
ENDBRANCH  12  13
ENDBRANCH  11  12
ENDBRANCH  10  11
ENDBRANCH   1  10
TORSDOF 15
ENDMDL
MODEL 2
REMARK VINA RESULT:      -4.7      1.373      2.035
REMARK  Name = 
REMARK  16 active torsions:
REMARK  status: ('A' for Active; 'I' for Inactive)
REMARK    1  A    between atoms: C_1  and  C_2
REMARK    2  A    between atoms: C_2  and  C_3
REMARK    3  A    between atoms: C_3  and  C_4
REMARK    4  A    between atoms: C_4  and  O_5
REMARK    5  A    between atoms: O_5  and  C_6
REMARK    6  A    between atoms: C_6  and  C_7
REMARK    7  A    between atoms: C_7  and  O_8
REMARK    8  A    between atoms: O_8  and  C_9
REMARK    9  A    between atoms: C_9  and  C_10
REMARK   10  A    between atoms: C_10  and  O_11
REMARK   11  A    between atoms: O_11  and  C_12
REMARK   12  A    between atoms: C_12  and  C_13
REMARK   13  A    between atoms: C_13  and  O_14
REMARK   14  A    between atoms: O_14  and  C_15
REMARK   15  A    between atoms: C_15  and  C_16
REMARK   16  A    between atoms: C_16  and  O_17
REMARK                            x       y       z     vdW  Elec       q    Type
REMARK                         _______ _______ _______ _____ _____    ______ ____
ROOT
ATOM      1  C   UNL     1       5.661   5.521  18.808  0.00  0.00    +0.000 C 
ENDROOT
BRANCH   1   2
ATOM      2  O   UNL     1       6.592   4.451  18.671  0.00  0.00    +0.000 OA
BRANCH   2   3
ATOM      3  C   UNL     1       7.664   4.800  17.798  0.00  0.00    +0.000 C 
BRANCH   3   4
ATOM      4  C   UNL     1       7.295   6.076  17.053  0.00  0.00    +0.000 C 
BRANCH   4   5
ATOM      5  O   UNL     1       7.069   5.778  15.677  0.00  0.00    +0.000 OA
BRANCH   5   6
ATOM      6  C   UNL     1       6.837   4.382  15.489  0.00  0.00    +0.000 C 
BRANCH   6   7
ATOM      7  C   UNL     1       6.000   4.196  14.230  0.00  0.00    +0.000 C 
BRANCH   7   9
ATOM      8  C   UNL     1       6.279   3.118  11.970  0.00  0.00    +0.000 C 
ATOM      9  C   UNL     1       6.886   4.062  12.995  0.00  0.00    +0.000 C 
ENDBRANCH   7   9
ENDBRANCH   6   7
ENDBRANCH   5   6
ENDBRANCH   4   5
ENDBRANCH   3   4
ENDBRANCH   2   3
ENDBRANCH   1   2
BRANCH   1  10
ATOM     10  C   UNL     1       4.380   4.987  19.436  0.00  0.00    +0.000 C 
BRANCH  10  11
ATOM     11  O   UNL     1       3.262   5.685  18.892  0.00  0.00    +0.000 OA
BRANCH  11  12
ATOM     12  C   UNL     1       2.414   6.194  19.923  0.00  0.00    +0.000 C 
BRANCH  12  13
ATOM     13  C   UNL     1       1.913   5.032  20.771  0.00  0.00    +0.000 C 
BRANCH  13  14
ATOM     14  O   UNL     1       0.828   4.381  20.109  0.00  0.00    +0.000 OA
BRANCH  14  15
ATOM     15  C   UNL     1       1.072   2.971  19.997  0.00  0.00    +0.000 C 
BRANCH  15  16
ATOM     16  C   UNL     1       1.322   2.632  18.530  0.00  0.00    +0.000 C 
BRANCH  16  17
ATOM     17  O   UNL     1       0.968   3.736  17.700  0.00  0.00    +0.000 OA
ATOM     18  H   UNL     1       1.075   4.526  18.265  0.00  0.00    +0.000 HD
ENDBRANCH  16  17
ENDBRANCH  15  16
ENDBRANCH  14  15
ENDBRANCH  13  14
ENDBRANCH  12  13
ENDBRANCH  11  12
ENDBRANCH  10  11
ENDBRANCH   1  10
TORSDOF 15
ENDMDL
MODEL 3
REMARK VINA RESULT:      -4.6      1.909      6.356
REMARK  Name = 
REMARK  16 active torsions:
REMARK  status: ('A' for Active; 'I' for Inactive)
REMARK    1  A    between atoms: C_1  and  C_2
REMARK    2  A    between atoms: C_2  and  C_3
REMARK    3  A    between atoms: C_3  and  C_4
REMARK    4  A    between atoms: C_4  and  O_5
REMARK    5  A    between atoms: O_5  and  C_6
REMARK    6  A    between atoms: C_6  and  C_7
REMARK    7  A    between atoms: C_7  and  O_8
REMARK    8  A    between atoms: O_8  and  C_9
REMARK    9  A    between atoms: C_9  and  C_10
REMARK   10  A    between atoms: C_10  and  O_11
REMARK   11  A    between atoms: O_11  and  C_12
REMARK   12  A    between atoms: C_12  and  C_13
REMARK   13  A    between atoms: C_13  and  O_14
REMARK   14  A    between atoms: O_14  and  C_15
REMARK   15  A    between atoms: C_15  and  C_16
REMARK   16  A    between atoms: C_16  and  O_17
REMARK                            x       y       z     vdW  Elec       q    Type
REMARK                         _______ _______ _______ _____ _____    ______ ____
ROOT
ATOM      1  C   UNL     1       3.966   5.156  19.613  0.00  0.00    +0.000 C 
ENDROOT
BRANCH   1   2
ATOM      2  O   UNL     1       2.690   5.742  19.373  0.00  0.00    +0.000 OA
BRANCH   2   3
ATOM      3  C   UNL     1       1.845   5.642  20.518  0.00  0.00    +0.000 C 
BRANCH   3   4
ATOM      4  C   UNL     1       2.151   4.337  21.242  0.00  0.00    +0.000 C 
BRANCH   4   5
ATOM      5  O   UNL     1       1.114   3.392  20.981  0.00  0.00    +0.000 OA
BRANCH   5   6
ATOM      6  C   UNL     1       1.609   2.289  20.223  0.00  0.00    +0.000 C 
BRANCH   6   7
ATOM      7  C   UNL     1       1.098   2.415  18.794  0.00  0.00    +0.000 C 
BRANCH   7   9
ATOM      8  C   UNL     1       3.448   1.626  18.339  0.00  0.00    +0.000 C 
ATOM      9  C   UNL     1       2.250   2.386  17.793  0.00  0.00    +0.000 C 
ENDBRANCH   7   9
ENDBRANCH   6   7
ENDBRANCH   5   6
ENDBRANCH   4   5
ENDBRANCH   3   4
ENDBRANCH   2   3
ENDBRANCH   1   2
BRANCH   1  10
ATOM     10  C   UNL     1       5.003   5.849  18.740  0.00  0.00    +0.000 C 
BRANCH  10  11
ATOM     11  O   UNL     1       6.298   5.655  19.302  0.00  0.00    +0.000 OA
BRANCH  11  12
ATOM     12  C   UNL     1       7.322   5.811  18.318  0.00  0.00    +0.000 C 
BRANCH  12  13
ATOM     13  C   UNL     1       7.629   4.452  17.703  0.00  0.00    +0.000 C 
BRANCH  13  14
ATOM     14  O   UNL     1       7.968   4.609  16.324  0.00  0.00    +0.000 OA
BRANCH  14  15
ATOM     15  C   UNL     1       6.807   4.942  15.549  0.00  0.00    +0.000 C 
BRANCH  15  16
ATOM     16  C   UNL     1       5.866   3.741  15.539  0.00  0.00    +0.000 C 
BRANCH  16  17
ATOM     17  O   UNL     1       4.546   4.143  15.901  0.00  0.00    +0.000 OA
ATOM     18  H   UNL     1       4.601   4.378  16.847  0.00  0.00    +0.000 HD
ENDBRANCH  16  17
ENDBRANCH  15  16
ENDBRANCH  14  15
ENDBRANCH  13  14
ENDBRANCH  12  13
ENDBRANCH  11  12
ENDBRANCH  10  11
ENDBRANCH   1  10
TORSDOF 15
ENDMDL
MODEL 4
REMARK VINA RESULT:      -4.6      1.680      2.869
REMARK  Name = 
REMARK  16 active torsions:
REMARK  status: ('A' for Active; 'I' for Inactive)
REMARK    1  A    between atoms: C_1  and  C_2
REMARK    2  A    between atoms: C_2  and  C_3
REMARK    3  A    between atoms: C_3  and  C_4
REMARK    4  A    between atoms: C_4  and  O_5
REMARK    5  A    between atoms: O_5  and  C_6
REMARK    6  A    between atoms: C_6  and  C_7
REMARK    7  A    between atoms: C_7  and  O_8
REMARK    8  A    between atoms: O_8  and  C_9
REMARK    9  A    between atoms: C_9  and  C_10
REMARK   10  A    between atoms: C_10  and  O_11
REMARK   11  A    between atoms: O_11  and  C_12
REMARK   12  A    between atoms: C_12  and  C_13
REMARK   13  A    between atoms: C_13  and  O_14
REMARK   14  A    between atoms: O_14  and  C_15
REMARK   15  A    between atoms: C_15  and  C_16
REMARK   16  A    between atoms: C_16  and  O_17
REMARK                            x       y       z     vdW  Elec       q    Type
REMARK                         _______ _______ _______ _____ _____    ______ ____
ROOT
ATOM      1  C   UNL     1       6.731   6.105  17.381  0.00  0.00    +0.000 C 
ENDROOT
BRANCH   1   2
ATOM      2  O   UNL     1       7.336   6.012  16.094  0.00  0.00    +0.000 OA
BRANCH   2   3
ATOM      3  C   UNL     1       7.217   4.698  15.554  0.00  0.00    +0.000 C 
BRANCH   3   4
ATOM      4  C   UNL     1       6.520   4.783  14.203  0.00  0.00    +0.000 C 
BRANCH   4   5
ATOM      5  O   UNL     1       7.494   4.780  13.161  0.00  0.00    +0.000 OA
BRANCH   5   6
ATOM      6  C   UNL     1       6.962   4.213  11.965  0.00  0.00    +0.000 C 
BRANCH   6   7
ATOM      7  C   UNL     1       5.768   3.341  12.333  0.00  0.00    +0.000 C 
BRANCH   7   9
ATOM      8  C   UNL     1       7.182   1.668  11.089  0.00  0.00    +0.000 C 
ATOM      9  C   UNL     1       5.780   2.032  11.550  0.00  0.00    +0.000 C 
ENDBRANCH   7   9
ENDBRANCH   6   7
ENDBRANCH   5   6
ENDBRANCH   4   5
ENDBRANCH   3   4
ENDBRANCH   2   3
ENDBRANCH   1   2
BRANCH   1  10
ATOM     10  C   UNL     1       7.335   5.044  18.291  0.00  0.00    +0.000 C 
BRANCH  10  11
ATOM     11  O   UNL     1       6.291   4.386  19.005  0.00  0.00    +0.000 OA
BRANCH  11  12
ATOM     12  C   UNL     1       5.005   4.749  18.501  0.00  0.00    +0.000 C 
BRANCH  12  13
ATOM     13  C   UNL     1       4.226   3.481  18.174  0.00  0.00    +0.000 C 
BRANCH  13  14
ATOM     14  O   UNL     1       3.745   2.883  19.379  0.00  0.00    +0.000 OA
BRANCH  14  15
ATOM     15  C   UNL     1       2.375   2.479  19.234  0.00  0.00    +0.000 C 
BRANCH  15  16
ATOM     16  C   UNL     1       1.479   3.585  19.785  0.00  0.00    +0.000 C 
BRANCH  16  17
ATOM     17  O   UNL     1       0.565   3.052  20.741  0.00  0.00    +0.000 OA
ATOM     18  H   UNL     1       1.125   2.684  21.452  0.00  0.00    +0.000 HD
ENDBRANCH  16  17
ENDBRANCH  15  16
ENDBRANCH  14  15
ENDBRANCH  13  14
ENDBRANCH  12  13
ENDBRANCH  11  12
ENDBRANCH  10  11
ENDBRANCH   1  10
TORSDOF 15
ENDMDL
MODEL 5
REMARK VINA RESULT:      -4.6      1.383      1.544
REMARK  Name = 
REMARK  16 active torsions:
REMARK  status: ('A' for Active; 'I' for Inactive)
REMARK    1  A    between atoms: C_1  and  C_2
REMARK    2  A    between atoms: C_2  and  C_3
REMARK    3  A    between atoms: C_3  and  C_4
REMARK    4  A    between atoms: C_4  and  O_5
REMARK    5  A    between atoms: O_5  and  C_6
REMARK    6  A    between atoms: C_6  and  C_7
REMARK    7  A    between atoms: C_7  and  O_8
REMARK    8  A    between atoms: O_8  and  C_9
REMARK    9  A    between atoms: C_9  and  C_10
REMARK   10  A    between atoms: C_10  and  O_11
REMARK   11  A    between atoms: O_11  and  C_12
REMARK   12  A    between atoms: C_12  and  C_13
REMARK   13  A    between atoms: C_13  and  O_14
REMARK   14  A    between atoms: O_14  and  C_15
REMARK   15  A    between atoms: C_15  and  C_16
REMARK   16  A    between atoms: C_16  and  O_17
REMARK                            x       y       z     vdW  Elec       q    Type
REMARK                         _______ _______ _______ _____ _____    ______ ____
ROOT
ATOM      1  C   UNL     1       5.508   4.845  19.103  0.00  0.00    +0.000 C 
ENDROOT
BRANCH   1   2
ATOM      2  O   UNL     1       6.671   5.582  19.469  0.00  0.00    +0.000 OA
BRANCH   2   3
ATOM      3  C   UNL     1       7.308   6.153  18.328  0.00  0.00    +0.000 C 
BRANCH   3   4
ATOM      4  C   UNL     1       7.464   5.078  17.262  0.00  0.00    +0.000 C 
BRANCH   4   5
ATOM      5  O   UNL     1       7.322   5.663  15.969  0.00  0.00    +0.000 OA
BRANCH   5   6
ATOM      6  C   UNL     1       7.109   4.661  14.975  0.00  0.00    +0.000 C 
BRANCH   6   7
ATOM      7  C   UNL     1       5.614   4.554  14.707  0.00  0.00    +0.000 C 
BRANCH   7   9
ATOM      8  C   UNL     1       6.609   3.695  12.558  0.00  0.00    +0.000 C 
ATOM      9  C   UNL     1       5.341   3.851  13.381  0.00  0.00    +0.000 C 
ENDBRANCH   7   9
ENDBRANCH   6   7
ENDBRANCH   5   6
ENDBRANCH   4   5
ENDBRANCH   3   4
ENDBRANCH   2   3
ENDBRANCH   1   2
BRANCH   1  10
ATOM     10  C   UNL     1       4.446   5.813  18.600  0.00  0.00    +0.000 C 
BRANCH  10  11
ATOM     11  O   UNL     1       3.674   5.179  17.583  0.00  0.00    +0.000 OA
BRANCH  11  12
ATOM     12  C   UNL     1       2.339   4.927  18.021  0.00  0.00    +0.000 C 
BRANCH  12  13
ATOM     13  C   UNL     1       2.180   3.438  18.296  0.00  0.00    +0.000 C 
BRANCH  13  14
ATOM     14  O   UNL     1       0.894   3.184  18.865  0.00  0.00    +0.000 OA
BRANCH  14  15
ATOM     15  C   UNL     1       0.832   3.664  20.216  0.00  0.00    +0.000 C 
BRANCH  15  16
ATOM     16  C   UNL     1       1.554   2.670  21.122  0.00  0.00    +0.000 C 
BRANCH  16  17
ATOM     17  O   UNL     1       2.226   3.357  22.175  0.00  0.00    +0.000 OA
ATOM     18  H   UNL     1       1.519   3.801  22.683  0.00  0.00    +0.000 HD
ENDBRANCH  16  17
ENDBRANCH  15  16
ENDBRANCH  14  15
ENDBRANCH  13  14
ENDBRANCH  12  13
ENDBRANCH  11  12
ENDBRANCH  10  11
ENDBRANCH   1  10
TORSDOF 15
ENDMDL
MODEL 6
REMARK VINA RESULT:      -4.5      2.157      7.310
REMARK  Name = 
REMARK  16 active torsions:
REMARK  status: ('A' for Active; 'I' for Inactive)
REMARK    1  A    between atoms: C_1  and  C_2
REMARK    2  A    between atoms: C_2  and  C_3
REMARK    3  A    between atoms: C_3  and  C_4
REMARK    4  A    between atoms: C_4  and  O_5
REMARK    5  A    between atoms: O_5  and  C_6
REMARK    6  A    between atoms: C_6  and  C_7
REMARK    7  A    between atoms: C_7  and  O_8
REMARK    8  A    between atoms: O_8  and  C_9
REMARK    9  A    between atoms: C_9  and  C_10
REMARK   10  A    between atoms: C_10  and  O_11
REMARK   11  A    between atoms: O_11  and  C_12
REMARK   12  A    between atoms: C_12  and  C_13
REMARK   13  A    between atoms: C_13  and  O_14
REMARK   14  A    between atoms: O_14  and  C_15
REMARK   15  A    between atoms: C_15  and  C_16
REMARK   16  A    between atoms: C_16  and  O_17
REMARK                            x       y       z     vdW  Elec       q    Type
REMARK                         _______ _______ _______ _____ _____    ______ ____
ROOT
ATOM      1  C   UNL     1       7.438   4.640  17.066  0.00  0.00    +0.000 C 
ENDROOT
BRANCH   1   2
ATOM      2  O   UNL     1       7.304   4.466  18.474  0.00  0.00    +0.000 OA
BRANCH   2   3
ATOM      3  C   UNL     1       6.037   4.926  18.939  0.00  0.00    +0.000 C 
BRANCH   3   4
ATOM      4  C   UNL     1       5.019   3.805  18.782  0.00  0.00    +0.000 C 
BRANCH   4   5
ATOM      5  O   UNL     1       4.699   3.267  20.064  0.00  0.00    +0.000 OA
BRANCH   5   6
ATOM      6  C   UNL     1       3.533   2.447  19.997  0.00  0.00    +0.000 C 
BRANCH   6   7
ATOM      7  C   UNL     1       2.726   2.647  21.273  0.00  0.00    +0.000 C 
BRANCH   7   9
ATOM      8  C   UNL     1       1.203   4.502  20.508  0.00  0.00    +0.000 C 
ATOM      9  C   UNL     1       1.290   3.053  20.959  0.00  0.00    +0.000 C 
ENDBRANCH   7   9
ENDBRANCH   6   7
ENDBRANCH   5   6
ENDBRANCH   4   5
ENDBRANCH   3   4
ENDBRANCH   2   3
ENDBRANCH   1   2
BRANCH   1  10
ATOM     10  C   UNL     1       6.867   5.997  16.678  0.00  0.00    +0.000 C 
BRANCH  10  11
ATOM     11  O   UNL     1       6.318   5.919  15.365  0.00  0.00    +0.000 OA
BRANCH  11  12
ATOM     12  C   UNL     1       5.677   4.662  15.141  0.00  0.00    +0.000 C 
BRANCH  12  13
ATOM     13  C   UNL     1       6.305   3.994  13.926  0.00  0.00    +0.000 C 
BRANCH  13  14
ATOM     14  O   UNL     1       5.284   3.576  13.019  0.00  0.00    +0.000 OA
BRANCH  14  15
ATOM     15  C   UNL     1       5.827   3.347  11.711  0.00  0.00    +0.000 C 
BRANCH  15  16
ATOM     16  C   UNL     1       5.722   1.858  11.392  0.00  0.00    +0.000 C 
BRANCH  16  17
ATOM     17  O   UNL     1       7.021   1.285  11.264  0.00  0.00    +0.000 OA
ATOM     18  H   UNL     1       6.928   0.588  10.586  0.00  0.00    +0.000 HD
ENDBRANCH  16  17
ENDBRANCH  15  16
ENDBRANCH  14  15
ENDBRANCH  13  14
ENDBRANCH  12  13
ENDBRANCH  11  12
ENDBRANCH  10  11
ENDBRANCH   1  10
TORSDOF 15
ENDMDL
MODEL 7
REMARK VINA RESULT:      -4.5      1.431      2.814
REMARK  Name = 
REMARK  16 active torsions:
REMARK  status: ('A' for Active; 'I' for Inactive)
REMARK    1  A    between atoms: C_1  and  C_2
REMARK    2  A    between atoms: C_2  and  C_3
REMARK    3  A    between atoms: C_3  and  C_4
REMARK    4  A    between atoms: C_4  and  O_5
REMARK    5  A    between atoms: O_5  and  C_6
REMARK    6  A    between atoms: C_6  and  C_7
REMARK    7  A    between atoms: C_7  and  O_8
REMARK    8  A    between atoms: O_8  and  C_9
REMARK    9  A    between atoms: C_9  and  C_10
REMARK   10  A    between atoms: C_10  and  O_11
REMARK   11  A    between atoms: O_11  and  C_12
REMARK   12  A    between atoms: C_12  and  C_13
REMARK   13  A    between atoms: C_13  and  O_14
REMARK   14  A    between atoms: O_14  and  C_15
REMARK   15  A    between atoms: C_15  and  C_16
REMARK   16  A    between atoms: C_16  and  O_17
REMARK                            x       y       z     vdW  Elec       q    Type
REMARK                         _______ _______ _______ _____ _____    ______ ____
ROOT
ATOM      1  C   UNL     1       7.211   4.774  16.909  0.00  0.00    +0.000 C 
ENDROOT
BRANCH   1   2
ATOM      2  O   UNL     1       7.234   5.713  15.838  0.00  0.00    +0.000 OA
BRANCH   2   3
ATOM      3  C   UNL     1       7.347   5.061  14.574  0.00  0.00    +0.000 C 
BRANCH   3   4
ATOM      4  C   UNL     1       6.018   4.398  14.242  0.00  0.00    +0.000 C 
BRANCH   4   5
ATOM      5  O   UNL     1       6.254   3.185  13.529  0.00  0.00    +0.000 OA
BRANCH   5   6
ATOM      6  C   UNL     1       6.306   3.422  12.123  0.00  0.00    +0.000 C 
BRANCH   6   7
ATOM      7  C   UNL     1       5.188   2.631  11.457  0.00  0.00    +0.000 C 
BRANCH   7   9
ATOM      8  C   UNL     1       3.324   3.598  10.063  0.00  0.00    +0.000 C 
ATOM      9  C   UNL     1       3.878   3.415  11.467  0.00  0.00    +0.000 C 
ENDBRANCH   7   9
ENDBRANCH   6   7
ENDBRANCH   5   6
ENDBRANCH   4   5
ENDBRANCH   3   4
ENDBRANCH   2   3
ENDBRANCH   1   2
BRANCH   1  10
ATOM     10  C   UNL     1       6.834   5.496  18.195  0.00  0.00    +0.000 C 
BRANCH  10  11
ATOM     11  O   UNL     1       5.552   5.047  18.629  0.00  0.00    +0.000 OA
BRANCH  11  12
ATOM     12  C   UNL     1       5.063   3.990  17.803  0.00  0.00    +0.000 C 
BRANCH  12  13
ATOM     13  C   UNL     1       3.610   4.273  17.445  0.00  0.00    +0.000 C 
BRANCH  13  14
ATOM     14  O   UNL     1       2.745   3.529  18.305  0.00  0.00    +0.000 OA
BRANCH  14  15
ATOM     15  C   UNL     1       1.820   4.401  18.974  0.00  0.00    +0.000 C 
BRANCH  15  16
ATOM     16  C   UNL     1       2.388   4.756  20.345  0.00  0.00    +0.000 C 
BRANCH  16  17
ATOM     17  O   UNL     1       3.178   5.940  20.262  0.00  0.00    +0.000 OA
ATOM     18  H   UNL     1       3.764   5.803  19.493  0.00  0.00    +0.000 HD
ENDBRANCH  16  17
ENDBRANCH  15  16
ENDBRANCH  14  15
ENDBRANCH  13  14
ENDBRANCH  12  13
ENDBRANCH  11  12
ENDBRANCH  10  11
ENDBRANCH   1  10
TORSDOF 15
ENDMDL
MODEL 8
REMARK VINA RESULT:      -4.5      2.195      3.224
REMARK  Name = 
REMARK  16 active torsions:
REMARK  status: ('A' for Active; 'I' for Inactive)
REMARK    1  A    between atoms: C_1  and  C_2
REMARK    2  A    between atoms: C_2  and  C_3
REMARK    3  A    between atoms: C_3  and  C_4
REMARK    4  A    between atoms: C_4  and  O_5
REMARK    5  A    between atoms: O_5  and  C_6
REMARK    6  A    between atoms: C_6  and  C_7
REMARK    7  A    between atoms: C_7  and  O_8
REMARK    8  A    between atoms: O_8  and  C_9
REMARK    9  A    between atoms: C_9  and  C_10
REMARK   10  A    between atoms: C_10  and  O_11
REMARK   11  A    between atoms: O_11  and  C_12
REMARK   12  A    between atoms: C_12  and  C_13
REMARK   13  A    between atoms: C_13  and  O_14
REMARK   14  A    between atoms: O_14  and  C_15
REMARK   15  A    between atoms: C_15  and  C_16
REMARK   16  A    between atoms: C_16  and  O_17
REMARK                            x       y       z     vdW  Elec       q    Type
REMARK                         _______ _______ _______ _____ _____    ______ ____
ROOT
ATOM      1  C   UNL     1       4.653   3.930  19.596  0.00  0.00    +0.000 C 
ENDROOT
BRANCH   1   2
ATOM      2  O   UNL     1       3.584   4.862  19.456  0.00  0.00    +0.000 OA
BRANCH   2   3
ATOM      3  C   UNL     1       4.035   6.094  18.896  0.00  0.00    +0.000 C 
BRANCH   3   4
ATOM      4  C   UNL     1       3.742   6.091  17.402  0.00  0.00    +0.000 C 
BRANCH   4   5
ATOM      5  O   UNL     1       4.938   6.380  16.680  0.00  0.00    +0.000 OA
BRANCH   5   6
ATOM      6  C   UNL     1       5.514   5.187  16.149  0.00  0.00    +0.000 C 
BRANCH   6   7
ATOM      7  C   UNL     1       7.030   5.292  16.258  0.00  0.00    +0.000 C 
BRANCH   7   9
ATOM      8  C   UNL     1       7.729   5.659  18.651  0.00  0.00    +0.000 C 
ATOM      9  C   UNL     1       7.536   4.638  17.541  0.00  0.00    +0.000 C 
ENDBRANCH   7   9
ENDBRANCH   6   7
ENDBRANCH   5   6
ENDBRANCH   4   5
ENDBRANCH   3   4
ENDBRANCH   2   3
ENDBRANCH   1   2
BRANCH   1  10
ATOM     10  C   UNL     1       4.167   2.550  19.175  0.00  0.00    +0.000 C 
BRANCH  10  11
ATOM     11  O   UNL     1       3.788   2.583  17.801  0.00  0.00    +0.000 OA
BRANCH  11  12
ATOM     12  C   UNL     1       2.380   2.404  17.644  0.00  0.00    +0.000 C 
BRANCH  12  13
ATOM     13  C   UNL     1       1.803   1.858  18.944  0.00  0.00    +0.000 C 
BRANCH  13  14
ATOM     14  O   UNL     1       0.617   2.577  19.287  0.00  0.00    +0.000 OA
BRANCH  14  15
ATOM     15  C   UNL     1       0.850   3.434  20.415  0.00  0.00    +0.000 C 
BRANCH  15  16
ATOM     16  C   UNL     1       1.360   2.585  21.576  0.00  0.00    +0.000 C 
BRANCH  16  17
ATOM     17  O   UNL     1       2.419   3.257  22.254  0.00  0.00    +0.000 OA
ATOM     18  H   UNL     1       2.874   2.564  22.770  0.00  0.00    +0.000 HD
ENDBRANCH  16  17
ENDBRANCH  15  16
ENDBRANCH  14  15
ENDBRANCH  13  14
ENDBRANCH  12  13
ENDBRANCH  11  12
ENDBRANCH  10  11
ENDBRANCH   1  10
TORSDOF 15
ENDMDL
MODEL 9
REMARK VINA RESULT:      -4.5      1.648      2.198
REMARK  Name = 
REMARK  16 active torsions:
REMARK  status: ('A' for Active; 'I' for Inactive)
REMARK    1  A    between atoms: C_1  and  C_2
REMARK    2  A    between atoms: C_2  and  C_3
REMARK    3  A    between atoms: C_3  and  C_4
REMARK    4  A    between atoms: C_4  and  O_5
REMARK    5  A    between atoms: O_5  and  C_6
REMARK    6  A    between atoms: C_6  and  C_7
REMARK    7  A    between atoms: C_7  and  O_8
REMARK    8  A    between atoms: O_8  and  C_9
REMARK    9  A    between atoms: C_9  and  C_10
REMARK   10  A    between atoms: C_10  and  O_11
REMARK   11  A    between atoms: O_11  and  C_12
REMARK   12  A    between atoms: C_12  and  C_13
REMARK   13  A    between atoms: C_13  and  O_14
REMARK   14  A    between atoms: O_14  and  C_15
REMARK   15  A    between atoms: C_15  and  C_16
REMARK   16  A    between atoms: C_16  and  O_17
REMARK                            x       y       z     vdW  Elec       q    Type
REMARK                         _______ _______ _______ _____ _____    ______ ____
ROOT
ATOM      1  C   UNL     1       5.579   6.486  17.502  0.00  0.00    +0.000 C 
ENDROOT
BRANCH   1   2
ATOM      2  O   UNL     1       5.344   6.032  16.172  0.00  0.00    +0.000 OA
BRANCH   2   3
ATOM      3  C   UNL     1       5.614   4.638  16.040  0.00  0.00    +0.000 C 
BRANCH   3   4
ATOM      4  C   UNL     1       6.942   4.460  15.317  0.00  0.00    +0.000 C 
BRANCH   4   5
ATOM      5  O   UNL     1       6.784   4.794  13.939  0.00  0.00    +0.000 OA
BRANCH   5   6
ATOM      6  C   UNL     1       5.787   3.977  13.327  0.00  0.00    +0.000 C 
BRANCH   6   7
ATOM      7  C   UNL     1       6.449   3.135  12.244  0.00  0.00    +0.000 C 
BRANCH   7   9
ATOM      8  C   UNL     1       4.114   3.173  11.296  0.00  0.00    +0.000 C 
ATOM      9  C   UNL     1       5.408   2.384  11.418  0.00  0.00    +0.000 C 
ENDBRANCH   7   9
ENDBRANCH   6   7
ENDBRANCH   5   6
ENDBRANCH   4   5
ENDBRANCH   3   4
ENDBRANCH   2   3
ENDBRANCH   1   2
BRANCH   1  10
ATOM     10  C   UNL     1       5.934   5.293  18.378  0.00  0.00    +0.000 C 
BRANCH  10  11
ATOM     11  O   UNL     1       5.240   5.397  19.619  0.00  0.00    +0.000 OA
BRANCH  11  12
ATOM     12  C   UNL     1       4.016   4.661  19.595  0.00  0.00    +0.000 C 
BRANCH  12  13
ATOM     13  C   UNL     1       2.862   5.609  19.892  0.00  0.00    +0.000 C 
BRANCH  13  14
ATOM     14  O   UNL     1       2.075   5.095  20.968  0.00  0.00    +0.000 OA
BRANCH  14  15
ATOM     15  C   UNL     1       1.139   4.117  20.491  0.00  0.00    +0.000 C 
BRANCH  15  16
ATOM     16  C   UNL     1       1.379   2.807  21.236  0.00  0.00    +0.000 C 
BRANCH  16  17
ATOM     17  O   UNL     1       2.361   2.988  22.253  0.00  0.00    +0.000 OA
ATOM     18  H   UNL     1       2.797   3.836  22.039  0.00  0.00    +0.000 HD
ENDBRANCH  16  17
ENDBRANCH  15  16
ENDBRANCH  14  15
ENDBRANCH  13  14
ENDBRANCH  12  13
ENDBRANCH  11  12
ENDBRANCH  10  11
ENDBRANCH   1  10
TORSDOF 15
ENDMDL
