MODEL 1
REMARK VINA RESULT:      -8.2      0.000      0.000
REMARK  Name = 
REMARK  6 active torsions:
REMARK  status: ('A' for Active; 'I' for Inactive)
REMARK    1  A    between atoms: C_1  and  N_2
REMARK    2  A    between atoms: C_13  and  S_14
REMARK    3  A    between atoms: S_14  and  C_15
REMARK    4  A    between atoms: C_15  and  C_16
REMARK    5  A    between atoms: C_16  and  N_17
REMARK    6  A    between atoms: N_17  and  C_18
REMARK                            x       y       z     vdW  Elec       q    Type
REMARK                         _______ _______ _______ _____ _____    ______ ____
ROOT
ATOM      1  S   UNL     1       2.948   2.726  20.685  0.00  0.00    +0.000 S 
ENDROOT
BRANCH   1  14
ATOM      2  C   UNL     1       6.922   5.820  18.405  0.00  0.00    +0.000 C 
ATOM      3  N   UNL     1       6.140   5.023  17.475  0.00  0.00    +0.000 N 
ATOM      4  C   UNL     1       6.455   4.856  16.137  0.00  0.00    +0.000 A 
ATOM      5  C   UNL     1       7.546   5.320  15.354  0.00  0.00    +0.000 A 
ATOM      6  C   UNL     1       7.603   4.963  14.015  0.00  0.00    +0.000 A 
ATOM      7  C   UNL     1       6.615   4.173  13.443  0.00  0.00    +0.000 A 
ATOM      8 BR   UNL     1       6.730   3.689  11.623  0.00  0.00    +0.000 Br
ATOM      9  C   UNL     1       5.530   3.717  14.229  0.00  0.00    +0.000 A 
ATOM     10  C   UNL     1       5.447   4.055  15.584  0.00  0.00    +0.000 A 
ATOM     11  C   UNL     1       4.533   3.731  16.645  0.00  0.00    +0.000 A 
ATOM     12  N   UNL     1       3.409   2.967  16.694  0.00  0.00    +0.000 NA
ATOM     13  N   UNL     1       2.867   2.742  17.925  0.00  0.00    +0.000 NA
ATOM     14  C   UNL     1       3.409   3.304  19.034  0.00  0.00    +0.000 A 
ATOM     15  N   UNL     1       4.474   4.156  19.036  0.00  0.00    +0.000 NA
ATOM     16  C   UNL     1       5.000   4.331  17.808  0.00  0.00    +0.000 A 
ENDBRANCH   1  14
BRANCH   1  17
ATOM     17  C   UNL     1       1.931   3.993  21.560  0.00  0.00    +0.000 C 
BRANCH  17  18
ATOM     18  C   UNL     1       1.506   5.303  20.828  0.00  0.00    +0.000 C 
BRANCH  18  19
ATOM     19  N   UNL     1       2.545   6.351  20.502  0.00  0.00    +0.000 N 
ATOM     20  H   UNL     1       3.077   6.596  21.336  0.00  0.00    +0.000 HD
BRANCH  19  21
ATOM     21  C   UNL     1       2.066   7.570  19.893  0.00  0.00    +0.000 A 
ATOM     22  C   UNL     1       2.300   7.777  18.536  0.00  0.00    +0.000 A 
ATOM     23  C   UNL     1       2.054   9.011  17.999  0.00  0.00    +0.000 A 
ATOM     24  N   UNL     1       1.054   9.767  18.434  0.00  0.00    +0.000 NA
ATOM     25  C   UNL     1       0.701   9.584  19.699  0.00  0.00    +0.000 A 
ATOM     26  C   UNL     1      -0.250  10.488  20.123  0.00  0.00    +0.000 A 
ATOM     27  C   UNL     1      -0.504  10.662  21.452  0.00  0.00    +0.000 A 
ATOM     28 CL   UNL     1      -1.639  11.860  21.964  0.00  0.00    +0.000 Cl
ATOM     29  C   UNL     1       0.205   9.888  22.396  0.00  0.00    +0.000 A 
ATOM     30  C   UNL     1       1.056   8.866  21.950  0.00  0.00    +0.000 A 
ATOM     31  C   UNL     1       1.308   8.624  20.562  0.00  0.00    +0.000 A 
ENDBRANCH  19  21
ENDBRANCH  18  19
ENDBRANCH  17  18
ENDBRANCH   1  17
TORSDOF 5
ENDMDL
MODEL 2
REMARK VINA RESULT:      -8.1      4.360      9.113
REMARK  Name = 
REMARK  6 active torsions:
REMARK  status: ('A' for Active; 'I' for Inactive)
REMARK    1  A    between atoms: C_1  and  N_2
REMARK    2  A    between atoms: C_13  and  S_14
REMARK    3  A    between atoms: S_14  and  C_15
REMARK    4  A    between atoms: C_15  and  C_16
REMARK    5  A    between atoms: C_16  and  N_17
REMARK    6  A    between atoms: N_17  and  C_18
REMARK                            x       y       z     vdW  Elec       q    Type
REMARK                         _______ _______ _______ _____ _____    ______ ____
ROOT
ATOM      1  S   UNL     1       3.395   6.520  17.949  0.00  0.00    +0.000 S 
ENDROOT
BRANCH   1  14
ATOM      2  C   UNL     1       0.592   8.799  22.135  0.00  0.00    +0.000 C 
ATOM      3  N   UNL     1       0.725   9.627  20.948  0.00  0.00    +0.000 N 
ATOM      4  C   UNL     1       0.376  10.965  20.890  0.00  0.00    +0.000 A 
ATOM      5  C   UNL     1      -0.122  11.860  21.875  0.00  0.00    +0.000 A 
ATOM      6  C   UNL     1      -0.361  13.178  21.516  0.00  0.00    +0.000 A 
ATOM      7  C   UNL     1      -0.129  13.621  20.221  0.00  0.00    +0.000 A 
ATOM      8 BR   UNL     1      -0.449  15.424  19.768  0.00  0.00    +0.000 Br
ATOM      9  C   UNL     1       0.364  12.723  19.245  0.00  0.00    +0.000 A 
ATOM     10  C   UNL     1       0.623  11.388  19.576  0.00  0.00    +0.000 A 
ATOM     11  C   UNL     1       1.153  10.261  18.861  0.00  0.00    +0.000 A 
ATOM     12  N   UNL     1       1.596  10.103  17.585  0.00  0.00    +0.000 NA
ATOM     13  N   UNL     1       2.195   8.916  17.280  0.00  0.00    +0.000 NA
ATOM     14  C   UNL     1       2.291   7.930  18.207  0.00  0.00    +0.000 A 
ATOM     15  N   UNL     1       1.779   7.994  19.469  0.00  0.00    +0.000 NA
ATOM     16  C   UNL     1       1.222   9.190  19.743  0.00  0.00    +0.000 A 
ENDBRANCH   1  14
BRANCH   1  17
ATOM     17  C   UNL     1       3.703   5.632  19.537  0.00  0.00    +0.000 C 
BRANCH  17  18
ATOM     18  C   UNL     1       4.206   4.156  19.528  0.00  0.00    +0.000 C 
BRANCH  18  19
ATOM     19  N   UNL     1       5.648   3.857  19.185  0.00  0.00    +0.000 N 
ATOM     20  H   UNL     1       6.224   3.874  20.025  0.00  0.00    +0.000 HD
BRANCH  19  21
ATOM     21  C   UNL     1       6.265   4.704  18.192  0.00  0.00    +0.000 A 
ATOM     22  C   UNL     1       7.062   5.763  18.617  0.00  0.00    +0.000 A 
ATOM     23  C   UNL     1       7.467   6.701  17.706  0.00  0.00    +0.000 A 
ATOM     24  N   UNL     1       7.739   6.369  16.449  0.00  0.00    +0.000 NA
ATOM     25  C   UNL     1       7.086   5.317  15.976  0.00  0.00    +0.000 A 
ATOM     26  C   UNL     1       7.315   5.108  14.632  0.00  0.00    +0.000 A 
ATOM     27  C   UNL     1       6.505   4.286  13.906  0.00  0.00    +0.000 A 
ATOM     28 CL   UNL     1       6.759   4.105  12.207  0.00  0.00    +0.000 Cl
ATOM     29  C   UNL     1       5.435   3.628  14.551  0.00  0.00    +0.000 A 
ATOM     30  C   UNL     1       5.305   3.726  15.944  0.00  0.00    +0.000 A 
ATOM     31  C   UNL     1       6.167   4.542  16.743  0.00  0.00    +0.000 A 
ENDBRANCH  19  21
ENDBRANCH  18  19
ENDBRANCH  17  18
ENDBRANCH   1  17
TORSDOF 5
ENDMDL
MODEL 3
REMARK VINA RESULT:      -8.1      3.816      8.364
REMARK  Name = 
REMARK  6 active torsions:
REMARK  status: ('A' for Active; 'I' for Inactive)
REMARK    1  A    between atoms: C_1  and  N_2
REMARK    2  A    between atoms: C_13  and  S_14
REMARK    3  A    between atoms: S_14  and  C_15
REMARK    4  A    between atoms: C_15  and  C_16
REMARK    5  A    between atoms: C_16  and  N_17
REMARK    6  A    between atoms: N_17  and  C_18
REMARK                            x       y       z     vdW  Elec       q    Type
REMARK                         _______ _______ _______ _____ _____    ______ ____
ROOT
ATOM      1  S   UNL     1       3.160   5.711  19.496  0.00  0.00    +0.000 S 
ENDROOT
BRANCH   1  14
ATOM      2  C   UNL     1       0.358   9.185  22.758  0.00  0.00    +0.000 C 
ATOM      3  N   UNL     1       0.623   9.668  21.414  0.00  0.00    +0.000 N 
ATOM      4  C   UNL     1       0.395  10.967  20.994  0.00  0.00    +0.000 A 
ATOM      5  C   UNL     1      -0.072  12.118  21.683  0.00  0.00    +0.000 A 
ATOM      6  C   UNL     1      -0.177  13.313  20.987  0.00  0.00    +0.000 A 
ATOM      7  C   UNL     1       0.159  13.390  19.642  0.00  0.00    +0.000 A 
ATOM      8 BR   UNL     1       0.021  15.034  18.726  0.00  0.00    +0.000 Br
ATOM      9  C   UNL     1       0.620  12.238  18.962  0.00  0.00    +0.000 A 
ATOM     10  C   UNL     1       0.744  11.019  19.638  0.00  0.00    +0.000 A 
ATOM     11  C   UNL     1       1.210   9.710  19.271  0.00  0.00    +0.000 A 
ATOM     12  N   UNL     1       1.702   9.197  18.111  0.00  0.00    +0.000 NA
ATOM     13  N   UNL     1       2.209   7.933  18.160  0.00  0.00    +0.000 NA
ATOM     14  C   UNL     1       2.172   7.215  19.309  0.00  0.00    +0.000 A 
ATOM     15  N   UNL     1       1.604   7.638  20.475  0.00  0.00    +0.000 NA
ATOM     16  C   UNL     1       1.140   8.900  20.397  0.00  0.00    +0.000 A 
ENDBRANCH   1  14
BRANCH   1  17
ATOM     17  C   UNL     1       2.291   4.261  18.754  0.00  0.00    +0.000 C 
BRANCH  17  18
ATOM     18  C   UNL     1       3.102   3.150  18.019  0.00  0.00    +0.000 C 
BRANCH  18  19
ATOM     19  N   UNL     1       4.614   3.176  18.057  0.00  0.00    +0.000 N 
ATOM     20  H   UNL     1       4.943   3.302  19.013  0.00  0.00    +0.000 HD
BRANCH  19  21
ATOM     21  C   UNL     1       5.265   4.153  17.217  0.00  0.00    +0.000 A 
ATOM     22  C   UNL     1       4.914   4.219  15.871  0.00  0.00    +0.000 A 
ATOM     23  C   UNL     1       5.673   4.976  15.021  0.00  0.00    +0.000 A 
ATOM     24  N   UNL     1       6.243   6.106  15.424  0.00  0.00    +0.000 NA
ATOM     25  C   UNL     1       6.542   6.172  16.714  0.00  0.00    +0.000 A 
ATOM     26  C   UNL     1       7.246   7.311  17.040  0.00  0.00    +0.000 A 
ATOM     27  C   UNL     1       7.907   7.407  18.229  0.00  0.00    +0.000 A 
ATOM     28 CL   UNL     1       8.853   8.810  18.580  0.00  0.00    +0.000 Cl
ATOM     29  C   UNL     1       7.845   6.331  19.140  0.00  0.00    +0.000 A 
ATOM     30  C   UNL     1       7.003   5.244  18.867  0.00  0.00    +0.000 A 
ATOM     31  C   UNL     1       6.257   5.133  17.650  0.00  0.00    +0.000 A 
ENDBRANCH  19  21
ENDBRANCH  18  19
ENDBRANCH  17  18
ENDBRANCH   1  17
TORSDOF 5
ENDMDL
MODEL 4
REMARK VINA RESULT:      -7.8      4.227      8.818
REMARK  Name = 
REMARK  6 active torsions:
REMARK  status: ('A' for Active; 'I' for Inactive)
REMARK    1  A    between atoms: C_1  and  N_2
REMARK    2  A    between atoms: C_13  and  S_14
REMARK    3  A    between atoms: S_14  and  C_15
REMARK    4  A    between atoms: C_15  and  C_16
REMARK    5  A    between atoms: C_16  and  N_17
REMARK    6  A    between atoms: N_17  and  C_18
REMARK                            x       y       z     vdW  Elec       q    Type
REMARK                         _______ _______ _______ _____ _____    ______ ____
ROOT
ATOM      1  S   UNL     1       2.545   6.044  18.871  0.00  0.00    +0.000 S 
ENDROOT
BRANCH   1  14
ATOM      2  C   UNL     1       1.641  11.468  18.303  0.00  0.00    +0.000 C 
ATOM      3  N   UNL     1       1.027  10.851  19.467  0.00  0.00    +0.000 N 
ATOM      4  C   UNL     1       0.108  11.482  20.288  0.00  0.00    +0.000 A 
ATOM      5  C   UNL     1      -0.490  12.769  20.230  0.00  0.00    +0.000 A 
ATOM      6  C   UNL     1      -1.414  13.118  21.204  0.00  0.00    +0.000 A 
ATOM      7  C   UNL     1      -1.748  12.235  22.223  0.00  0.00    +0.000 A 
ATOM      8 BR   UNL     1      -3.020  12.733  23.524  0.00  0.00    +0.000 Br
ATOM      9  C   UNL     1      -1.145  10.957  22.275  0.00  0.00    +0.000 A 
ATOM     10  C   UNL     1      -0.214  10.571  21.304  0.00  0.00    +0.000 A 
ATOM     11  C   UNL     1       0.527   9.368  21.044  0.00  0.00    +0.000 A 
ATOM     12  N   UNL     1       0.578   8.162  21.672  0.00  0.00    +0.000 NA
ATOM     13  N   UNL     1       1.281   7.172  21.052  0.00  0.00    +0.000 NA
ATOM     14  C   UNL     1       1.934   7.410  19.888  0.00  0.00    +0.000 A 
ATOM     15  N   UNL     1       2.001   8.621  19.265  0.00  0.00    +0.000 NA
ATOM     16  C   UNL     1       1.273   9.567  19.890  0.00  0.00    +0.000 A 
ENDBRANCH   1  14
BRANCH   1  17
ATOM     17  C   UNL     1       3.649   4.940  19.854  0.00  0.00    +0.000 C 
BRANCH  17  18
ATOM     18  C   UNL     1       4.002   3.513  19.332  0.00  0.00    +0.000 C 
BRANCH  18  19
ATOM     19  N   UNL     1       5.261   3.301  18.522  0.00  0.00    +0.000 N 
ATOM     20  H   UNL     1       6.059   3.149  19.137  0.00  0.00    +0.000 HD
BRANCH  19  21
ATOM     21  C   UNL     1       5.605   4.339  17.578  0.00  0.00    +0.000 A 
ATOM     22  C   UNL     1       4.992   4.337  16.328  0.00  0.00    +0.000 A 
ATOM     23  C   UNL     1       5.467   5.171  15.352  0.00  0.00    +0.000 A 
ATOM     24  N   UNL     1       5.956   6.370  15.646  0.00  0.00    +0.000 NA
ATOM     25  C   UNL     1       6.492   6.494  16.852  0.00  0.00    +0.000 A 
ATOM     26  C   UNL     1       7.095   7.720  17.043  0.00  0.00    +0.000 A 
ATOM     27  C   UNL     1       7.958   7.918  18.080  0.00  0.00    +0.000 A 
ATOM     28 CL   UNL     1       8.768   9.435  18.251  0.00  0.00    +0.000 Cl
ATOM     29  C   UNL     1       8.214   6.858  18.977  0.00  0.00    +0.000 A 
ATOM     30  C   UNL     1       7.480   5.668  18.864  0.00  0.00    +0.000 A 
ATOM     31  C   UNL     1       6.530   5.444  17.817  0.00  0.00    +0.000 A 
ENDBRANCH  19  21
ENDBRANCH  18  19
ENDBRANCH  17  18
ENDBRANCH   1  17
TORSDOF 5
ENDMDL
MODEL 5
REMARK VINA RESULT:      -7.8      3.474      7.530
REMARK  Name = 
REMARK  6 active torsions:
REMARK  status: ('A' for Active; 'I' for Inactive)
REMARK    1  A    between atoms: C_1  and  N_2
REMARK    2  A    between atoms: C_13  and  S_14
REMARK    3  A    between atoms: S_14  and  C_15
REMARK    4  A    between atoms: C_15  and  C_16
REMARK    5  A    between atoms: C_16  and  N_17
REMARK    6  A    between atoms: N_17  and  C_18
REMARK                            x       y       z     vdW  Elec       q    Type
REMARK                         _______ _______ _______ _____ _____    ______ ____
ROOT
ATOM      1  S   UNL     1       2.587   4.053  20.830  0.00  0.00    +0.000 S 
ENDROOT
BRANCH   1  14
ATOM      2  C   UNL     1      -0.345   8.505  22.297  0.00  0.00    +0.000 C 
ATOM      3  N   UNL     1       0.506   8.674  21.132  0.00  0.00    +0.000 N 
ATOM      4  C   UNL     1       0.758   9.891  20.523  0.00  0.00    +0.000 A 
ATOM      5  C   UNL     1       0.348  11.214  20.839  0.00  0.00    +0.000 A 
ATOM      6  C   UNL     1       0.789  12.257  20.039  0.00  0.00    +0.000 A 
ATOM      7  C   UNL     1       1.611  12.021  18.944  0.00  0.00    +0.000 A 
ATOM      8 BR   UNL     1       2.208  13.463  17.884  0.00  0.00    +0.000 Br
ATOM      9  C   UNL     1       2.012  10.701  18.634  0.00  0.00    +0.000 A 
ATOM     10  C   UNL     1       1.590   9.627  19.426  0.00  0.00    +0.000 A 
ATOM     11  C   UNL     1       1.843   8.213  19.418  0.00  0.00    +0.000 A 
ATOM     12  N   UNL     1       2.600   7.415  18.616  0.00  0.00    +0.000 NA
ATOM     13  N   UNL     1       2.745   6.114  18.999  0.00  0.00    +0.000 NA
ATOM     14  C   UNL     1       2.116   5.642  20.103  0.00  0.00    +0.000 A 
ATOM     15  N   UNL     1       1.269   6.367  20.888  0.00  0.00    +0.000 NA
ATOM     16  C   UNL     1       1.172   7.653  20.498  0.00  0.00    +0.000 A 
ENDBRANCH   1  14
BRANCH   1  17
ATOM     17  C   UNL     1       2.582   2.723  19.552  0.00  0.00    +0.000 C 
BRANCH  17  18
ATOM     18  C   UNL     1       3.734   2.634  18.504  0.00  0.00    +0.000 C 
BRANCH  18  19
ATOM     19  N   UNL     1       5.034   3.365  18.756  0.00  0.00    +0.000 N 
ATOM     20  H   UNL     1       5.018   3.814  19.670  0.00  0.00    +0.000 HD
BRANCH  19  21
ATOM     21  C   UNL     1       5.425   4.347  17.772  0.00  0.00    +0.000 A 
ATOM     22  C   UNL     1       4.812   4.323  16.522  0.00  0.00    +0.000 A 
ATOM     23  C   UNL     1       5.324   5.093  15.514  0.00  0.00    +0.000 A 
ATOM     24  N   UNL     1       5.868   6.280  15.760  0.00  0.00    +0.000 NA
ATOM     25  C   UNL     1       6.409   6.428  16.961  0.00  0.00    +0.000 A 
ATOM     26  C   UNL     1       7.068   7.631  17.103  0.00  0.00    +0.000 A 
ATOM     27  C   UNL     1       7.940   7.831  18.132  0.00  0.00    +0.000 A 
ATOM     28 CL   UNL     1       8.819   9.315  18.243  0.00  0.00    +0.000 Cl
ATOM     29  C   UNL     1       8.147   6.797  19.071  0.00  0.00    +0.000 A 
ATOM     30  C   UNL     1       7.359   5.639  19.006  0.00  0.00    +0.000 A 
ATOM     31  C   UNL     1       6.400   5.417  17.967  0.00  0.00    +0.000 A 
ENDBRANCH  19  21
ENDBRANCH  18  19
ENDBRANCH  17  18
ENDBRANCH   1  17
TORSDOF 5
ENDMDL
MODEL 6
REMARK VINA RESULT:      -7.8      4.830      9.998
REMARK  Name = 
REMARK  6 active torsions:
REMARK  status: ('A' for Active; 'I' for Inactive)
REMARK    1  A    between atoms: C_1  and  N_2
REMARK    2  A    between atoms: C_13  and  S_14
REMARK    3  A    between atoms: S_14  and  C_15
REMARK    4  A    between atoms: C_15  and  C_16
REMARK    5  A    between atoms: C_16  and  N_17
REMARK    6  A    between atoms: N_17  and  C_18
REMARK                            x       y       z     vdW  Elec       q    Type
REMARK                         _______ _______ _______ _____ _____    ______ ____
ROOT
ATOM      1  S   UNL     1       2.345   7.447  19.142  0.00  0.00    +0.000 S 
ENDROOT
BRANCH   1  14
ATOM      2  C   UNL     1      -0.023  12.423  18.702  0.00  0.00    +0.000 C 
ATOM      3  N   UNL     1      -0.276  11.720  19.948  0.00  0.00    +0.000 N 
ATOM      4  C   UNL     1      -1.195  12.127  20.899  0.00  0.00    +0.000 A 
ATOM      5  C   UNL     1      -2.112  13.211  20.930  0.00  0.00    +0.000 A 
ATOM      6  C   UNL     1      -2.941  13.352  22.033  0.00  0.00    +0.000 A 
ATOM      7  C   UNL     1      -2.877  12.458  23.094  0.00  0.00    +0.000 A 
ATOM      8 BR   UNL     1      -4.030  12.666  24.573  0.00  0.00    +0.000 Br
ATOM      9  C   UNL     1      -1.959  11.382  23.057  0.00  0.00    +0.000 A 
ATOM     10  C   UNL     1      -1.114  11.209  21.956  0.00  0.00    +0.000 A 
ATOM     11  C   UNL     1      -0.130  10.228  21.589  0.00  0.00    +0.000 A 
ATOM     12  N   UNL     1       0.327   9.105  22.205  0.00  0.00    +0.000 NA
ATOM     13  N   UNL     1       1.166   8.304  21.488  0.00  0.00    +0.000 NA
ATOM     14  C   UNL     1       1.555   8.652  20.237  0.00  0.00    +0.000 A 
ATOM     15  N   UNL     1       1.209   9.811  19.606  0.00  0.00    +0.000 NA
ATOM     16  C   UNL     1       0.358  10.562  20.332  0.00  0.00    +0.000 A 
ENDBRANCH   1  14
BRANCH   1  17
ATOM     17  C   UNL     1       2.375   5.776  19.923  0.00  0.00    +0.000 C 
BRANCH  17  18
ATOM     18  C   UNL     1       2.975   4.559  19.154  0.00  0.00    +0.000 C 
BRANCH  18  19
ATOM     19  N   UNL     1       4.385   4.102  19.457  0.00  0.00    +0.000 N 
ATOM     20  H   UNL     1       4.604   4.254  20.440  0.00  0.00    +0.000 HD
BRANCH  19  21
ATOM     21  C   UNL     1       5.439   4.684  18.660  0.00  0.00    +0.000 A 
ATOM     22  C   UNL     1       6.462   5.375  19.304  0.00  0.00    +0.000 A 
ATOM     23  C   UNL     1       7.337   6.116  18.558  0.00  0.00    +0.000 A 
ATOM     24  N   UNL     1       7.709   5.730  17.344  0.00  0.00    +0.000 NA
ATOM     25  C   UNL     1       6.830   4.994  16.678  0.00  0.00    +0.000 A 
ATOM     26  C   UNL     1       7.222   4.738  15.381  0.00  0.00    +0.000 A 
ATOM     27  C   UNL     1       6.328   4.279  14.460  0.00  0.00    +0.000 A 
ATOM     28 CL   UNL     1       6.821   4.046  12.820  0.00  0.00    +0.000 Cl
ATOM     29  C   UNL     1       4.993   4.043  14.853  0.00  0.00    +0.000 A 
ATOM     30  C   UNL     1       4.642   4.158  16.206  0.00  0.00    +0.000 A 
ATOM     31  C   UNL     1       5.568   4.592  17.208  0.00  0.00    +0.000 A 
ENDBRANCH  19  21
ENDBRANCH  18  19
ENDBRANCH  17  18
ENDBRANCH   1  17
TORSDOF 5
ENDMDL
MODEL 7
REMARK VINA RESULT:      -7.7      3.635      7.460
REMARK  Name = 
REMARK  6 active torsions:
REMARK  status: ('A' for Active; 'I' for Inactive)
REMARK    1  A    between atoms: C_1  and  N_2
REMARK    2  A    between atoms: C_13  and  S_14
REMARK    3  A    between atoms: S_14  and  C_15
REMARK    4  A    between atoms: C_15  and  C_16
REMARK    5  A    between atoms: C_16  and  N_17
REMARK    6  A    between atoms: N_17  and  C_18
REMARK                            x       y       z     vdW  Elec       q    Type
REMARK                         _______ _______ _______ _____ _____    ______ ____
ROOT
ATOM      1  S   UNL     1       2.627   3.131  19.848  0.00  0.00    +0.000 S 
ENDROOT
BRANCH   1  14
ATOM      2  C   UNL     1       3.625   7.859  17.163  0.00  0.00    +0.000 C 
ATOM      3  N   UNL     1       2.756   7.971  18.322  0.00  0.00    +0.000 N 
ATOM      4  C   UNL     1       2.041   9.110  18.652  0.00  0.00    +0.000 A 
ATOM      5  C   UNL     1       1.911  10.368  18.007  0.00  0.00    +0.000 A 
ATOM      6  C   UNL     1       1.086  11.326  18.578  0.00  0.00    +0.000 A 
ATOM      7  C   UNL     1       0.403  11.071  19.759  0.00  0.00    +0.000 A 
ATOM      8 BR   UNL     1      -0.725  12.388  20.502  0.00  0.00    +0.000 Br
ATOM      9  C   UNL     1       0.540   9.815  20.397  0.00  0.00    +0.000 A 
ATOM     10  C   UNL     1       1.359   8.825  19.843  0.00  0.00    +0.000 A 
ATOM     11  C   UNL     1       1.675   7.469  20.198  0.00  0.00    +0.000 A 
ATOM     12  N   UNL     1       1.275   6.665  21.220  0.00  0.00    +0.000 NA
ATOM     13  N   UNL     1       1.652   5.356  21.161  0.00  0.00    +0.000 NA
ATOM     14  C   UNL     1       2.432   4.904  20.148  0.00  0.00    +0.000 A 
ATOM     15  N   UNL     1       2.945   5.682  19.152  0.00  0.00    +0.000 NA
ATOM     16  C   UNL     1       2.528   6.961  19.226  0.00  0.00    +0.000 A 
ENDBRANCH   1  14
BRANCH   1  17
ATOM     17  C   UNL     1       2.180   2.709  18.109  0.00  0.00    +0.000 C 
BRANCH  17  18
ATOM     18  C   UNL     1       3.242   2.826  16.973  0.00  0.00    +0.000 C 
BRANCH  18  19
ATOM     19  N   UNL     1       4.714   2.804  17.318  0.00  0.00    +0.000 N 
ATOM     20  H   UNL     1       4.846   2.914  18.322  0.00  0.00    +0.000 HD
BRANCH  19  21
ATOM     21  C   UNL     1       5.552   3.765  16.640  0.00  0.00    +0.000 A 
ATOM     22  C   UNL     1       5.564   3.779  15.248  0.00  0.00    +0.000 A 
ATOM     23  C   UNL     1       6.511   4.522  14.597  0.00  0.00    +0.000 A 
ATOM     24  N   UNL     1       6.943   5.676  15.093  0.00  0.00    +0.000 NA
ATOM     25  C   UNL     1       6.894   5.791  16.412  0.00  0.00    +0.000 A 
ATOM     26  C   UNL     1       7.477   6.955  16.867  0.00  0.00    +0.000 A 
ATOM     27  C   UNL     1       7.803   7.104  18.183  0.00  0.00    +0.000 A 
ATOM     28 CL   UNL     1       8.609   8.537  18.716  0.00  0.00    +0.000 Cl
ATOM     29  C   UNL     1       7.516   6.059  19.087  0.00  0.00    +0.000 A 
ATOM     30  C   UNL     1       6.786   4.946  18.644  0.00  0.00    +0.000 A 
ATOM     31  C   UNL     1       6.386   4.779  17.280  0.00  0.00    +0.000 A 
ENDBRANCH  19  21
ENDBRANCH  18  19
ENDBRANCH  17  18
ENDBRANCH   1  17
TORSDOF 5
ENDMDL
MODEL 8
REMARK VINA RESULT:      -7.7      4.197      9.079
REMARK  Name = 
REMARK  6 active torsions:
REMARK  status: ('A' for Active; 'I' for Inactive)
REMARK    1  A    between atoms: C_1  and  N_2
REMARK    2  A    between atoms: C_13  and  S_14
REMARK    3  A    between atoms: S_14  and  C_15
REMARK    4  A    between atoms: C_15  and  C_16
REMARK    5  A    between atoms: C_16  and  N_17
REMARK    6  A    between atoms: N_17  and  C_18
REMARK                            x       y       z     vdW  Elec       q    Type
REMARK                         _______ _______ _______ _____ _____    ______ ____
ROOT
ATOM      1  S   UNL     1       2.875   5.685  20.126  0.00  0.00    +0.000 S 
ENDROOT
BRANCH   1  14
ATOM      2  C   UNL     1       0.074   9.372  23.147  0.00  0.00    +0.000 C 
ATOM      3  N   UNL     1       0.380   9.782  21.787  0.00  0.00    +0.000 N 
ATOM      4  C   UNL     1       0.189  11.064  21.299  0.00  0.00    +0.000 A 
ATOM      5  C   UNL     1      -0.268  12.257  21.920  0.00  0.00    +0.000 A 
ATOM      6  C   UNL     1      -0.332  13.418  21.164  0.00  0.00    +0.000 A 
ATOM      7  C   UNL     1       0.036  13.421  19.825  0.00  0.00    +0.000 A 
ATOM      8 BR   UNL     1      -0.046  15.020  18.827  0.00  0.00    +0.000 Br
ATOM      9  C   UNL     1       0.488  12.228  19.214  0.00  0.00    +0.000 A 
ATOM     10  C   UNL     1       0.571  11.041  19.950  0.00  0.00    +0.000 A 
ATOM     11  C   UNL     1       1.017   9.707  19.659  0.00  0.00    +0.000 A 
ATOM     12  N   UNL     1       1.524   9.128  18.537  0.00  0.00    +0.000 NA
ATOM     13  N   UNL     1       2.003   7.857  18.660  0.00  0.00    +0.000 NA
ATOM     14  C   UNL     1       1.924   7.198  19.842  0.00  0.00    +0.000 A 
ATOM     15  N   UNL     1       1.338   7.689  20.972  0.00  0.00    +0.000 NA
ATOM     16  C   UNL     1       0.903   8.955  20.822  0.00  0.00    +0.000 A 
ENDBRANCH   1  14
BRANCH   1  17
ATOM     17  C   UNL     1       2.340   4.350  18.969  0.00  0.00    +0.000 C 
BRANCH  17  18
ATOM     18  C   UNL     1       3.399   3.550  18.149  0.00  0.00    +0.000 C 
BRANCH  18  19
ATOM     19  N   UNL     1       4.855   3.601  18.553  0.00  0.00    +0.000 N 
ATOM     20  H   UNL     1       4.942   3.835  19.540  0.00  0.00    +0.000 HD
BRANCH  19  21
ATOM     21  C   UNL     1       5.705   4.489  17.796  0.00  0.00    +0.000 A 
ATOM     22  C   UNL     1       6.473   5.426  18.483  0.00  0.00    +0.000 A 
ATOM     23  C   UNL     1       7.106   6.414  17.778  0.00  0.00    +0.000 A 
ATOM     24  N   UNL     1       7.592   6.192  16.562  0.00  0.00    +0.000 NA
ATOM     25  C   UNL     1       6.975   5.254  15.857  0.00  0.00    +0.000 A 
ATOM     26  C   UNL     1       7.444   5.166  14.563  0.00  0.00    +0.000 A 
ATOM     27  C   UNL     1       6.737   4.496  13.609  0.00  0.00    +0.000 A 
ATOM     28 CL   UNL     1       7.301   4.469  11.976  0.00  0.00    +0.000 Cl
ATOM     29  C   UNL     1       5.523   3.869  13.964  0.00  0.00    +0.000 A 
ATOM     30  C   UNL     1       5.134   3.834  15.311  0.00  0.00    +0.000 A 
ATOM     31  C   UNL     1       5.878   4.486  16.346  0.00  0.00    +0.000 A 
ENDBRANCH  19  21
ENDBRANCH  18  19
ENDBRANCH  17  18
ENDBRANCH   1  17
TORSDOF 5
ENDMDL
MODEL 9
REMARK VINA RESULT:      -7.7      4.733      9.914
REMARK  Name = 
REMARK  6 active torsions:
REMARK  status: ('A' for Active; 'I' for Inactive)
REMARK    1  A    between atoms: C_1  and  N_2
REMARK    2  A    between atoms: C_13  and  S_14
REMARK    3  A    between atoms: S_14  and  C_15
REMARK    4  A    between atoms: C_15  and  C_16
REMARK    5  A    between atoms: C_16  and  N_17
REMARK    6  A    between atoms: N_17  and  C_18
REMARK                            x       y       z     vdW  Elec       q    Type
REMARK                         _______ _______ _______ _____ _____    ______ ____
ROOT
ATOM      1  S   UNL     1       2.721   7.868  18.408  0.00  0.00    +0.000 S 
ENDROOT
BRANCH   1  14
ATOM      2  C   UNL     1       0.285   9.414  23.124  0.00  0.00    +0.000 C 
ATOM      3  N   UNL     1      -0.125  10.149  21.940  0.00  0.00    +0.000 N 
ATOM      4  C   UNL     1      -0.906  11.292  21.964  0.00  0.00    +0.000 A 
ATOM      5  C   UNL     1      -1.450  12.047  23.038  0.00  0.00    +0.000 A 
ATOM      6  C   UNL     1      -2.188  13.184  22.745  0.00  0.00    +0.000 A 
ATOM      7  C   UNL     1      -2.400  13.580  21.431  0.00  0.00    +0.000 A 
ATOM      8 BR   UNL     1      -3.394  15.142  21.066  0.00  0.00    +0.000 Br
ATOM      9  C   UNL     1      -1.857  12.822  20.368  0.00  0.00    +0.000 A 
ATOM     10  C   UNL     1      -1.102  11.673  20.630  0.00  0.00    +0.000 A 
ATOM     11  C   UNL     1      -0.392  10.730  19.811  0.00  0.00    +0.000 A 
ATOM     12  N   UNL     1      -0.206  10.630  18.467  0.00  0.00    +0.000 NA
ATOM     13  N   UNL     1       0.675   9.684  18.033  0.00  0.00    +0.000 NA
ATOM     14  C   UNL     1       1.291   8.856  18.912  0.00  0.00    +0.000 A 
ATOM     15  N   UNL     1       1.071   8.843  20.258  0.00  0.00    +0.000 NA
ATOM     16  C   UNL     1       0.218   9.809  20.653  0.00  0.00    +0.000 A 
ENDBRANCH   1  14
BRANCH   1  17
ATOM     17  C   UNL     1       2.585   6.145  19.055  0.00  0.00    +0.000 C 
BRANCH  17  18
ATOM     18  C   UNL     1       3.840   5.420  19.632  0.00  0.00    +0.000 C 
BRANCH  18  19
ATOM     19  N   UNL     1       4.646   4.498  18.746  0.00  0.00    +0.000 N 
ATOM     20  H   UNL     1       5.154   3.818  19.309  0.00  0.00    +0.000 HD
BRANCH  19  21
ATOM     21  C   UNL     1       5.578   5.125  17.838  0.00  0.00    +0.000 A 
ATOM     22  C   UNL     1       6.470   6.068  18.340  0.00  0.00    +0.000 A 
ATOM     23  C   UNL     1       7.199   6.828  17.466  0.00  0.00    +0.000 A 
ATOM     24  N   UNL     1       7.624   6.333  16.310  0.00  0.00    +0.000 NA
ATOM     25  C   UNL     1       6.881   5.367  15.788  0.00  0.00    +0.000 A 
ATOM     26  C   UNL     1       7.302   4.990  14.530  0.00  0.00    +0.000 A 
ATOM     27  C   UNL     1       6.495   4.252  13.716  0.00  0.00    +0.000 A 
ATOM     28 CL   UNL     1       7.010   3.863  12.113  0.00  0.00    +0.000 Cl
ATOM     29  C   UNL     1       5.224   3.854  14.183  0.00  0.00    +0.000 A 
ATOM     30  C   UNL     1       4.868   4.109  15.515  0.00  0.00    +0.000 A 
ATOM     31  C   UNL     1       5.711   4.840  16.412  0.00  0.00    +0.000 A 
ENDBRANCH  19  21
ENDBRANCH  18  19
ENDBRANCH  17  18
ENDBRANCH   1  17
TORSDOF 5
ENDMDL
