MODEL 1
REMARK VINA RESULT:      -6.3      0.000      0.000
REMARK  Name = 
REMARK  15 active torsions:
REMARK  status: ('A' for Active; 'I' for Inactive)
REMARK    1  A    between atoms: C_1  and  C_2
REMARK    2  A    between atoms: C_5  and  C_6
REMARK    3  A    between atoms: C_7  and  C_8
REMARK    4  A    between atoms: C_8  and  N_9
REMARK    5  A    between atoms: C_10  and  C_11
REMARK    6  A    between atoms: C_11  and  C_12
REMARK    7  A    between atoms: C_12  and  C_13
REMARK    8  A    between atoms: C_12  and  C_14
REMARK    9  A    between atoms: C_16  and  C_17
REMARK   10  A    between atoms: C_18  and  C_19
REMARK   11  A    between atoms: C_19  and  O_21
REMARK   12  A    between atoms: O_21  and  C_22
REMARK   13  A    between atoms: C_22  and  C_23
REMARK   14  A    between atoms: C_27  and  C_28
REMARK   15  A    between atoms: C_28  and  O_30
REMARK                            x       y       z     vdW  Elec       q    Type
REMARK                         _______ _______ _______ _____ _____    ______ ____
ROOT
ATOM      1  C   UNL     1      -1.762  11.818  19.356  0.00  0.00    +0.000 A 
ATOM      2  C   UNL     1      -0.336  11.494  19.457  0.00  0.00    +0.000 A 
ATOM      3  C   UNL     1       0.175  10.526  18.573  0.00  0.00    +0.000 A 
ATOM      4  N   UNL     1      -0.591   9.942  17.629  0.00  0.00    +0.000 NA
ATOM      5  C   UNL     1      -1.879  10.316  17.447  0.00  0.00    +0.000 A 
ATOM      6  C   UNL     1      -2.534   9.615  16.289  0.00  0.00    +0.000 C 
ATOM      7  C   UNL     1      -2.517  11.236  18.281  0.00  0.00    +0.000 A 
ENDROOT
BRANCH   1  12
ATOM      8  C   UNL     1      -4.196  14.979  23.674  0.00  0.00    +0.000 C 
ATOM      9  C   UNL     1      -3.583  14.181  22.563  0.00  0.00    +0.000 A 
ATOM     10  C   UNL     1      -3.266  14.768  21.340  0.00  0.00    +0.000 A 
ATOM     11  C   UNL     1      -2.636  14.025  20.329  0.00  0.00    +0.000 A 
ATOM     12  C   UNL     1      -2.417  12.645  20.439  0.00  0.00    +0.000 A 
ATOM     13  C   UNL     1      -2.809  12.064  21.668  0.00  0.00    +0.000 A 
ATOM     14  C   UNL     1      -3.315  12.824  22.732  0.00  0.00    +0.000 A 
ENDBRANCH   1  12
BRANCH   7  15
ATOM     15  C   UNL     1      -3.941  11.586  17.952  0.00  0.00    +0.000 C 
ATOM     16  O   UNL     1      -4.341  11.986  16.880  0.00  0.00    +0.000 OA
BRANCH  15  17
ATOM     17  O   UNL     1      -4.759  11.336  19.018  0.00  0.00    +0.000 OA
BRANCH  17  18
ATOM     18  C   UNL     1      -6.060  11.941  19.013  0.00  0.00    +0.000 C 
BRANCH  18  19
ATOM     19  C   UNL     1      -6.436  12.824  20.199  0.00  0.00    +0.000 A 
ATOM     20  C   UNL     1      -6.718  14.188  19.985  0.00  0.00    +0.000 A 
ATOM     21  C   UNL     1      -7.244  14.989  21.008  0.00  0.00    +0.000 A 
ATOM     22  C   UNL     1      -7.497  14.443  22.261  0.00  0.00    +0.000 A 
ATOM     23  C   UNL     1      -7.208  13.096  22.503  0.00  0.00    +0.000 A 
ATOM     24  C   UNL     1      -6.665  12.290  21.474  0.00  0.00    +0.000 A 
BRANCH  23  25
ATOM     25  C   UNL     1      -7.499  12.582  23.868  0.00  0.00    +0.000 C 
ATOM     26  O   UNL     1      -7.354  11.415  24.180  0.00  0.00    +0.000 OA
BRANCH  25  27
ATOM     27  O   UNL     1      -7.874  13.533  24.746  0.00  0.00    +0.000 OA
ATOM     28  H   UNL     1      -8.464  14.221  24.391  0.00  0.00    +0.000 HD
ENDBRANCH  25  27
ENDBRANCH  23  25
ENDBRANCH  18  19
ENDBRANCH  17  18
ENDBRANCH  15  17
ENDBRANCH   7  15
BRANCH   2  29
ATOM     29  C   UNL     1       0.533  12.128  20.541  0.00  0.00    +0.000 C 
BRANCH  29  30
ATOM     30  N   UNL     1       0.730  11.359  21.769  0.00  0.00    +0.000 NA
ATOM     31  H   UNL     1       0.527  10.376  21.599  0.00  0.00    +0.000 HD
ATOM     32  H   UNL     1       0.001  11.645  22.428  0.00  0.00    +0.000 HD
ENDBRANCH  29  30
ENDBRANCH   2  29
BRANCH   3  33
ATOM     33  C   UNL     1       1.579   9.926  18.590  0.00  0.00    +0.000 C 
BRANCH  33  34
ATOM     34  C   UNL     1       1.562   8.406  18.908  0.00  0.00    +0.000 C 
ATOM     35  C   UNL     1       2.700   7.677  18.193  0.00  0.00    +0.000 C 
ATOM     36  C   UNL     1       1.633   8.111  20.410  0.00  0.00    +0.000 C 
ENDBRANCH  33  34
ENDBRANCH   3  33
TORSDOF 11
ENDMDL
MODEL 2
REMARK VINA RESULT:      -5.9      3.392      6.044
REMARK  Name = 
REMARK  15 active torsions:
REMARK  status: ('A' for Active; 'I' for Inactive)
REMARK    1  A    between atoms: C_1  and  C_2
REMARK    2  A    between atoms: C_5  and  C_6
REMARK    3  A    between atoms: C_7  and  C_8
REMARK    4  A    between atoms: C_8  and  N_9
REMARK    5  A    between atoms: C_10  and  C_11
REMARK    6  A    between atoms: C_11  and  C_12
REMARK    7  A    between atoms: C_12  and  C_13
REMARK    8  A    between atoms: C_12  and  C_14
REMARK    9  A    between atoms: C_16  and  C_17
REMARK   10  A    between atoms: C_18  and  C_19
REMARK   11  A    between atoms: C_19  and  O_21
REMARK   12  A    between atoms: O_21  and  C_22
REMARK   13  A    between atoms: C_22  and  C_23
REMARK   14  A    between atoms: C_27  and  C_28
REMARK   15  A    between atoms: C_28  and  O_30
REMARK                            x       y       z     vdW  Elec       q    Type
REMARK                         _______ _______ _______ _____ _____    ______ ____
ROOT
ATOM      1  C   UNL     1      -0.419  14.246  20.452  0.00  0.00    +0.000 A 
ATOM      2  C   UNL     1      -0.405  15.628  19.965  0.00  0.00    +0.000 A 
ATOM      3  C   UNL     1       0.669  16.016  19.143  0.00  0.00    +0.000 A 
ATOM      4  N   UNL     1       1.633  15.151  18.766  0.00  0.00    +0.000 NA
ATOM      5  C   UNL     1       1.570  13.844  19.111  0.00  0.00    +0.000 A 
ATOM      6  C   UNL     1       2.685  13.028  18.519  0.00  0.00    +0.000 C 
ATOM      7  C   UNL     1       0.579  13.339  19.955  0.00  0.00    +0.000 A 
ENDROOT
BRANCH   1  12
ATOM      8  C   UNL     1      -4.218  12.553  24.607  0.00  0.00    +0.000 C 
ATOM      9  C   UNL     1      -3.245  12.996  23.556  0.00  0.00    +0.000 A 
ATOM     10  C   UNL     1      -2.028  13.582  23.897  0.00  0.00    +0.000 A 
ATOM     11  C   UNL     1      -1.099  13.937  22.906  0.00  0.00    +0.000 A 
ATOM     12  C   UNL     1      -1.393  13.849  21.538  0.00  0.00    +0.000 A 
ATOM     13  C   UNL     1      -2.662  13.311  21.223  0.00  0.00    +0.000 A 
ATOM     14  C   UNL     1      -3.541  12.829  22.205  0.00  0.00    +0.000 A 
ENDBRANCH   1  12
BRANCH   7  15
ATOM     15  C   UNL     1       0.606  11.863  20.236  0.00  0.00    +0.000 C 
ATOM     16  O   UNL     1       0.946  11.349  21.279  0.00  0.00    +0.000 OA
BRANCH  15  17
ATOM     17  O   UNL     1       0.131  11.158  19.165  0.00  0.00    +0.000 OA
BRANCH  17  18
ATOM     18  C   UNL     1      -1.168  10.561  19.287  0.00  0.00    +0.000 C 
BRANCH  18  19
ATOM     19  C   UNL     1      -2.147  10.754  18.133  0.00  0.00    +0.000 A 
ATOM     20  C   UNL     1      -1.862  10.180  16.879  0.00  0.00    +0.000 A 
ATOM     21  C   UNL     1      -2.814  10.175  15.850  0.00  0.00    +0.000 A 
ATOM     22  C   UNL     1      -4.066  10.742  16.054  0.00  0.00    +0.000 A 
ATOM     23  C   UNL     1      -4.367  11.334  17.286  0.00  0.00    +0.000 A 
ATOM     24  C   UNL     1      -3.401  11.351  18.321  0.00  0.00    +0.000 A 
BRANCH  23  25
ATOM     25  C   UNL     1      -5.723  11.927  17.432  0.00  0.00    +0.000 C 
ATOM     26  O   UNL     1      -6.628  11.369  18.025  0.00  0.00    +0.000 OA
BRANCH  25  27
ATOM     27  O   UNL     1      -5.843  13.163  16.909  0.00  0.00    +0.000 OA
ATOM     28  H   UNL     1      -6.010  13.198  15.950  0.00  0.00    +0.000 HD
ENDBRANCH  25  27
ENDBRANCH  23  25
ENDBRANCH  18  19
ENDBRANCH  17  18
ENDBRANCH  15  17
ENDBRANCH   7  15
BRANCH   2  29
ATOM     29  C   UNL     1      -1.475  16.623  20.409  0.00  0.00    +0.000 C 
BRANCH  29  30
ATOM     30  N   UNL     1      -2.633  16.789  19.531  0.00  0.00    +0.000 NA
ATOM     31  H   UNL     1      -2.458  17.539  18.865  0.00  0.00    +0.000 HD
ATOM     32  H   UNL     1      -3.401  17.149  20.104  0.00  0.00    +0.000 HD
ENDBRANCH  29  30
ENDBRANCH   2  29
BRANCH   3  33
ATOM     33  C   UNL     1       0.972  17.428  18.644  0.00  0.00    +0.000 C 
BRANCH  33  34
ATOM     34  C   UNL     1       0.959  17.516  17.093  0.00  0.00    +0.000 C 
ATOM     35  C   UNL     1       0.008  18.612  16.609  0.00  0.00    +0.000 C 
ATOM     36  C   UNL     1       2.351  17.752  16.499  0.00  0.00    +0.000 C 
ENDBRANCH  33  34
ENDBRANCH   3  33
TORSDOF 11
ENDMDL
MODEL 3
REMARK VINA RESULT:      -5.7      4.026      9.285
REMARK  Name = 
REMARK  15 active torsions:
REMARK  status: ('A' for Active; 'I' for Inactive)
REMARK    1  A    between atoms: C_1  and  C_2
REMARK    2  A    between atoms: C_5  and  C_6
REMARK    3  A    between atoms: C_7  and  C_8
REMARK    4  A    between atoms: C_8  and  N_9
REMARK    5  A    between atoms: C_10  and  C_11
REMARK    6  A    between atoms: C_11  and  C_12
REMARK    7  A    between atoms: C_12  and  C_13
REMARK    8  A    between atoms: C_12  and  C_14
REMARK    9  A    between atoms: C_16  and  C_17
REMARK   10  A    between atoms: C_18  and  C_19
REMARK   11  A    between atoms: C_19  and  O_21
REMARK   12  A    between atoms: O_21  and  C_22
REMARK   13  A    between atoms: C_22  and  C_23
REMARK   14  A    between atoms: C_27  and  C_28
REMARK   15  A    between atoms: C_28  and  O_30
REMARK                            x       y       z     vdW  Elec       q    Type
REMARK                         _______ _______ _______ _____ _____    ______ ____
ROOT
ATOM      1  C   UNL     1      -1.015  11.153  20.481  0.00  0.00    +0.000 A 
ATOM      2  C   UNL     1      -1.081  12.535  20.963  0.00  0.00    +0.000 A 
ATOM      3  C   UNL     1      -0.811  12.762  22.324  0.00  0.00    +0.000 A 
ATOM      4  N   UNL     1      -0.455  11.766  23.161  0.00  0.00    +0.000 NA
ATOM      5  C   UNL     1      -0.277  10.504  22.705  0.00  0.00    +0.000 A 
ATOM      6  C   UNL     1       0.207   9.559  23.770  0.00  0.00    +0.000 C 
ATOM      7  C   UNL     1      -0.549  10.138  21.385  0.00  0.00    +0.000 A 
ENDROOT
BRANCH   1  12
ATOM      8  C   UNL     1      -3.034   9.690  15.156  0.00  0.00    +0.000 C 
ATOM      9  C   UNL     1      -2.528  10.076  16.513  0.00  0.00    +0.000 A 
ATOM     10  C   UNL     1      -3.325  10.784  17.410  0.00  0.00    +0.000 A 
ATOM     11  C   UNL     1      -2.861  11.086  18.700  0.00  0.00    +0.000 A 
ATOM     12  C   UNL     1      -1.547  10.817  19.105  0.00  0.00    +0.000 A 
ATOM     13  C   UNL     1      -0.739  10.156  18.150  0.00  0.00    +0.000 A 
ATOM     14  C   UNL     1      -1.237   9.731  16.909  0.00  0.00    +0.000 A 
ENDBRANCH   1  12
BRANCH   7  15
ATOM     15  C   UNL     1      -0.281   8.711  21.001  0.00  0.00    +0.000 C 
ATOM     16  O   UNL     1      -1.070   7.795  21.088  0.00  0.00    +0.000 OA
BRANCH  15  17
ATOM     17  O   UNL     1       0.973   8.580  20.473  0.00  0.00    +0.000 OA
BRANCH  17  18
ATOM     18  C   UNL     1       1.621   7.306  20.608  0.00  0.00    +0.000 C 
BRANCH  18  19
ATOM     19  C   UNL     1       2.549   6.860  19.483  0.00  0.00    +0.000 A 
ATOM     20  C   UNL     1       2.683   7.664  18.334  0.00  0.00    +0.000 A 
ATOM     21  C   UNL     1       3.657   7.390  17.365  0.00  0.00    +0.000 A 
ATOM     22  C   UNL     1       4.515   6.309  17.525  0.00  0.00    +0.000 A 
ATOM     23  C   UNL     1       4.391   5.485  18.649  0.00  0.00    +0.000 A 
ATOM     24  C   UNL     1       3.399   5.754  19.622  0.00  0.00    +0.000 A 
BRANCH  23  25
ATOM     25  C   UNL     1       5.340   4.343  18.752  0.00  0.00    +0.000 C 
ATOM     26  O   UNL     1       6.548   4.481  18.718  0.00  0.00    +0.000 OA
BRANCH  25  27
ATOM     27  O   UNL     1       4.745   3.151  18.954  0.00  0.00    +0.000 OA
ATOM     28  H   UNL     1       3.844   3.189  19.321  0.00  0.00    +0.000 HD
ENDBRANCH  25  27
ENDBRANCH  23  25
ENDBRANCH  18  19
ENDBRANCH  17  18
ENDBRANCH  15  17
ENDBRANCH   7  15
BRANCH   2  29
ATOM     29  C   UNL     1      -1.510  13.667  20.031  0.00  0.00    +0.000 C 
BRANCH  29  30
ATOM     30  N   UNL     1      -0.534  14.117  19.039  0.00  0.00    +0.000 NA
ATOM     31  H   UNL     1      -0.962  14.143  18.117  0.00  0.00    +0.000 HD
ATOM     32  H   UNL     1       0.176  13.384  18.956  0.00  0.00    +0.000 HD
ENDBRANCH  29  30
ENDBRANCH   2  29
BRANCH   3  33
ATOM     33  C   UNL     1      -0.961  14.083  23.077  0.00  0.00    +0.000 C 
BRANCH  33  34
ATOM     34  C   UNL     1      -2.357  14.221  23.744  0.00  0.00    +0.000 C 
ATOM     35  C   UNL     1      -2.262  14.963  25.078  0.00  0.00    +0.000 C 
ATOM     36  C   UNL     1      -3.381  14.921  22.844  0.00  0.00    +0.000 C 
ENDBRANCH  33  34
ENDBRANCH   3  33
TORSDOF 11
ENDMDL
MODEL 4
REMARK VINA RESULT:      -5.7      3.103      6.106
REMARK  Name = 
REMARK  15 active torsions:
REMARK  status: ('A' for Active; 'I' for Inactive)
REMARK    1  A    between atoms: C_1  and  C_2
REMARK    2  A    between atoms: C_5  and  C_6
REMARK    3  A    between atoms: C_7  and  C_8
REMARK    4  A    between atoms: C_8  and  N_9
REMARK    5  A    between atoms: C_10  and  C_11
REMARK    6  A    between atoms: C_11  and  C_12
REMARK    7  A    between atoms: C_12  and  C_13
REMARK    8  A    between atoms: C_12  and  C_14
REMARK    9  A    between atoms: C_16  and  C_17
REMARK   10  A    between atoms: C_18  and  C_19
REMARK   11  A    between atoms: C_19  and  O_21
REMARK   12  A    between atoms: O_21  and  C_22
REMARK   13  A    between atoms: C_22  and  C_23
REMARK   14  A    between atoms: C_27  and  C_28
REMARK   15  A    between atoms: C_28  and  O_30
REMARK                            x       y       z     vdW  Elec       q    Type
REMARK                         _______ _______ _______ _____ _____    ______ ____
ROOT
ATOM      1  C   UNL     1      -0.874  14.168  20.757  0.00  0.00    +0.000 A 
ATOM      2  C   UNL     1      -0.963  15.544  20.263  0.00  0.00    +0.000 A 
ATOM      3  C   UNL     1       0.102  16.025  19.481  0.00  0.00    +0.000 A 
ATOM      4  N   UNL     1       1.153  15.248  19.146  0.00  0.00    +0.000 NA
ATOM      5  C   UNL     1       1.193  13.941  19.496  0.00  0.00    +0.000 A 
ATOM      6  C   UNL     1       2.399  13.226  18.952  0.00  0.00    +0.000 C 
ATOM      7  C   UNL     1       0.219  13.352  20.304  0.00  0.00    +0.000 A 
ENDROOT
BRANCH   1  12
ATOM      8  C   UNL     1      -4.667  12.453  24.909  0.00  0.00    +0.000 C 
ATOM      9  C   UNL     1      -3.703  12.878  23.842  0.00  0.00    +0.000 A 
ATOM     10  C   UNL     1      -3.952  12.618  22.496  0.00  0.00    +0.000 A 
ATOM     11  C   UNL     1      -3.072  13.075  21.502  0.00  0.00    +0.000 A 
ATOM     12  C   UNL     1      -1.849  13.688  21.808  0.00  0.00    +0.000 A 
ATOM     13  C   UNL     1      -1.594  13.880  23.186  0.00  0.00    +0.000 A 
ATOM     14  C   UNL     1      -2.528  13.548  24.178  0.00  0.00    +0.000 A 
ENDBRANCH   1  12
BRANCH   7  15
ATOM     15  C   UNL     1       0.367  11.885  20.595  0.00  0.00    +0.000 C 
ATOM     16  O   UNL     1       1.234  11.384  21.277  0.00  0.00    +0.000 OA
BRANCH  15  17
ATOM     17  O   UNL     1      -0.657  11.175  20.032  0.00  0.00    +0.000 OA
BRANCH  17  18
ATOM     18  C   UNL     1      -0.519  10.789  18.657  0.00  0.00    +0.000 C 
BRANCH  18  19
ATOM     19  C   UNL     1      -1.765  10.840  17.778  0.00  0.00    +0.000 A 
ATOM     20  C   UNL     1      -1.886   9.948  16.695  0.00  0.00    +0.000 A 
ATOM     21  C   UNL     1      -3.085   9.834  15.978  0.00  0.00    +0.000 A 
ATOM     22  C   UNL     1      -4.185  10.608  16.331  0.00  0.00    +0.000 A 
ATOM     23  C   UNL     1      -4.084  11.514  17.393  0.00  0.00    +0.000 A 
ATOM     24  C   UNL     1      -2.868  11.638  18.108  0.00  0.00    +0.000 A 
BRANCH  23  25
ATOM     25  C   UNL     1      -5.298  12.313  17.711  0.00  0.00    +0.000 C 
ATOM     26  O   UNL     1      -6.304  12.287  17.029  0.00  0.00    +0.000 OA
BRANCH  25  27
ATOM     27  O   UNL     1      -5.208  13.017  18.857  0.00  0.00    +0.000 OA
ATOM     28  H   UNL     1      -4.584  13.765  18.842  0.00  0.00    +0.000 HD
ENDBRANCH  25  27
ENDBRANCH  23  25
ENDBRANCH  18  19
ENDBRANCH  17  18
ENDBRANCH  15  17
ENDBRANCH   7  15
BRANCH   2  29
ATOM     29  C   UNL     1      -2.134  16.441  20.660  0.00  0.00    +0.000 C 
BRANCH  29  30
ATOM     30  N   UNL     1      -1.947  17.298  21.830  0.00  0.00    +0.000 NA
ATOM     31  H   UNL     1      -0.954  17.428  22.009  0.00  0.00    +0.000 HD
ATOM     32  H   UNL     1      -2.273  16.774  22.647  0.00  0.00    +0.000 HD
ENDBRANCH  29  30
ENDBRANCH   2  29
BRANCH   3  33
ATOM     33  C   UNL     1       0.298  17.456  18.985  0.00  0.00    +0.000 C 
BRANCH  33  34
ATOM     34  C   UNL     1      -0.383  17.699  17.611  0.00  0.00    +0.000 C 
ATOM     35  C   UNL     1      -1.620  18.587  17.754  0.00  0.00    +0.000 C 
ATOM     36  C   UNL     1       0.566  18.312  16.575  0.00  0.00    +0.000 C 
ENDBRANCH  33  34
ENDBRANCH   3  33
TORSDOF 11
ENDMDL
MODEL 5
REMARK VINA RESULT:      -5.7      3.526      8.111
REMARK  Name = 
REMARK  15 active torsions:
REMARK  status: ('A' for Active; 'I' for Inactive)
REMARK    1  A    between atoms: C_1  and  C_2
REMARK    2  A    between atoms: C_5  and  C_6
REMARK    3  A    between atoms: C_7  and  C_8
REMARK    4  A    between atoms: C_8  and  N_9
REMARK    5  A    between atoms: C_10  and  C_11
REMARK    6  A    between atoms: C_11  and  C_12
REMARK    7  A    between atoms: C_12  and  C_13
REMARK    8  A    between atoms: C_12  and  C_14
REMARK    9  A    between atoms: C_16  and  C_17
REMARK   10  A    between atoms: C_18  and  C_19
REMARK   11  A    between atoms: C_19  and  O_21
REMARK   12  A    between atoms: O_21  and  C_22
REMARK   13  A    between atoms: C_22  and  C_23
REMARK   14  A    between atoms: C_27  and  C_28
REMARK   15  A    between atoms: C_28  and  O_30
REMARK                            x       y       z     vdW  Elec       q    Type
REMARK                         _______ _______ _______ _____ _____    ______ ____
ROOT
ATOM      1  C   UNL     1      -1.280  11.149  19.769  0.00  0.00    +0.000 A 
ATOM      2  C   UNL     1      -2.366  11.339  18.804  0.00  0.00    +0.000 A 
ATOM      3  C   UNL     1      -3.521  12.006  19.249  0.00  0.00    +0.000 A 
ATOM      4  N   UNL     1      -3.626  12.503  20.499  0.00  0.00    +0.000 NA
ATOM      5  C   UNL     1      -2.587  12.437  21.364  0.00  0.00    +0.000 A 
ATOM      6  C   UNL     1      -2.869  13.126  22.671  0.00  0.00    +0.000 C 
ATOM      7  C   UNL     1      -1.400  11.769  21.060  0.00  0.00    +0.000 A 
ENDROOT
BRANCH   1  12
ATOM      8  C   UNL     1       3.070   7.408  18.483  0.00  0.00    +0.000 C 
ATOM      9  C   UNL     1       1.968   8.373  18.804  0.00  0.00    +0.000 A 
ATOM     10  C   UNL     1       1.641   9.413  17.937  0.00  0.00    +0.000 A 
ATOM     11  C   UNL     1       0.568  10.273  18.220  0.00  0.00    +0.000 A 
ATOM     12  C   UNL     1      -0.136  10.219  19.431  0.00  0.00    +0.000 A 
ATOM     13  C   UNL     1       0.262   9.194  20.320  0.00  0.00    +0.000 A 
ATOM     14  C   UNL     1       1.243   8.248  19.987  0.00  0.00    +0.000 A 
ENDBRANCH   1  12
BRANCH   7  15
ATOM     15  C   UNL     1      -0.314  11.796  22.098  0.00  0.00    +0.000 C 
ATOM     16  O   UNL     1      -0.375  11.294  23.199  0.00  0.00    +0.000 OA
BRANCH  15  17
ATOM     17  O   UNL     1       0.802  12.421  21.614  0.00  0.00    +0.000 OA
BRANCH  17  18
ATOM     18  C   UNL     1       0.674  13.794  21.217  0.00  0.00    +0.000 C 
BRANCH  18  19
ATOM     19  C   UNL     1       1.579  14.295  20.096  0.00  0.00    +0.000 A 
ATOM     20  C   UNL     1       2.399  13.380  19.406  0.00  0.00    +0.000 A 
ATOM     21  C   UNL     1       3.103  13.761  18.256  0.00  0.00    +0.000 A 
ATOM     22  C   UNL     1       3.001  15.060  17.773  0.00  0.00    +0.000 A 
ATOM     23  C   UNL     1       2.207  15.992  18.451  0.00  0.00    +0.000 A 
ATOM     24  C   UNL     1       1.507  15.611  19.620  0.00  0.00    +0.000 A 
BRANCH  23  25
ATOM     25  C   UNL     1       2.149  17.365  17.881  0.00  0.00    +0.000 C 
ATOM     26  O   UNL     1       1.687  18.314  18.487  0.00  0.00    +0.000 OA
BRANCH  25  27
ATOM     27  O   UNL     1       2.714  17.479  16.663  0.00  0.00    +0.000 OA
ATOM     28  H   UNL     1       2.129  17.281  15.910  0.00  0.00    +0.000 HD
ENDBRANCH  25  27
ENDBRANCH  23  25
ENDBRANCH  18  19
ENDBRANCH  17  18
ENDBRANCH  15  17
ENDBRANCH   7  15
BRANCH   2  29
ATOM     29  C   UNL     1      -2.269  10.756  17.396  0.00  0.00    +0.000 C 
BRANCH  29  30
ATOM     30  N   UNL     1      -2.182  11.707  16.288  0.00  0.00    +0.000 NA
ATOM     31  H   UNL     1      -1.892  12.618  16.635  0.00  0.00    +0.000 HD
ATOM     32  H   UNL     1      -3.135  11.869  15.951  0.00  0.00    +0.000 HD
ENDBRANCH  29  30
ENDBRANCH   2  29
BRANCH   3  33
ATOM     33  C   UNL     1      -4.826  12.187  18.476  0.00  0.00    +0.000 C 
BRANCH  33  34
ATOM     34  C   UNL     1      -6.062  11.724  19.294  0.00  0.00    +0.000 C 
ATOM     35  C   UNL     1      -7.144  12.804  19.322  0.00  0.00    +0.000 C 
ATOM     36  C   UNL     1      -6.663  10.414  18.774  0.00  0.00    +0.000 C 
ENDBRANCH  33  34
ENDBRANCH   3  33
TORSDOF 11
ENDMDL
MODEL 6
REMARK VINA RESULT:      -5.6      4.034      7.975
REMARK  Name = 
REMARK  15 active torsions:
REMARK  status: ('A' for Active; 'I' for Inactive)
REMARK    1  A    between atoms: C_1  and  C_2
REMARK    2  A    between atoms: C_5  and  C_6
REMARK    3  A    between atoms: C_7  and  C_8
REMARK    4  A    between atoms: C_8  and  N_9
REMARK    5  A    between atoms: C_10  and  C_11
REMARK    6  A    between atoms: C_11  and  C_12
REMARK    7  A    between atoms: C_12  and  C_13
REMARK    8  A    between atoms: C_12  and  C_14
REMARK    9  A    between atoms: C_16  and  C_17
REMARK   10  A    between atoms: C_18  and  C_19
REMARK   11  A    between atoms: C_19  and  O_21
REMARK   12  A    between atoms: O_21  and  C_22
REMARK   13  A    between atoms: C_22  and  C_23
REMARK   14  A    between atoms: C_27  and  C_28
REMARK   15  A    between atoms: C_28  and  O_30
REMARK                            x       y       z     vdW  Elec       q    Type
REMARK                         _______ _______ _______ _____ _____    ______ ____
ROOT
ATOM      1  C   UNL     1      -1.008  13.951  20.391  0.00  0.00    +0.000 A 
ATOM      2  C   UNL     1      -0.899  15.377  20.074  0.00  0.00    +0.000 A 
ATOM      3  C   UNL     1       0.139  15.773  19.211  0.00  0.00    +0.000 A 
ATOM      4  N   UNL     1       0.982  14.884  18.648  0.00  0.00    +0.000 NA
ATOM      5  C   UNL     1       0.821  13.554  18.840  0.00  0.00    +0.000 A 
ATOM      6  C   UNL     1       1.803  12.727  18.056  0.00  0.00    +0.000 C 
ATOM      7  C   UNL     1      -0.144  13.032  19.702  0.00  0.00    +0.000 A 
ENDROOT
BRANCH   1  12
ATOM      8  C   UNL     1      -4.562  12.358  24.796  0.00  0.00    +0.000 C 
ATOM      9  C   UNL     1      -3.661  12.753  23.665  0.00  0.00    +0.000 A 
ATOM     10  C   UNL     1      -4.046  12.577  22.337  0.00  0.00    +0.000 A 
ATOM     11  C   UNL     1      -3.220  13.007  21.287  0.00  0.00    +0.000 A 
ATOM     12  C   UNL     1      -1.927  13.503  21.506  0.00  0.00    +0.000 A 
ATOM     13  C   UNL     1      -1.538  13.608  22.862  0.00  0.00    +0.000 A 
ATOM     14  C   UNL     1      -2.409  13.307  23.920  0.00  0.00    +0.000 A 
ENDBRANCH   1  12
BRANCH   7  15
ATOM     15  C   UNL     1      -0.237  11.536  19.802  0.00  0.00    +0.000 C 
ATOM     16  O   UNL     1      -1.126  10.851  19.344  0.00  0.00    +0.000 OA
BRANCH  15  17
ATOM     17  O   UNL     1       0.861  11.024  20.436  0.00  0.00    +0.000 OA
BRANCH  17  18
ATOM     18  C   UNL     1       0.797   9.660  20.877  0.00  0.00    +0.000 C 
BRANCH  18  19
ATOM     19  C   UNL     1       1.413   8.594  19.975  0.00  0.00    +0.000 A 
ATOM     20  C   UNL     1       1.757   8.922  18.650  0.00  0.00    +0.000 A 
ATOM     21  C   UNL     1       2.489   8.035  17.849  0.00  0.00    +0.000 A 
ATOM     22  C   UNL     1       2.892   6.806  18.358  0.00  0.00    +0.000 A 
ATOM     23  C   UNL     1       2.547   6.450  19.667  0.00  0.00    +0.000 A 
ATOM     24  C   UNL     1       1.796   7.340  20.470  0.00  0.00    +0.000 A 
BRANCH  23  25
ATOM     25  C   UNL     1       3.006   5.117  20.143  0.00  0.00    +0.000 C 
ATOM     26  O   UNL     1       3.867   4.472  19.575  0.00  0.00    +0.000 OA
BRANCH  25  27
ATOM     27  O   UNL     1       2.431   4.717  21.294  0.00  0.00    +0.000 OA
ATOM     28  H   UNL     1       2.938   4.907  22.104  0.00  0.00    +0.000 HD
ENDBRANCH  25  27
ENDBRANCH  23  25
ENDBRANCH  18  19
ENDBRANCH  17  18
ENDBRANCH  15  17
ENDBRANCH   7  15
BRANCH   2  29
ATOM     29  C   UNL     1      -1.831  16.395  20.728  0.00  0.00    +0.000 C 
BRANCH  29  30
ATOM     30  N   UNL     1      -3.138  16.598  20.102  0.00  0.00    +0.000 NA
ATOM     31  H   UNL     1      -3.374  17.587  20.106  0.00  0.00    +0.000 HD
ATOM     32  H   UNL     1      -3.839  16.179  20.720  0.00  0.00    +0.000 HD
ENDBRANCH  29  30
ENDBRANCH   2  29
BRANCH   3  33
ATOM     33  C   UNL     1       0.536  17.205  18.859  0.00  0.00    +0.000 C 
BRANCH  33  34
ATOM     34  C   UNL     1      -0.186  17.717  17.582  0.00  0.00    +0.000 C 
ATOM     35  C   UNL     1      -1.359  18.631  17.938  0.00  0.00    +0.000 C 
ATOM     36  C   UNL     1       0.755  18.447  16.618  0.00  0.00    +0.000 C 
ENDBRANCH  33  34
ENDBRANCH   3  33
TORSDOF 11
ENDMDL
MODEL 7
REMARK VINA RESULT:      -5.6      4.252      9.270
REMARK  Name = 
REMARK  15 active torsions:
REMARK  status: ('A' for Active; 'I' for Inactive)
REMARK    1  A    between atoms: C_1  and  C_2
REMARK    2  A    between atoms: C_5  and  C_6
REMARK    3  A    between atoms: C_7  and  C_8
REMARK    4  A    between atoms: C_8  and  N_9
REMARK    5  A    between atoms: C_10  and  C_11
REMARK    6  A    between atoms: C_11  and  C_12
REMARK    7  A    between atoms: C_12  and  C_13
REMARK    8  A    between atoms: C_12  and  C_14
REMARK    9  A    between atoms: C_16  and  C_17
REMARK   10  A    between atoms: C_18  and  C_19
REMARK   11  A    between atoms: C_19  and  O_21
REMARK   12  A    between atoms: O_21  and  C_22
REMARK   13  A    between atoms: C_22  and  C_23
REMARK   14  A    between atoms: C_27  and  C_28
REMARK   15  A    between atoms: C_28  and  O_30
REMARK                            x       y       z     vdW  Elec       q    Type
REMARK                         _______ _______ _______ _____ _____    ______ ____
ROOT
ATOM      1  C   UNL     1      -1.275  11.059  19.956  0.00  0.00    +0.000 A 
ATOM      2  C   UNL     1      -2.057  11.804  20.946  0.00  0.00    +0.000 A 
ATOM      3  C   UNL     1      -1.627  11.754  22.284  0.00  0.00    +0.000 A 
ATOM      4  N   UNL     1      -0.512  11.092  22.655  0.00  0.00    +0.000 NA
ATOM      5  C   UNL     1       0.284  10.498  21.736  0.00  0.00    +0.000 A 
ATOM      6  C   UNL     1       1.522   9.893  22.337  0.00  0.00    +0.000 C 
ATOM      7  C   UNL     1      -0.050  10.441  20.381  0.00  0.00    +0.000 A 
ENDROOT
BRANCH   1  12
ATOM      8  C   UNL     1      -3.582  10.251  14.608  0.00  0.00    +0.000 C 
ATOM      9  C   UNL     1      -2.982  10.464  15.966  0.00  0.00    +0.000 A 
ATOM     10  C   UNL     1      -2.263  11.619  16.266  0.00  0.00    +0.000 A 
ATOM     11  C   UNL     1      -1.758  11.835  17.558  0.00  0.00    +0.000 A 
ATOM     12  C   UNL     1      -1.831  10.861  18.563  0.00  0.00    +0.000 A 
ATOM     13  C   UNL     1      -2.509   9.672  18.209  0.00  0.00    +0.000 A 
ATOM     14  C   UNL     1      -3.133   9.503  16.963  0.00  0.00    +0.000 A 
ENDBRANCH   1  12
BRANCH   7  15
ATOM     15  C   UNL     1       0.935   9.777  19.461  0.00  0.00    +0.000 C 
ATOM     16  O   UNL     1       1.327  10.223  18.404  0.00  0.00    +0.000 OA
BRANCH  15  17
ATOM     17  O   UNL     1       1.391   8.608  20.003  0.00  0.00    +0.000 OA
BRANCH  17  18
ATOM     18  C   UNL     1       2.055   7.685  19.127  0.00  0.00    +0.000 C 
BRANCH  18  19
ATOM     19  C   UNL     1       2.421   6.314  19.688  0.00  0.00    +0.000 A 
ATOM     20  C   UNL     1       1.485   5.616  20.475  0.00  0.00    +0.000 A 
ATOM     21  C   UNL     1       1.706   4.284  20.854  0.00  0.00    +0.000 A 
ATOM     22  C   UNL     1       2.863   3.627  20.454  0.00  0.00    +0.000 A 
ATOM     23  C   UNL     1       3.816   4.306  19.686  0.00  0.00    +0.000 A 
ATOM     24  C   UNL     1       3.599   5.654  19.314  0.00  0.00    +0.000 A 
BRANCH  23  25
ATOM     25  C   UNL     1       5.032   3.543  19.298  0.00  0.00    +0.000 C 
ATOM     26  O   UNL     1       6.035   4.074  18.859  0.00  0.00    +0.000 OA
BRANCH  25  27
ATOM     27  O   UNL     1       4.951   2.219  19.538  0.00  0.00    +0.000 OA
ATOM     28  H   UNL     1       4.822   1.969  20.470  0.00  0.00    +0.000 HD
ENDBRANCH  25  27
ENDBRANCH  23  25
ENDBRANCH  18  19
ENDBRANCH  17  18
ENDBRANCH  15  17
ENDBRANCH   7  15
BRANCH   2  29
ATOM     29  C   UNL     1      -3.337  12.534  20.542  0.00  0.00    +0.000 C 
BRANCH  29  30
ATOM     30  N   UNL     1      -3.199  13.922  20.102  0.00  0.00    +0.000 NA
ATOM     31  H   UNL     1      -3.003  14.521  20.901  0.00  0.00    +0.000 HD
ATOM     32  H   UNL     1      -4.121  14.234  19.786  0.00  0.00    +0.000 HD
ENDBRANCH  29  30
ENDBRANCH   2  29
BRANCH   3  33
ATOM     33  C   UNL     1      -2.357  12.323  23.499  0.00  0.00    +0.000 C 
BRANCH  33  34
ATOM     34  C   UNL     1      -2.397  13.875  23.487  0.00  0.00    +0.000 C 
ATOM     35  C   UNL     1      -3.282  14.416  24.610  0.00  0.00    +0.000 C 
ATOM     36  C   UNL     1      -1.004  14.507  23.586  0.00  0.00    +0.000 C 
ENDBRANCH  33  34
ENDBRANCH   3  33
TORSDOF 11
ENDMDL
MODEL 8
REMARK VINA RESULT:      -5.6      3.218      4.659
REMARK  Name = 
REMARK  15 active torsions:
REMARK  status: ('A' for Active; 'I' for Inactive)
REMARK    1  A    between atoms: C_1  and  C_2
REMARK    2  A    between atoms: C_5  and  C_6
REMARK    3  A    between atoms: C_7  and  C_8
REMARK    4  A    between atoms: C_8  and  N_9
REMARK    5  A    between atoms: C_10  and  C_11
REMARK    6  A    between atoms: C_11  and  C_12
REMARK    7  A    between atoms: C_12  and  C_13
REMARK    8  A    between atoms: C_12  and  C_14
REMARK    9  A    between atoms: C_16  and  C_17
REMARK   10  A    between atoms: C_18  and  C_19
REMARK   11  A    between atoms: C_19  and  O_21
REMARK   12  A    between atoms: O_21  and  C_22
REMARK   13  A    between atoms: C_22  and  C_23
REMARK   14  A    between atoms: C_27  and  C_28
REMARK   15  A    between atoms: C_28  and  O_30
REMARK                            x       y       z     vdW  Elec       q    Type
REMARK                         _______ _______ _______ _____ _____    ______ ____
ROOT
ATOM      1  C   UNL     1       0.219  11.703  20.274  0.00  0.00    +0.000 A 
ATOM      2  C   UNL     1       0.384  10.341  19.759  0.00  0.00    +0.000 A 
ATOM      3  C   UNL     1       1.305  10.149  18.714  0.00  0.00    +0.000 A 
ATOM      4  N   UNL     1       2.054  11.158  18.223  0.00  0.00    +0.000 NA
ATOM      5  C   UNL     1       1.997  12.396  18.767  0.00  0.00    +0.000 A 
ATOM      6  C   UNL     1       2.971  13.355  18.141  0.00  0.00    +0.000 C 
ATOM      7  C   UNL     1       1.097  12.728  19.782  0.00  0.00    +0.000 A 
ENDROOT
BRANCH   1  12
ATOM      8  C   UNL     1      -4.353  12.814  23.800  0.00  0.00    +0.000 C 
ATOM      9  C   UNL     1      -3.178  12.536  22.912  0.00  0.00    +0.000 A 
ATOM     10  C   UNL     1      -1.949  12.142  23.438  0.00  0.00    +0.000 A 
ATOM     11  C   UNL     1      -0.875  11.825  22.592  0.00  0.00    +0.000 A 
ATOM     12  C   UNL     1      -0.932  12.014  21.204  0.00  0.00    +0.000 A 
ATOM     13  C   UNL     1      -2.172  12.478  20.705  0.00  0.00    +0.000 A 
ATOM     14  C   UNL     1      -3.291  12.668  21.529  0.00  0.00    +0.000 A 
ENDBRANCH   1  12
BRANCH   7  15
ATOM     15  C   UNL     1       1.158  14.130  20.318  0.00  0.00    +0.000 C 
ATOM     16  O   UNL     1       1.965  14.546  21.121  0.00  0.00    +0.000 OA
BRANCH  15  17
ATOM     17  O   UNL     1       0.204  14.914  19.731  0.00  0.00    +0.000 OA
BRANCH  17  18
ATOM     18  C   UNL     1      -0.051  16.199  20.316  0.00  0.00    +0.000 C 
BRANCH  18  19
ATOM     19  C   UNL     1      -1.110  16.281  21.412  0.00  0.00    +0.000 A 
ATOM     20  C   UNL     1      -2.453  16.523  21.061  0.00  0.00    +0.000 A 
ATOM     21  C   UNL     1      -3.480  16.423  22.009  0.00  0.00    +0.000 A 
ATOM     22  C   UNL     1      -3.186  16.080  23.323  0.00  0.00    +0.000 A 
ATOM     23  C   UNL     1      -1.858  15.852  23.700  0.00  0.00    +0.000 A 
ATOM     24  C   UNL     1      -0.819  15.965  22.745  0.00  0.00    +0.000 A 
BRANCH  23  25
ATOM     25  C   UNL     1      -1.616  15.493  25.123  0.00  0.00    +0.000 C 
ATOM     26  O   UNL     1      -2.480  15.031  25.845  0.00  0.00    +0.000 OA
BRANCH  25  27
ATOM     27  O   UNL     1      -0.341  15.664  25.524  0.00  0.00    +0.000 OA
ATOM     28  H   UNL     1       0.253  16.073  24.870  0.00  0.00    +0.000 HD
ENDBRANCH  25  27
ENDBRANCH  23  25
ENDBRANCH  18  19
ENDBRANCH  17  18
ENDBRANCH  15  17
ENDBRANCH   7  15
BRANCH   2  29
ATOM     29  C   UNL     1      -0.479   9.197  20.288  0.00  0.00    +0.000 C 
BRANCH  29  30
ATOM     30  N   UNL     1      -0.032   8.541  21.516  0.00  0.00    +0.000 NA
ATOM     31  H   UNL     1      -0.835   8.302  22.094  0.00  0.00    +0.000 HD
ATOM     32  H   UNL     1       0.466   9.242  22.072  0.00  0.00    +0.000 HD
ENDBRANCH  29  30
ENDBRANCH   2  29
BRANCH   3  33
ATOM     33  C   UNL     1       1.535   8.861  17.926  0.00  0.00    +0.000 C 
BRANCH  33  34
ATOM     34  C   UNL     1       2.737   8.045  18.474  0.00  0.00    +0.000 C 
ATOM     35  C   UNL     1       2.266   6.902  19.374  0.00  0.00    +0.000 C 
ATOM     36  C   UNL     1       3.633   7.484  17.364  0.00  0.00    +0.000 C 
ENDBRANCH  33  34
ENDBRANCH   3  33
TORSDOF 11
ENDMDL
MODEL 9
REMARK VINA RESULT:      -5.5      3.370      8.608
REMARK  Name = 
REMARK  15 active torsions:
REMARK  status: ('A' for Active; 'I' for Inactive)
REMARK    1  A    between atoms: C_1  and  C_2
REMARK    2  A    between atoms: C_5  and  C_6
REMARK    3  A    between atoms: C_7  and  C_8
REMARK    4  A    between atoms: C_8  and  N_9
REMARK    5  A    between atoms: C_10  and  C_11
REMARK    6  A    between atoms: C_11  and  C_12
REMARK    7  A    between atoms: C_12  and  C_13
REMARK    8  A    between atoms: C_12  and  C_14
REMARK    9  A    between atoms: C_16  and  C_17
REMARK   10  A    between atoms: C_18  and  C_19
REMARK   11  A    between atoms: C_19  and  O_21
REMARK   12  A    between atoms: O_21  and  C_22
REMARK   13  A    between atoms: C_22  and  C_23
REMARK   14  A    between atoms: C_27  and  C_28
REMARK   15  A    between atoms: C_28  and  O_30
REMARK                            x       y       z     vdW  Elec       q    Type
REMARK                         _______ _______ _______ _____ _____    ______ ____
ROOT
ATOM      1  C   UNL     1      -3.499  12.372  19.753  0.00  0.00    +0.000 A 
ATOM      2  C   UNL     1      -4.803  12.956  20.078  0.00  0.00    +0.000 A 
ATOM      3  C   UNL     1      -5.025  13.350  21.410  0.00  0.00    +0.000 A 
ATOM      4  N   UNL     1      -4.069  13.249  22.356  0.00  0.00    +0.000 NA
ATOM      5  C   UNL     1      -2.823  12.822  22.045  0.00  0.00    +0.000 A 
ATOM      6  C   UNL     1      -1.880  12.867  23.215  0.00  0.00    +0.000 C 
ATOM      7  C   UNL     1      -2.485  12.365  20.771  0.00  0.00    +0.000 A 
ENDROOT
BRANCH   1  12
ATOM      8  C   UNL     1      -2.862   9.797  14.507  0.00  0.00    +0.000 C 
ATOM      9  C   UNL     1      -3.010  10.452  15.847  0.00  0.00    +0.000 A 
ATOM     10  C   UNL     1      -2.001  11.255  16.376  0.00  0.00    +0.000 A 
ATOM     11  C   UNL     1      -2.176  11.912  17.604  0.00  0.00    +0.000 A 
ATOM     12  C   UNL     1      -3.297  11.695  18.416  0.00  0.00    +0.000 A 
ATOM     13  C   UNL     1      -4.275  10.823  17.882  0.00  0.00    +0.000 A 
ATOM     14  C   UNL     1      -4.169  10.270  16.598  0.00  0.00    +0.000 A 
ENDBRANCH   1  12
BRANCH   7  15
ATOM     15  C   UNL     1      -1.058  11.946  20.550  0.00  0.00    +0.000 C 
ATOM     16  O   UNL     1      -0.145  12.681  20.245  0.00  0.00    +0.000 OA
BRANCH  15  17
ATOM     17  O   UNL     1      -0.902  10.611  20.799  0.00  0.00    +0.000 OA
BRANCH  17  18
ATOM     18  C   UNL     1       0.427  10.135  21.056  0.00  0.00    +0.000 C 
BRANCH  18  19
ATOM     19  C   UNL     1       1.038   9.163  20.051  0.00  0.00    +0.000 A 
ATOM     20  C   UNL     1       1.208   9.566  18.713  0.00  0.00    +0.000 A 
ATOM     21  C   UNL     1       1.929   8.779  17.804  0.00  0.00    +0.000 A 
ATOM     22  C   UNL     1       2.494   7.578  18.215  0.00  0.00    +0.000 A 
ATOM     23  C   UNL     1       2.324   7.148  19.536  0.00  0.00    +0.000 A 
ATOM     24  C   UNL     1       1.584   7.935  20.450  0.00  0.00    +0.000 A 
BRANCH  23  25
ATOM     25  C   UNL     1       2.950   5.850  19.904  0.00  0.00    +0.000 C 
ATOM     26  O   UNL     1       3.848   5.342  19.260  0.00  0.00    +0.000 OA
BRANCH  25  27
ATOM     27  O   UNL     1       2.482   5.319  21.052  0.00  0.00    +0.000 OA
ATOM     28  H   UNL     1       1.666   4.795  20.968  0.00  0.00    +0.000 HD
ENDBRANCH  25  27
ENDBRANCH  23  25
ENDBRANCH  18  19
ENDBRANCH  17  18
ENDBRANCH  15  17
ENDBRANCH   7  15
BRANCH   2  29
ATOM     29  C   UNL     1      -5.902  13.048  19.021  0.00  0.00    +0.000 C 
BRANCH  29  30
ATOM     30  N   UNL     1      -6.036  14.320  18.312  0.00  0.00    +0.000 NA
ATOM     31  H   UNL     1      -5.744  15.086  18.914  0.00  0.00    +0.000 HD
ATOM     32  H   UNL     1      -7.036  14.488  18.174  0.00  0.00    +0.000 HD
ENDBRANCH  29  30
ENDBRANCH   2  29
BRANCH   3  33
ATOM     33  C   UNL     1      -6.342  13.839  22.010  0.00  0.00    +0.000 C 
BRANCH  33  34
ATOM     34  C   UNL     1      -6.249  14.032  23.548  0.00  0.00    +0.000 C 
ATOM     35  C   UNL     1      -6.571  15.473  23.946  0.00  0.00    +0.000 C 
ATOM     36  C   UNL     1      -7.159  13.074  24.324  0.00  0.00    +0.000 C 
ENDBRANCH  33  34
ENDBRANCH   3  33
TORSDOF 11
ENDMDL
