MODEL 1
REMARK VINA RESULT:      -7.9      0.000      0.000
REMARK  Name = 
REMARK  4 active torsions:
REMARK  status: ('A' for Active; 'I' for Inactive)
REMARK    1  A    between atoms: C_1  and  C_2
REMARK    2  A    between atoms: C_6  and  C_7
REMARK    3  A    between atoms: C_9  and  O_10
REMARK    4  A    between atoms: C_14  and  C_15
REMARK                            x       y       z     vdW  Elec       q    Type
REMARK                         _______ _______ _______ _____ _____    ______ ____
ROOT
ATOM      1  C   UNL     1       5.600   4.331  16.219  0.00  0.00    +0.000 A 
ATOM      2  C   UNL     1       6.396   4.775  17.267  0.00  0.00    +0.000 A 
ATOM      3  C   UNL     1       5.865   4.760  18.542  0.00  0.00    +0.000 A 
ATOM      4  C   UNL     1       4.566   4.296  18.763  0.00  0.00    +0.000 A 
ATOM      5  C   UNL     1       3.982   4.269  20.039  0.00  0.00    +0.000 A 
ATOM      6  C   UNL     1       2.697   3.781  20.194  0.00  0.00    +0.000 A 
ATOM      7  C   UNL     1       2.033   3.333  19.066  0.00  0.00    +0.000 A 
ATOM      8  C   UNL     1       0.657   2.747  19.183  0.00  0.00    +0.000 C 
ATOM      9  N   UNL     1       2.589   3.357  17.827  0.00  0.00    +0.000 NA
ATOM     10  C   UNL     1       3.829   3.832  17.659  0.00  0.00    +0.000 A 
ATOM     11  N   UNL     1       4.346   3.854  16.424  0.00  0.00    +0.000 NA
ENDROOT
BRANCH   1  17
ATOM     12  C   UNL     1       5.379   2.593  11.500  0.00  0.00    +0.000 C 
ATOM     13  C   UNL     1       6.021   3.484  12.522  0.00  0.00    +0.000 A 
ATOM     14  C   UNL     1       7.142   4.252  12.194  0.00  0.00    +0.000 A 
ATOM     15  C   UNL     1       7.727   5.077  13.150  0.00  0.00    +0.000 A 
ATOM     16  C   UNL     1       7.205   5.123  14.444  0.00  0.00    +0.000 A 
ATOM     17  C   UNL     1       6.098   4.337  14.824  0.00  0.00    +0.000 A 
ATOM     18  C   UNL     1       5.506   3.538  13.829  0.00  0.00    +0.000 A 
ENDBRANCH   1  17
BRANCH   3  19
ATOM     19  O   UNL     1       6.617   5.202  19.599  0.00  0.00    +0.000 OA
ATOM     20  H   UNL     1       6.223   4.890  20.431  0.00  0.00    +0.000 HD
ENDBRANCH   3  19
TORSDOF 2
ENDMDL
MODEL 2
REMARK VINA RESULT:      -7.8      4.898      6.161
REMARK  Name = 
REMARK  4 active torsions:
REMARK  status: ('A' for Active; 'I' for Inactive)
REMARK    1  A    between atoms: C_1  and  C_2
REMARK    2  A    between atoms: C_6  and  C_7
REMARK    3  A    between atoms: C_9  and  O_10
REMARK    4  A    between atoms: C_14  and  C_15
REMARK                            x       y       z     vdW  Elec       q    Type
REMARK                         _______ _______ _______ _____ _____    ______ ____
ROOT
ATOM      1  C   UNL     1       2.535   7.218  18.526  0.00  0.00    +0.000 A 
ATOM      2  C   UNL     1       2.540   8.334  17.698  0.00  0.00    +0.000 A 
ATOM      3  C   UNL     1       1.967   9.498  18.170  0.00  0.00    +0.000 A 
ATOM      4  C   UNL     1       1.412   9.546  19.451  0.00  0.00    +0.000 A 
ATOM      5  C   UNL     1       0.812  10.705  19.970  0.00  0.00    +0.000 A 
ATOM      6  C   UNL     1       0.296  10.693  21.253  0.00  0.00    +0.000 A 
ATOM      7  C   UNL     1       0.395   9.521  21.981  0.00  0.00    +0.000 A 
ATOM      8  C   UNL     1      -0.103   9.466  23.395  0.00  0.00    +0.000 C 
ATOM      9  N   UNL     1       0.971   8.394  21.487  0.00  0.00    +0.000 NA
ATOM     10  C   UNL     1       1.470   8.387  20.245  0.00  0.00    +0.000 A 
ATOM     11  N   UNL     1       2.022   7.259  19.781  0.00  0.00    +0.000 NA
ENDROOT
BRANCH   1  17
ATOM     12  C   UNL     1       6.485   4.529  16.943  0.00  0.00    +0.000 C 
ATOM     13  C   UNL     1       5.025   4.608  17.280  0.00  0.00    +0.000 A 
ATOM     14  C   UNL     1       4.189   3.505  17.089  0.00  0.00    +0.000 A 
ATOM     15  C   UNL     1       2.837   3.590  17.409  0.00  0.00    +0.000 A 
ATOM     16  C   UNL     1       2.312   4.785  17.903  0.00  0.00    +0.000 A 
ATOM     17  C   UNL     1       3.115   5.930  18.077  0.00  0.00    +0.000 A 
ATOM     18  C   UNL     1       4.483   5.807  17.778  0.00  0.00    +0.000 A 
ENDBRANCH   1  17
BRANCH   3  19
ATOM     19  O   UNL     1       1.943  10.616  17.377  0.00  0.00    +0.000 OA
ATOM     20  H   UNL     1       2.763  11.122  17.505  0.00  0.00    +0.000 HD
ENDBRANCH   3  19
TORSDOF 2
ENDMDL
MODEL 3
REMARK VINA RESULT:      -7.8      4.926      6.171
REMARK  Name = 
REMARK  4 active torsions:
REMARK  status: ('A' for Active; 'I' for Inactive)
REMARK    1  A    between atoms: C_1  and  C_2
REMARK    2  A    between atoms: C_6  and  C_7
REMARK    3  A    between atoms: C_9  and  O_10
REMARK    4  A    between atoms: C_14  and  C_15
REMARK                            x       y       z     vdW  Elec       q    Type
REMARK                         _______ _______ _______ _____ _____    ______ ____
ROOT
ATOM      1  C   UNL     1       2.505   7.259  18.476  0.00  0.00    +0.000 A 
ATOM      2  C   UNL     1       2.523   8.391  17.672  0.00  0.00    +0.000 A 
ATOM      3  C   UNL     1       1.968   9.554  18.169  0.00  0.00    +0.000 A 
ATOM      4  C   UNL     1       1.419   9.583  19.453  0.00  0.00    +0.000 A 
ATOM      5  C   UNL     1       0.837  10.740  19.998  0.00  0.00    +0.000 A 
ATOM      6  C   UNL     1       0.325  10.708  21.283  0.00  0.00    +0.000 A 
ATOM      7  C   UNL     1       0.410   9.521  21.986  0.00  0.00    +0.000 A 
ATOM      8  C   UNL     1      -0.083   9.444  23.401  0.00  0.00    +0.000 C 
ATOM      9  N   UNL     1       0.969   8.396  21.467  0.00  0.00    +0.000 NA
ATOM     10  C   UNL     1       1.463   8.407  20.223  0.00  0.00    +0.000 A 
ATOM     11  N   UNL     1       1.997   7.281  19.733  0.00  0.00    +0.000 NA
ENDROOT
BRANCH   1  17
ATOM     12  C   UNL     1       2.159   2.260  18.000  0.00  0.00    +0.000 C 
ATOM     13  C   UNL     1       2.926   3.530  17.779  0.00  0.00    +0.000 A 
ATOM     14  C   UNL     1       4.201   3.503  17.210  0.00  0.00    +0.000 A 
ATOM     15  C   UNL     1       4.901   4.689  17.006  0.00  0.00    +0.000 A 
ATOM     16  C   UNL     1       4.335   5.906  17.390  0.00  0.00    +0.000 A 
ATOM     17  C   UNL     1       3.065   5.973  17.999  0.00  0.00    +0.000 A 
ATOM     18  C   UNL     1       2.367   4.763  18.162  0.00  0.00    +0.000 A 
ENDBRANCH   1  17
BRANCH   3  19
ATOM     19  O   UNL     1       1.958  10.688  17.400  0.00  0.00    +0.000 OA
ATOM     20  H   UNL     1       1.355  11.341  17.792  0.00  0.00    +0.000 HD
ENDBRANCH   3  19
TORSDOF 2
ENDMDL
MODEL 4
REMARK VINA RESULT:      -7.7      1.443      6.197
REMARK  Name = 
REMARK  4 active torsions:
REMARK  status: ('A' for Active; 'I' for Inactive)
REMARK    1  A    between atoms: C_1  and  C_2
REMARK    2  A    between atoms: C_6  and  C_7
REMARK    3  A    between atoms: C_9  and  O_10
REMARK    4  A    between atoms: C_14  and  C_15
REMARK                            x       y       z     vdW  Elec       q    Type
REMARK                         _______ _______ _______ _____ _____    ______ ____
ROOT
ATOM      1  C   UNL     1       4.540   4.995  17.344  0.00  0.00    +0.000 A 
ATOM      2  C   UNL     1       5.590   5.880  17.555  0.00  0.00    +0.000 A 
ATOM      3  C   UNL     1       6.555   5.992  16.574  0.00  0.00    +0.000 A 
ATOM      4  C   UNL     1       6.462   5.241  15.399  0.00  0.00    +0.000 A 
ATOM      5  C   UNL     1       7.423   5.317  14.378  0.00  0.00    +0.000 A 
ATOM      6  C   UNL     1       7.264   4.559  13.232  0.00  0.00    +0.000 A 
ATOM      7  C   UNL     1       6.148   3.749  13.139  0.00  0.00    +0.000 A 
ATOM      8  C   UNL     1       5.900   2.944  11.897  0.00  0.00    +0.000 C 
ATOM      9  N   UNL     1       5.214   3.667  14.122  0.00  0.00    +0.000 NA
ATOM     10  C   UNL     1       5.356   4.388  15.241  0.00  0.00    +0.000 A 
ATOM     11  N   UNL     1       4.425   4.279  16.198  0.00  0.00    +0.000 NA
ENDROOT
BRANCH   1  17
ATOM     12  C   UNL     1       0.588   2.426  19.109  0.00  0.00    +0.000 C 
ATOM     13  C   UNL     1       1.535   3.583  19.226  0.00  0.00    +0.000 A 
ATOM     14  C   UNL     1       1.372   4.539  20.232  0.00  0.00    +0.000 A 
ATOM     15  C   UNL     1       2.259   5.606  20.332  0.00  0.00    +0.000 A 
ATOM     16  C   UNL     1       3.303   5.733  19.413  0.00  0.00    +0.000 A 
ATOM     17  C   UNL     1       3.480   4.810  18.363  0.00  0.00    +0.000 A 
ATOM     18  C   UNL     1       2.589   3.723  18.306  0.00  0.00    +0.000 A 
ENDBRANCH   1  17
BRANCH   3  19
ATOM     19  O   UNL     1       7.612   6.847  16.752  0.00  0.00    +0.000 OA
ATOM     20  H   UNL     1       7.280   7.725  17.004  0.00  0.00    +0.000 HD
ENDBRANCH   3  19
TORSDOF 2
ENDMDL
MODEL 5
REMARK VINA RESULT:      -7.6      5.402      7.560
REMARK  Name = 
REMARK  4 active torsions:
REMARK  status: ('A' for Active; 'I' for Inactive)
REMARK    1  A    between atoms: C_1  and  C_2
REMARK    2  A    between atoms: C_6  and  C_7
REMARK    3  A    between atoms: C_9  and  O_10
REMARK    4  A    between atoms: C_14  and  C_15
REMARK                            x       y       z     vdW  Elec       q    Type
REMARK                         _______ _______ _______ _____ _____    ______ ____
ROOT
ATOM      1  C   UNL     1       2.023   7.264  19.683  0.00  0.00    +0.000 A 
ATOM      2  C   UNL     1       2.250   8.017  18.538  0.00  0.00    +0.000 A 
ATOM      3  C   UNL     1       1.727   9.293  18.482  0.00  0.00    +0.000 A 
ATOM      4  C   UNL     1       1.002   9.810  19.559  0.00  0.00    +0.000 A 
ATOM      5  C   UNL     1       0.445  11.099  19.544  0.00  0.00    +0.000 A 
ATOM      6  C   UNL     1      -0.248  11.557  20.650  0.00  0.00    +0.000 A 
ATOM      7  C   UNL     1      -0.364  10.714  21.739  0.00  0.00    +0.000 A 
ATOM      8  C   UNL     1      -1.062  11.178  22.983  0.00  0.00    +0.000 C 
ATOM      9  N   UNL     1       0.169   9.464  21.762  0.00  0.00    +0.000 NA
ATOM     10  C   UNL     1       0.837   9.002  20.698  0.00  0.00    +0.000 A 
ATOM     11  N   UNL     1       1.342   7.762  20.745  0.00  0.00    +0.000 NA
ENDROOT
BRANCH   1  17
ATOM     12  C   UNL     1       1.675   2.634  21.628  0.00  0.00    +0.000 C 
ATOM     13  C   UNL     1       2.399   3.622  20.762  0.00  0.00    +0.000 A 
ATOM     14  C   UNL     1       3.602   3.279  20.140  0.00  0.00    +0.000 A 
ATOM     15  C   UNL     1       4.262   4.203  19.336  0.00  0.00    +0.000 A 
ATOM     16  C   UNL     1       3.731   5.483  19.166  0.00  0.00    +0.000 A 
ATOM     17  C   UNL     1       2.538   5.880  19.804  0.00  0.00    +0.000 A 
ATOM     18  C   UNL     1       1.875   4.915  20.583  0.00  0.00    +0.000 A 
ENDBRANCH   1  17
BRANCH   3  19
ATOM     19  O   UNL     1       1.921  10.061  17.363  0.00  0.00    +0.000 OA
ATOM     20  H   UNL     1       1.078  10.464  17.096  0.00  0.00    +0.000 HD
ENDBRANCH   3  19
TORSDOF 2
ENDMDL
MODEL 6
REMARK VINA RESULT:      -7.5      2.115      2.659
REMARK  Name = 
REMARK  4 active torsions:
REMARK  status: ('A' for Active; 'I' for Inactive)
REMARK    1  A    between atoms: C_1  and  C_2
REMARK    2  A    between atoms: C_6  and  C_7
REMARK    3  A    between atoms: C_9  and  O_10
REMARK    4  A    between atoms: C_14  and  C_15
REMARK                            x       y       z     vdW  Elec       q    Type
REMARK                         _______ _______ _______ _____ _____    ______ ____
ROOT
ATOM      1  C   UNL     1       4.366   4.206  16.875  0.00  0.00    +0.000 A 
ATOM      2  C   UNL     1       3.880   2.947  17.203  0.00  0.00    +0.000 A 
ATOM      3  C   UNL     1       3.003   2.841  18.264  0.00  0.00    +0.000 A 
ATOM      4  C   UNL     1       2.611   3.979  18.975  0.00  0.00    +0.000 A 
ATOM      5  C   UNL     1       1.729   3.919  20.065  0.00  0.00    +0.000 A 
ATOM      6  C   UNL     1       1.366   5.085  20.716  0.00  0.00    +0.000 A 
ATOM      7  C   UNL     1       1.897   6.276  20.258  0.00  0.00    +0.000 A 
ATOM      8  C   UNL     1       1.499   7.575  20.895  0.00  0.00    +0.000 C 
ATOM      9  N   UNL     1       2.753   6.344  19.205  0.00  0.00    +0.000 NA
ATOM     10  C   UNL     1       3.119   5.225  18.568  0.00  0.00    +0.000 A 
ATOM     11  N   UNL     1       3.974   5.321  17.541  0.00  0.00    +0.000 NA
ENDROOT
BRANCH   1  17
ATOM     12  C   UNL     1       5.798   3.233  12.148  0.00  0.00    +0.000 C 
ATOM     13  C   UNL     1       6.052   3.907  13.464  0.00  0.00    +0.000 A 
ATOM     14  C   UNL     1       7.228   4.632  13.679  0.00  0.00    +0.000 A 
ATOM     15  C   UNL     1       7.450   5.255  14.903  0.00  0.00    +0.000 A 
ATOM     16  C   UNL     1       6.506   5.140  15.925  0.00  0.00    +0.000 A 
ATOM     17  C   UNL     1       5.324   4.390  15.760  0.00  0.00    +0.000 A 
ATOM     18  C   UNL     1       5.110   3.798  14.502  0.00  0.00    +0.000 A 
ENDBRANCH   1  17
BRANCH   3  19
ATOM     19  O   UNL     1       2.512   1.613  18.623  0.00  0.00    +0.000 OA
ATOM     20  H   UNL     1       1.794   1.362  18.019  0.00  0.00    +0.000 HD
ENDBRANCH   3  19
TORSDOF 2
ENDMDL
MODEL 7
REMARK VINA RESULT:      -7.4      0.446      1.616
REMARK  Name = 
REMARK  4 active torsions:
REMARK  status: ('A' for Active; 'I' for Inactive)
REMARK    1  A    between atoms: C_1  and  C_2
REMARK    2  A    between atoms: C_6  and  C_7
REMARK    3  A    between atoms: C_9  and  O_10
REMARK    4  A    between atoms: C_14  and  C_15
REMARK                            x       y       z     vdW  Elec       q    Type
REMARK                         _______ _______ _______ _____ _____    ______ ____
ROOT
ATOM      1  C   UNL     1       5.636   4.163  16.042  0.00  0.00    +0.000 A 
ATOM      2  C   UNL     1       6.401   4.606  17.113  0.00  0.00    +0.000 A 
ATOM      3  C   UNL     1       5.839   4.575  18.374  0.00  0.00    +0.000 A 
ATOM      4  C   UNL     1       4.539   4.097  18.558  0.00  0.00    +0.000 A 
ATOM      5  C   UNL     1       3.924   4.054  19.820  0.00  0.00    +0.000 A 
ATOM      6  C   UNL     1       2.640   3.552  19.937  0.00  0.00    +0.000 A 
ATOM      7  C   UNL     1       2.009   3.108  18.790  0.00  0.00    +0.000 A 
ATOM      8  C   UNL     1       0.635   2.509  18.868  0.00  0.00    +0.000 C 
ATOM      9  N   UNL     1       2.595   3.148  17.565  0.00  0.00    +0.000 NA
ATOM     10  C   UNL     1       3.834   3.637  17.432  0.00  0.00    +0.000 A 
ATOM     11  N   UNL     1       4.382   3.674  16.211  0.00  0.00    +0.000 NA
ENDROOT
BRANCH   1  17
ATOM     12  C   UNL     1       8.811   6.051  12.623  0.00  0.00    +0.000 C 
ATOM     13  C   UNL     1       7.694   5.113  12.971  0.00  0.00    +0.000 A 
ATOM     14  C   UNL     1       7.089   4.327  11.987  0.00  0.00    +0.000 A 
ATOM     15  C   UNL     1       6.056   3.458  12.323  0.00  0.00    +0.000 A 
ATOM     16  C   UNL     1       5.609   3.386  13.644  0.00  0.00    +0.000 A 
ATOM     17  C   UNL     1       6.169   4.187  14.659  0.00  0.00    +0.000 A 
ATOM     18  C   UNL     1       7.234   5.031  14.298  0.00  0.00    +0.000 A 
ENDBRANCH   1  17
BRANCH   3  19
ATOM     19  O   UNL     1       6.560   5.015  19.453  0.00  0.00    +0.000 OA
ATOM     20  H   UNL     1       5.994   5.564  20.020  0.00  0.00    +0.000 HD
ENDBRANCH   3  19
TORSDOF 2
ENDMDL
MODEL 8
REMARK VINA RESULT:      -7.3      1.137      6.404
REMARK  Name = 
REMARK  4 active torsions:
REMARK  status: ('A' for Active; 'I' for Inactive)
REMARK    1  A    between atoms: C_1  and  C_2
REMARK    2  A    between atoms: C_6  and  C_7
REMARK    3  A    between atoms: C_9  and  O_10
REMARK    4  A    between atoms: C_14  and  C_15
REMARK                            x       y       z     vdW  Elec       q    Type
REMARK                         _______ _______ _______ _____ _____    ______ ____
ROOT
ATOM      1  C   UNL     1       4.201   4.271  17.731  0.00  0.00    +0.000 A 
ATOM      2  C   UNL     1       5.165   5.099  18.292  0.00  0.00    +0.000 A 
ATOM      3  C   UNL     1       6.248   5.460  17.515  0.00  0.00    +0.000 A 
ATOM      4  C   UNL     1       6.354   5.011  16.197  0.00  0.00    +0.000 A 
ATOM      5  C   UNL     1       7.440   5.345  15.372  0.00  0.00    +0.000 A 
ATOM      6  C   UNL     1       7.478   4.882  14.069  0.00  0.00    +0.000 A 
ATOM      7  C   UNL     1       6.428   4.097  13.628  0.00  0.00    +0.000 A 
ATOM      8  C   UNL     1       6.393   3.609  12.210  0.00  0.00    +0.000 C 
ATOM      9  N   UNL     1       5.375   3.766  14.420  0.00  0.00    +0.000 NA
ATOM     10  C   UNL     1       5.326   4.200  15.685  0.00  0.00    +0.000 A 
ATOM     11  N   UNL     1       4.280   3.848  16.445  0.00  0.00    +0.000 NA
ENDROOT
BRANCH   1  17
ATOM     12  C   UNL     1       2.104   3.043  22.139  0.00  0.00    +0.000 C 
ATOM     13  C   UNL     1       1.989   3.202  20.652  0.00  0.00    +0.000 A 
ATOM     14  C   UNL     1       0.812   2.851  19.986  0.00  0.00    +0.000 A 
ATOM     15  C   UNL     1       0.717   3.006  18.607  0.00  0.00    +0.000 A 
ATOM     16  C   UNL     1       1.807   3.496  17.883  0.00  0.00    +0.000 A 
ATOM     17  C   UNL     1       3.023   3.829  18.514  0.00  0.00    +0.000 A 
ATOM     18  C   UNL     1       3.080   3.693  19.912  0.00  0.00    +0.000 A 
ENDBRANCH   1  17
BRANCH   3  19
ATOM     19  O   UNL     1       7.225   6.266  18.039  0.00  0.00    +0.000 OA
ATOM     20  H   UNL     1       8.095   5.864  17.883  0.00  0.00    +0.000 HD
ENDBRANCH   3  19
TORSDOF 2
ENDMDL
MODEL 9
REMARK VINA RESULT:      -7.3      2.034      2.261
REMARK  Name = 
REMARK  4 active torsions:
REMARK  status: ('A' for Active; 'I' for Inactive)
REMARK    1  A    between atoms: C_1  and  C_2
REMARK    2  A    between atoms: C_6  and  C_7
REMARK    3  A    between atoms: C_9  and  O_10
REMARK    4  A    between atoms: C_14  and  C_15
REMARK                            x       y       z     vdW  Elec       q    Type
REMARK                         _______ _______ _______ _____ _____    ______ ____
ROOT
ATOM      1  C   UNL     1       5.328   4.721  16.026  0.00  0.00    +0.000 A 
ATOM      2  C   UNL     1       5.519   3.777  17.027  0.00  0.00    +0.000 A 
ATOM      3  C   UNL     1       4.928   3.999  18.255  0.00  0.00    +0.000 A 
ATOM      4  C   UNL     1       4.151   5.139  18.471  0.00  0.00    +0.000 A 
ATOM      5  C   UNL     1       3.537   5.410  19.705  0.00  0.00    +0.000 A 
ATOM      6  C   UNL     1       2.765   6.549  19.850  0.00  0.00    +0.000 A 
ATOM      7  C   UNL     1       2.628   7.383  18.756  0.00  0.00    +0.000 A 
ATOM      8  C   UNL     1       1.762   8.605  18.842  0.00  0.00    +0.000 C 
ATOM      9  N   UNL     1       3.220   7.130  17.559  0.00  0.00    +0.000 NA
ATOM     10  C   UNL     1       3.975   6.037  17.404  0.00  0.00    +0.000 A 
ATOM     11  N   UNL     1       4.555   5.820  16.216  0.00  0.00    +0.000 NA
ENDROOT
BRANCH   1  17
ATOM     12  C   UNL     1       5.471   2.459  11.532  0.00  0.00    +0.000 C 
ATOM     13  C   UNL     1       6.049   3.447  12.502  0.00  0.00    +0.000 A 
ATOM     14  C   UNL     1       7.218   4.147  12.195  0.00  0.00    +0.000 A 
ATOM     15  C   UNL     1       7.742   5.063  13.101  0.00  0.00    +0.000 A 
ATOM     16  C   UNL     1       7.110   5.269  14.329  0.00  0.00    +0.000 A 
ATOM     17  C   UNL     1       5.948   4.557  14.690  0.00  0.00    +0.000 A 
ATOM     18  C   UNL     1       5.421   3.662  13.742  0.00  0.00    +0.000 A 
ENDBRANCH   1  17
BRANCH   3  19
ATOM     19  O   UNL     1       5.104   3.094  19.269  0.00  0.00    +0.000 OA
ATOM     20  H   UNL     1       4.352   2.479  19.290  0.00  0.00    +0.000 HD
ENDBRANCH   3  19
TORSDOF 2
ENDMDL
