MODEL 1
REMARK VINA RESULT:      -6.9      0.000      0.000
REMARK  Name = 
REMARK  9 active torsions:
REMARK  status: ('A' for Active; 'I' for Inactive)
REMARK    1  A    between atoms: C_1  and  C_2
REMARK    2  A    between atoms: C_4  and  C_5
REMARK    3  A    between atoms: C_7  and  O_8
REMARK    4  A    between atoms: O_8  and  C_9
REMARK    5  A    between atoms: C_9  and  C_10
REMARK    6  A    between atoms: C_10  and  C_11
REMARK    7  A    between atoms: C_11  and  N_12
REMARK    8  A    between atoms: C_16  and  C_17
REMARK    9  A    between atoms: C_17  and  O_19
REMARK                            x       y       z     vdW  Elec       q    Type
REMARK                         _______ _______ _______ _____ _____    ______ ____
ROOT
ATOM      1  C   UNL     1       2.349   6.507  18.061  0.00  0.00    +0.000 C 
ENDROOT
BRANCH   1   2
ATOM      2  C   UNL     1       3.408   7.608  17.968  0.00  0.00    +0.000 C 
BRANCH   2   3
ATOM      3  O   UNL     1       4.035   7.547  16.683  0.00  0.00    +0.000 OA
BRANCH   3  10
ATOM      4  C   UNL     1       6.433   3.930  14.256  0.00  0.00    +0.000 C 
ATOM      5  C   UNL     1       6.266   4.836  15.443  0.00  0.00    +0.000 A 
ATOM      6  C   UNL     1       7.134   4.755  16.538  0.00  0.00    +0.000 A 
ATOM      7  C   UNL     1       6.951   5.582  17.651  0.00  0.00    +0.000 A 
ATOM      8  C   UNL     1       7.886   5.505  18.823  0.00  0.00    +0.000 C 
ATOM      9  C   UNL     1       5.893   6.504  17.656  0.00  0.00    +0.000 A 
ATOM     10  C   UNL     1       5.033   6.613  16.560  0.00  0.00    +0.000 A 
ATOM     11  C   UNL     1       5.214   5.765  15.465  0.00  0.00    +0.000 A 
ENDBRANCH   3  10
ENDBRANCH   2   3
ENDBRANCH   1   2
BRANCH   1  12
ATOM     12  C   UNL     1       2.613   5.508  19.204  0.00  0.00    +0.000 C 
BRANCH  12  13
ATOM     13  N   UNL     1       2.239   4.124  18.855  0.00  0.00    +0.000 NA
ATOM     14  C   UNL     1       2.885   3.689  17.603  0.00  0.00    +0.000 C 
ATOM     15  C   UNL     1       2.599   2.206  17.614  0.00  0.00    +0.000 C 
ATOM     16  C   UNL     1       2.877   1.814  19.056  0.00  0.00    +0.000 C 
ATOM     17  C   UNL     1       2.696   3.106  19.863  0.00  0.00    +0.000 C 
BRANCH  17  18
ATOM     18  C   UNL     1       1.641   2.893  20.953  0.00  0.00    +0.000 C 
ATOM     19  O   UNL     1       1.888   2.539  22.096  0.00  0.00    +0.000 OA
BRANCH  18  20
ATOM     20  O   UNL     1       0.379   3.107  20.503  0.00  0.00    +0.000 OA
ATOM     21  H   UNL     1       0.387   2.871  19.548  0.00  0.00    +0.000 HD
ENDBRANCH  18  20
ENDBRANCH  17  18
ENDBRANCH  12  13
ENDBRANCH   1  12
TORSDOF 7
ENDMDL
MODEL 2
REMARK VINA RESULT:      -6.8      1.713      2.270
REMARK  Name = 
REMARK  9 active torsions:
REMARK  status: ('A' for Active; 'I' for Inactive)
REMARK    1  A    between atoms: C_1  and  C_2
REMARK    2  A    between atoms: C_4  and  C_5
REMARK    3  A    between atoms: C_7  and  O_8
REMARK    4  A    between atoms: O_8  and  C_9
REMARK    5  A    between atoms: C_9  and  C_10
REMARK    6  A    between atoms: C_10  and  C_11
REMARK    7  A    between atoms: C_11  and  N_12
REMARK    8  A    between atoms: C_16  and  C_17
REMARK    9  A    between atoms: C_17  and  O_19
REMARK                            x       y       z     vdW  Elec       q    Type
REMARK                         _______ _______ _______ _____ _____    ______ ____
ROOT
ATOM      1  C   UNL     1       1.762   5.158  17.561  0.00  0.00    +0.000 C 
ENDROOT
BRANCH   1   2
ATOM      2  C   UNL     1       2.722   6.070  18.328  0.00  0.00    +0.000 C 
BRANCH   2   3
ATOM      3  O   UNL     1       3.565   6.753  17.394  0.00  0.00    +0.000 OA
BRANCH   3  10
ATOM      4  C   UNL     1       6.566   4.119  14.433  0.00  0.00    +0.000 C 
ATOM      5  C   UNL     1       6.285   4.839  15.722  0.00  0.00    +0.000 A 
ATOM      6  C   UNL     1       7.240   4.886  16.743  0.00  0.00    +0.000 A 
ATOM      7  C   UNL     1       6.957   5.533  17.950  0.00  0.00    +0.000 A 
ATOM      8  C   UNL     1       7.983   5.596  19.045  0.00  0.00    +0.000 C 
ATOM      9  C   UNL     1       5.705   6.145  18.125  0.00  0.00    +0.000 A 
ATOM     10  C   UNL     1       4.750   6.125  17.106  0.00  0.00    +0.000 A 
ATOM     11  C   UNL     1       5.039   5.456  15.913  0.00  0.00    +0.000 A 
ENDBRANCH   3  10
ENDBRANCH   2   3
ENDBRANCH   1   2
BRANCH   1  12
ATOM     12  C   UNL     1       1.392   3.879  18.336  0.00  0.00    +0.000 C 
BRANCH  12  13
ATOM     13  N   UNL     1       2.098   3.765  19.627  0.00  0.00    +0.000 NA
ATOM     14  C   UNL     1       1.151   3.642  20.751  0.00  0.00    +0.000 C 
ATOM     15  C   UNL     1       2.073   3.255  21.883  0.00  0.00    +0.000 C 
ATOM     16  C   UNL     1       2.985   2.221  21.243  0.00  0.00    +0.000 C 
ATOM     17  C   UNL     1       2.946   2.530  19.741  0.00  0.00    +0.000 C 
BRANCH  17  18
ATOM     18  C   UNL     1       4.367   2.783  19.228  0.00  0.00    +0.000 C 
ATOM     19  O   UNL     1       5.301   3.145  19.926  0.00  0.00    +0.000 OA
BRANCH  18  20
ATOM     20  O   UNL     1       4.477   2.595  17.889  0.00  0.00    +0.000 OA
ATOM     21  H   UNL     1       3.651   2.957  17.494  0.00  0.00    +0.000 HD
ENDBRANCH  18  20
ENDBRANCH  17  18
ENDBRANCH  12  13
ENDBRANCH   1  12
TORSDOF 7
ENDMDL
MODEL 3
REMARK VINA RESULT:      -6.6      1.828      2.168
REMARK  Name = 
REMARK  9 active torsions:
REMARK  status: ('A' for Active; 'I' for Inactive)
REMARK    1  A    between atoms: C_1  and  C_2
REMARK    2  A    between atoms: C_4  and  C_5
REMARK    3  A    between atoms: C_7  and  O_8
REMARK    4  A    between atoms: O_8  and  C_9
REMARK    5  A    between atoms: C_9  and  C_10
REMARK    6  A    between atoms: C_10  and  C_11
REMARK    7  A    between atoms: C_11  and  N_12
REMARK    8  A    between atoms: C_16  and  C_17
REMARK    9  A    between atoms: C_17  and  O_19
REMARK                            x       y       z     vdW  Elec       q    Type
REMARK                         _______ _______ _______ _____ _____    ______ ____
ROOT
ATOM      1  C   UNL     1       3.737   5.279  19.904  0.00  0.00    +0.000 C 
ENDROOT
BRANCH   1   2
ATOM      2  C   UNL     1       3.083   6.397  19.089  0.00  0.00    +0.000 C 
BRANCH   2   3
ATOM      3  O   UNL     1       3.080   6.027  17.706  0.00  0.00    +0.000 OA
BRANCH   3  10
ATOM      4  C   UNL     1       6.312   3.826  14.637  0.00  0.00    +0.000 C 
ATOM      5  C   UNL     1       5.966   4.874  15.656  0.00  0.00    +0.000 A 
ATOM      6  C   UNL     1       6.928   5.783  16.110  0.00  0.00    +0.000 A 
ATOM      7  C   UNL     1       6.603   6.735  17.082  0.00  0.00    +0.000 A 
ATOM      8  C   UNL     1       7.629   7.719  17.564  0.00  0.00    +0.000 C 
ATOM      9  C   UNL     1       5.295   6.777  17.592  0.00  0.00    +0.000 A 
ATOM     10  C   UNL     1       4.318   5.892  17.131  0.00  0.00    +0.000 A 
ATOM     11  C   UNL     1       4.663   4.931  16.177  0.00  0.00    +0.000 A 
ENDBRANCH   3  10
ENDBRANCH   2   3
ENDBRANCH   1   2
BRANCH   1  12
ATOM     12  C   UNL     1       2.732   4.488  20.764  0.00  0.00    +0.000 C 
BRANCH  12  13
ATOM     13  N   UNL     1       2.232   3.273  20.092  0.00  0.00    +0.000 NA
ATOM     14  C   UNL     1       0.916   3.505  19.468  0.00  0.00    +0.000 C 
ATOM     15  C   UNL     1       0.758   2.261  18.625  0.00  0.00    +0.000 C 
ATOM     16  C   UNL     1       2.132   2.095  17.998  0.00  0.00    +0.000 C 
ATOM     17  C   UNL     1       3.094   2.823  18.946  0.00  0.00    +0.000 C 
BRANCH  17  18
ATOM     18  C   UNL     1       4.184   1.857  19.419  0.00  0.00    +0.000 C 
ATOM     19  O   UNL     1       4.914   2.052  20.379  0.00  0.00    +0.000 OA
BRANCH  18  20
ATOM     20  O   UNL     1       4.283   0.758  18.629  0.00  0.00    +0.000 OA
ATOM     21  H   UNL     1       5.019   0.221  19.001  0.00  0.00    +0.000 HD
ENDBRANCH  18  20
ENDBRANCH  17  18
ENDBRANCH  12  13
ENDBRANCH   1  12
TORSDOF 7
ENDMDL
MODEL 4
REMARK VINA RESULT:      -6.5      5.549      8.779
REMARK  Name = 
REMARK  9 active torsions:
REMARK  status: ('A' for Active; 'I' for Inactive)
REMARK    1  A    between atoms: C_1  and  C_2
REMARK    2  A    between atoms: C_4  and  C_5
REMARK    3  A    between atoms: C_7  and  O_8
REMARK    4  A    between atoms: O_8  and  C_9
REMARK    5  A    between atoms: C_9  and  C_10
REMARK    6  A    between atoms: C_10  and  C_11
REMARK    7  A    between atoms: C_11  and  N_12
REMARK    8  A    between atoms: C_16  and  C_17
REMARK    9  A    between atoms: C_17  and  O_19
REMARK                            x       y       z     vdW  Elec       q    Type
REMARK                         _______ _______ _______ _____ _____    ______ ____
ROOT
ATOM      1  C   UNL     1       8.766   9.228  18.520  0.00  0.00    +0.000 C 
ENDROOT
BRANCH   1   2
ATOM      2  C   UNL     1       7.905   8.266  17.697  0.00  0.00    +0.000 C 
BRANCH   2   3
ATOM      3  O   UNL     1       7.873   6.992  18.349  0.00  0.00    +0.000 OA
BRANCH   3  10
ATOM      4  C   UNL     1       5.993   4.497  14.483  0.00  0.00    +0.000 C 
ATOM      5  C   UNL     1       6.054   4.799  15.953  0.00  0.00    +0.000 A 
ATOM      6  C   UNL     1       5.207   4.150  16.858  0.00  0.00    +0.000 A 
ATOM      7  C   UNL     1       5.251   4.461  18.220  0.00  0.00    +0.000 A 
ATOM      8  C   UNL     1       4.351   3.759  19.196  0.00  0.00    +0.000 C 
ATOM      9  C   UNL     1       6.163   5.427  18.676  0.00  0.00    +0.000 A 
ATOM     10  C   UNL     1       7.031   6.066  17.788  0.00  0.00    +0.000 A 
ATOM     11  C   UNL     1       6.960   5.761  16.426  0.00  0.00    +0.000 A 
ENDBRANCH   3  10
ENDBRANCH   2   3
ENDBRANCH   1   2
BRANCH   1  12
ATOM     12  C   UNL     1       8.569  10.705  18.128  0.00  0.00    +0.000 C 
BRANCH  12  13
ATOM     13  N   UNL     1       9.302  11.636  19.007  0.00  0.00    +0.000 NA
ATOM     14  C   UNL     1       9.183  11.246  20.424  0.00  0.00    +0.000 C 
ATOM     15  C   UNL     1      10.218  12.137  21.070  0.00  0.00    +0.000 C 
ATOM     16  C   UNL     1      11.396  12.042  20.116  0.00  0.00    +0.000 C 
ATOM     17  C   UNL     1      10.785  11.649  18.764  0.00  0.00    +0.000 C 
BRANCH  17  18
ATOM     18  C   UNL     1      11.164  12.686  17.703  0.00  0.00    +0.000 C 
ATOM     19  O   UNL     1      10.631  13.779  17.581  0.00  0.00    +0.000 OA
BRANCH  18  20
ATOM     20  O   UNL     1      12.147  12.249  16.877  0.00  0.00    +0.000 OA
ATOM     21  H   UNL     1      12.818  12.967  16.848  0.00  0.00    +0.000 HD
ENDBRANCH  18  20
ENDBRANCH  17  18
ENDBRANCH  12  13
ENDBRANCH   1  12
TORSDOF 7
ENDMDL
MODEL 5
REMARK VINA RESULT:      -6.5      1.329      2.531
REMARK  Name = 
REMARK  9 active torsions:
REMARK  status: ('A' for Active; 'I' for Inactive)
REMARK    1  A    between atoms: C_1  and  C_2
REMARK    2  A    between atoms: C_4  and  C_5
REMARK    3  A    between atoms: C_7  and  O_8
REMARK    4  A    between atoms: O_8  and  C_9
REMARK    5  A    between atoms: C_9  and  C_10
REMARK    6  A    between atoms: C_10  and  C_11
REMARK    7  A    between atoms: C_11  and  N_12
REMARK    8  A    between atoms: C_16  and  C_17
REMARK    9  A    between atoms: C_17  and  O_19
REMARK                            x       y       z     vdW  Elec       q    Type
REMARK                         _______ _______ _______ _____ _____    ______ ____
ROOT
ATOM      1  C   UNL     1       2.718   5.594  20.195  0.00  0.00    +0.000 C 
ENDROOT
BRANCH   1   2
ATOM      2  C   UNL     1       2.845   6.706  19.151  0.00  0.00    +0.000 C 
BRANCH   2   3
ATOM      3  O   UNL     1       3.101   6.120  17.871  0.00  0.00    +0.000 OA
BRANCH   3  10
ATOM      4  C   UNL     1       7.895   5.796  19.146  0.00  0.00    +0.000 C 
ATOM      5  C   UNL     1       6.760   5.517  18.202  0.00  0.00    +0.000 A 
ATOM      6  C   UNL     1       6.975   4.835  16.999  0.00  0.00    +0.000 A 
ATOM      7  C   UNL     1       5.917   4.608  16.114  0.00  0.00    +0.000 A 
ATOM      8  C   UNL     1       6.141   3.868  14.827  0.00  0.00    +0.000 C 
ATOM      9  C   UNL     1       4.631   5.061  16.448  0.00  0.00    +0.000 A 
ATOM     10  C   UNL     1       4.397   5.722  17.656  0.00  0.00    +0.000 A 
ATOM     11  C   UNL     1       5.468   5.962  18.521  0.00  0.00    +0.000 A 
ENDBRANCH   3  10
ENDBRANCH   2   3
ENDBRANCH   1   2
BRANCH   1  12
ATOM     12  C   UNL     1       1.517   4.662  19.945  0.00  0.00    +0.000 C 
BRANCH  12  13
ATOM     13  N   UNL     1       1.917   3.324  19.468  0.00  0.00    +0.000 NA
ATOM     14  C   UNL     1       1.716   3.187  18.014  0.00  0.00    +0.000 C 
ATOM     15  C   UNL     1       2.445   1.895  17.728  0.00  0.00    +0.000 C 
ATOM     16  C   UNL     1       3.723   2.036  18.538  0.00  0.00    +0.000 C 
ATOM     17  C   UNL     1       3.380   3.033  19.653  0.00  0.00    +0.000 C 
BRANCH  17  18
ATOM     18  C   UNL     1       3.650   2.394  21.019  0.00  0.00    +0.000 C 
ATOM     19  O   UNL     1       2.864   2.401  21.954  0.00  0.00    +0.000 OA
BRANCH  18  20
ATOM     20  O   UNL     1       4.885   1.840  21.098  0.00  0.00    +0.000 OA
ATOM     21  H   UNL     1       5.418   2.442  21.665  0.00  0.00    +0.000 HD
ENDBRANCH  18  20
ENDBRANCH  17  18
ENDBRANCH  12  13
ENDBRANCH   1  12
TORSDOF 7
ENDMDL
MODEL 6
REMARK VINA RESULT:      -6.5      5.382      7.111
REMARK  Name = 
REMARK  9 active torsions:
REMARK  status: ('A' for Active; 'I' for Inactive)
REMARK    1  A    between atoms: C_1  and  C_2
REMARK    2  A    between atoms: C_4  and  C_5
REMARK    3  A    between atoms: C_7  and  O_8
REMARK    4  A    between atoms: O_8  and  C_9
REMARK    5  A    between atoms: C_9  and  C_10
REMARK    6  A    between atoms: C_10  and  C_11
REMARK    7  A    between atoms: C_11  and  N_12
REMARK    8  A    between atoms: C_16  and  C_17
REMARK    9  A    between atoms: C_17  and  O_19
REMARK                            x       y       z     vdW  Elec       q    Type
REMARK                         _______ _______ _______ _____ _____    ______ ____
ROOT
ATOM      1  C   UNL     1       7.743   7.732  17.871  0.00  0.00    +0.000 C 
ENDROOT
BRANCH   1   2
ATOM      2  C   UNL     1       8.070   9.227  17.912  0.00  0.00    +0.000 C 
BRANCH   2   3
ATOM      3  O   UNL     1       9.034   9.467  18.943  0.00  0.00    +0.000 OA
BRANCH   3  10
ATOM      4  C   UNL     1      11.498  13.241  16.845  0.00  0.00    +0.000 C 
ATOM      5  C   UNL     1      10.775  12.622  18.008  0.00  0.00    +0.000 A 
ATOM      6  C   UNL     1      10.637  13.310  19.218  0.00  0.00    +0.000 A 
ATOM      7  C   UNL     1       9.990  12.713  20.304  0.00  0.00    +0.000 A 
ATOM      8  C   UNL     1       9.831  13.451  21.602  0.00  0.00    +0.000 C 
ATOM      9  C   UNL     1       9.469  11.416  20.166  0.00  0.00    +0.000 A 
ATOM     10  C   UNL     1       9.578  10.726  18.956  0.00  0.00    +0.000 A 
ATOM     11  C   UNL     1      10.248  11.327  17.887  0.00  0.00    +0.000 A 
ENDBRANCH   3  10
ENDBRANCH   2   3
ENDBRANCH   1   2
BRANCH   1  12
ATOM     12  C   UNL     1       6.288   7.442  17.458  0.00  0.00    +0.000 C 
BRANCH  12  13
ATOM     13  N   UNL     1       5.959   6.003  17.484  0.00  0.00    +0.000 NA
ATOM     14  C   UNL     1       4.644   5.762  18.106  0.00  0.00    +0.000 C 
ATOM     15  C   UNL     1       4.408   4.310  17.759  0.00  0.00    +0.000 C 
ATOM     16  C   UNL     1       4.842   4.229  16.306  0.00  0.00    +0.000 C 
ATOM     17  C   UNL     1       5.823   5.394  16.116  0.00  0.00    +0.000 C 
BRANCH  17  18
ATOM     18  C   UNL     1       7.167   4.862  15.610  0.00  0.00    +0.000 C 
ATOM     19  O   UNL     1       7.627   5.085  14.501  0.00  0.00    +0.000 OA
BRANCH  18  20
ATOM     20  O   UNL     1       7.790   4.075  16.523  0.00  0.00    +0.000 OA
ATOM     21  H   UNL     1       8.182   3.328  16.015  0.00  0.00    +0.000 HD
ENDBRANCH  18  20
ENDBRANCH  17  18
ENDBRANCH  12  13
ENDBRANCH   1  12
TORSDOF 7
ENDMDL
MODEL 7
REMARK VINA RESULT:      -6.5      5.111      7.036
REMARK  Name = 
REMARK  9 active torsions:
REMARK  status: ('A' for Active; 'I' for Inactive)
REMARK    1  A    between atoms: C_1  and  C_2
REMARK    2  A    between atoms: C_4  and  C_5
REMARK    3  A    between atoms: C_7  and  O_8
REMARK    4  A    between atoms: O_8  and  C_9
REMARK    5  A    between atoms: C_9  and  C_10
REMARK    6  A    between atoms: C_10  and  C_11
REMARK    7  A    between atoms: C_11  and  N_12
REMARK    8  A    between atoms: C_16  and  C_17
REMARK    9  A    between atoms: C_17  and  O_19
REMARK                            x       y       z     vdW  Elec       q    Type
REMARK                         _______ _______ _______ _____ _____    ______ ____
ROOT
ATOM      1  C   UNL     1       7.722   7.443  17.581  0.00  0.00    +0.000 C 
ENDROOT
BRANCH   1   2
ATOM      2  C   UNL     1       7.983   8.929  17.838  0.00  0.00    +0.000 C 
BRANCH   2   3
ATOM      3  O   UNL     1       8.913   9.061  18.918  0.00  0.00    +0.000 OA
BRANCH   3  10
ATOM      4  C   UNL     1       9.579  12.962  21.927  0.00  0.00    +0.000 C 
ATOM      5  C   UNL     1       9.692  12.298  20.584  0.00  0.00    +0.000 A 
ATOM      6  C   UNL     1      10.221  12.983  19.484  0.00  0.00    +0.000 A 
ATOM      7  C   UNL     1      10.294  12.366  18.231  0.00  0.00    +0.000 A 
ATOM      8  C   UNL     1      10.870  13.093  17.051  0.00  0.00    +0.000 C 
ATOM      9  C   UNL     1       9.838  11.045  18.088  0.00  0.00    +0.000 A 
ATOM     10  C   UNL     1       9.329  10.341  19.182  0.00  0.00    +0.000 A 
ATOM     11  C   UNL     1       9.242  10.978  20.422  0.00  0.00    +0.000 A 
ENDBRANCH   3  10
ENDBRANCH   2   3
ENDBRANCH   1   2
BRANCH   1  12
ATOM     12  C   UNL     1       6.246   7.132  17.265  0.00  0.00    +0.000 C 
BRANCH  12  13
ATOM     13  N   UNL     1       5.918   5.700  17.404  0.00  0.00    +0.000 NA
ATOM     14  C   UNL     1       4.798   5.492  18.341  0.00  0.00    +0.000 C 
ATOM     15  C   UNL     1       4.466   4.039  18.098  0.00  0.00    +0.000 C 
ATOM     16  C   UNL     1       4.520   3.924  16.583  0.00  0.00    +0.000 C 
ATOM     17  C   UNL     1       5.436   5.068  16.128  0.00  0.00    +0.000 C 
BRANCH  17  18
ATOM     18  C   UNL     1       6.603   4.504  15.314  0.00  0.00    +0.000 C 
ATOM     19  O   UNL     1       7.750   4.922  15.366  0.00  0.00    +0.000 OA
BRANCH  18  20
ATOM     20  O   UNL     1       6.222   3.497  14.489  0.00  0.00    +0.000 OA
ATOM     21  H   UNL     1       6.370   2.663  14.992  0.00  0.00    +0.000 HD
ENDBRANCH  18  20
ENDBRANCH  17  18
ENDBRANCH  12  13
ENDBRANCH   1  12
TORSDOF 7
ENDMDL
MODEL 8
REMARK VINA RESULT:      -6.5      1.545      2.701
REMARK  Name = 
REMARK  9 active torsions:
REMARK  status: ('A' for Active; 'I' for Inactive)
REMARK    1  A    between atoms: C_1  and  C_2
REMARK    2  A    between atoms: C_4  and  C_5
REMARK    3  A    between atoms: C_7  and  O_8
REMARK    4  A    between atoms: O_8  and  C_9
REMARK    5  A    between atoms: C_9  and  C_10
REMARK    6  A    between atoms: C_10  and  C_11
REMARK    7  A    between atoms: C_11  and  N_12
REMARK    8  A    between atoms: C_16  and  C_17
REMARK    9  A    between atoms: C_17  and  O_19
REMARK                            x       y       z     vdW  Elec       q    Type
REMARK                         _______ _______ _______ _____ _____    ______ ____
ROOT
ATOM      1  C   UNL     1       2.482   6.260  18.739  0.00  0.00    +0.000 C 
ENDROOT
BRANCH   1   2
ATOM      2  C   UNL     1       3.321   7.459  18.290  0.00  0.00    +0.000 C 
BRANCH   2   3
ATOM      3  O   UNL     1       3.842   7.202  16.982  0.00  0.00    +0.000 OA
BRANCH   3  10
ATOM      4  C   UNL     1       8.099   5.467  18.875  0.00  0.00    +0.000 C 
ATOM      5  C   UNL     1       7.057   5.509  17.794  0.00  0.00    +0.000 A 
ATOM      6  C   UNL     1       7.192   4.737  16.634  0.00  0.00    +0.000 A 
ATOM      7  C   UNL     1       6.232   4.807  15.620  0.00  0.00    +0.000 A 
ATOM      8  C   UNL     1       6.367   3.973  14.378  0.00  0.00    +0.000 C 
ATOM      9  C   UNL     1       5.123   5.653  15.779  0.00  0.00    +0.000 A 
ATOM     10  C   UNL     1       4.963   6.411  16.942  0.00  0.00    +0.000 A 
ATOM     11  C   UNL     1       5.941   6.348  17.937  0.00  0.00    +0.000 A 
ENDBRANCH   3  10
ENDBRANCH   2   3
ENDBRANCH   1   2
BRANCH   1  12
ATOM     12  C   UNL     1       3.169   5.412  19.826  0.00  0.00    +0.000 C 
BRANCH  12  13
ATOM     13  N   UNL     1       2.515   4.106  20.035  0.00  0.00    +0.000 NA
ATOM     14  C   UNL     1       1.050   4.243  20.117  0.00  0.00    +0.000 C 
ATOM     15  C   UNL     1       0.606   2.802  20.036  0.00  0.00    +0.000 C 
ATOM     16  C   UNL     1       1.484   2.234  18.933  0.00  0.00    +0.000 C 
ATOM     17  C   UNL     1       2.720   3.143  18.900  0.00  0.00    +0.000 C 
BRANCH  17  18
ATOM     18  C   UNL     1       3.985   2.304  19.105  0.00  0.00    +0.000 C 
ATOM     19  O   UNL     1       4.836   2.530  19.952  0.00  0.00    +0.000 OA
BRANCH  18  20
ATOM     20  O   UNL     1       4.083   1.287  18.213  0.00  0.00    +0.000 OA
ATOM     21  H   UNL     1       3.722   1.632  17.365  0.00  0.00    +0.000 HD
ENDBRANCH  18  20
ENDBRANCH  17  18
ENDBRANCH  12  13
ENDBRANCH   1  12
TORSDOF 7
ENDMDL
MODEL 9
REMARK VINA RESULT:      -6.5      0.708      1.001
REMARK  Name = 
REMARK  9 active torsions:
REMARK  status: ('A' for Active; 'I' for Inactive)
REMARK    1  A    between atoms: C_1  and  C_2
REMARK    2  A    between atoms: C_4  and  C_5
REMARK    3  A    between atoms: C_7  and  O_8
REMARK    4  A    between atoms: O_8  and  C_9
REMARK    5  A    between atoms: C_9  and  C_10
REMARK    6  A    between atoms: C_10  and  C_11
REMARK    7  A    between atoms: C_11  and  N_12
REMARK    8  A    between atoms: C_16  and  C_17
REMARK    9  A    between atoms: C_17  and  O_19
REMARK                            x       y       z     vdW  Elec       q    Type
REMARK                         _______ _______ _______ _____ _____    ______ ____
ROOT
ATOM      1  C   UNL     1       2.416   6.353  17.970  0.00  0.00    +0.000 C 
ENDROOT
BRANCH   1   2
ATOM      2  C   UNL     1       3.393   7.529  17.905  0.00  0.00    +0.000 C 
BRANCH   2   3
ATOM      3  O   UNL     1       4.041   7.529  16.629  0.00  0.00    +0.000 OA
BRANCH   3  10
ATOM      4  C   UNL     1       6.549   4.027  14.146  0.00  0.00    +0.000 C 
ATOM      5  C   UNL     1       6.356   4.909  15.347  0.00  0.00    +0.000 A 
ATOM      6  C   UNL     1       7.226   4.839  16.440  0.00  0.00    +0.000 A 
ATOM      7  C   UNL     1       7.019   5.643  17.565  0.00  0.00    +0.000 A 
ATOM      8  C   UNL     1       7.957   5.578  18.736  0.00  0.00    +0.000 C 
ATOM      9  C   UNL     1       5.932   6.531  17.585  0.00  0.00    +0.000 A 
ATOM     10  C   UNL     1       5.068   6.629  16.492  0.00  0.00    +0.000 A 
ATOM     11  C   UNL     1       5.274   5.803  15.383  0.00  0.00    +0.000 A 
ENDBRANCH   3  10
ENDBRANCH   2   3
ENDBRANCH   1   2
BRANCH   1  12
ATOM     12  C   UNL     1       2.842   5.266  18.975  0.00  0.00    +0.000 C 
BRANCH  12  13
ATOM     13  N   UNL     1       2.742   3.901  18.422  0.00  0.00    +0.000 NA
ATOM     14  C   UNL     1       4.014   3.472  17.813  0.00  0.00    +0.000 C 
ATOM     15  C   UNL     1       3.763   1.998  17.595  0.00  0.00    +0.000 C 
ATOM     16  C   UNL     1       3.096   1.569  18.891  0.00  0.00    +0.000 C 
ATOM     17  C   UNL     1       2.474   2.850  19.463  0.00  0.00    +0.000 C 
BRANCH  17  18
ATOM     18  C   UNL     1       0.971   2.647  19.672  0.00  0.00    +0.000 C 
ATOM     19  O   UNL     1       0.205   2.219  18.822  0.00  0.00    +0.000 OA
BRANCH  18  20
ATOM     20  O   UNL     1       0.562   3.030  20.908  0.00  0.00    +0.000 OA
ATOM     21  H   UNL     1       0.749   2.269  21.504  0.00  0.00    +0.000 HD
ENDBRANCH  18  20
ENDBRANCH  17  18
ENDBRANCH  12  13
ENDBRANCH   1  12
TORSDOF 7
ENDMDL
