MODEL 1
REMARK VINA RESULT:      -8.6      0.000      0.000
REMARK  Name = 
REMARK  11 active torsions:
REMARK  status: ('A' for Active; 'I' for Inactive)
REMARK    1  A    between atoms: C_1  and  C_2
REMARK    2  A    between atoms: C_3  and  S_4
REMARK    3  A    between atoms: S_4  and  C_5
REMARK    4  A    between atoms: C_8  and  C_9
REMARK    5  A    between atoms: N_11  and  CA_12
REMARK    6  A    between atoms: CA_12  and  CB_13
REMARK    7  A    between atoms: CA_12  and  C_18
REMARK    8  A    between atoms: CB_13  and  CG_14
REMARK    9  A    between atoms: CG_14  and  CD_15
REMARK   10  A    between atoms: CD_15  and  OE2_17
REMARK   11  A    between atoms: C_18  and  OXT_20
REMARK                            x       y       z     vdW  Elec       q    Type
REMARK                         _______ _______ _______ _____ _____    ______ ____
ROOT
ATOM      1  C   UNK A   0       1.300   9.730  19.381  0.00  0.00    +0.000 A 
ATOM      2  C   UNK A   0       1.977   9.296  18.237  0.00  0.00    +0.000 A 
ATOM      3  C   UNK A   0       2.507   8.001  18.177  0.00  0.00    +0.000 A 
ATOM      4  C   UNK A   0       2.361   7.116  19.253  0.00  0.00    +0.000 A 
ATOM      5  C   UNK A   0       1.707   7.556  20.410  0.00  0.00    +0.000 A 
ATOM      6  C   UNK A   0       1.191   8.859  20.472  0.00  0.00    +0.000 A 
ENDROOT
BRANCH   4   7
ATOM      7  C   UNK A   0       2.952   5.751  19.125  0.00  0.00    +0.000 C 
ATOM      8  O   UNK A   0       3.128   5.059  20.122  0.00  0.00    +0.000 OA
ATOM      9  N   GLU A   1       3.302   5.330  17.862  0.00  0.00    +0.000 N 
ATOM     10  H   GLU A   1       3.264   5.972  17.078  0.00  0.00    +0.000 HD
BRANCH   9  11
ATOM     11  CA  GLU A   1       3.965   4.040  17.629  0.00  0.00    +0.000 C 
BRANCH  11  12
ATOM     12  C   GLU A   1       4.970   4.251  16.491  0.00  0.00    +0.000 C 
ATOM     13  O   GLU A   1       5.088   5.311  15.888  0.00  0.00    +0.000 OA
BRANCH  12  14
ATOM     14  OXT GLU A   1       5.743   3.178  16.217  0.00  0.00    +0.000 OA
ATOM     15  HXT GLU A   1       5.261   2.328  16.106  0.00  0.00    +0.000 HD
ENDBRANCH  12  14
ENDBRANCH  11  12
BRANCH  11  16
ATOM     16  CB  GLU A   1       2.944   2.948  17.254  0.00  0.00    +0.000 C 
BRANCH  16  17
ATOM     17  CG  GLU A   1       2.660   1.932  18.355  0.00  0.00    +0.000 C 
BRANCH  17  18
ATOM     18  CD  GLU A   1       1.351   2.235  19.033  0.00  0.00    +0.000 C 
ATOM     19  OE1 GLU A   1       0.280   2.172  18.442  0.00  0.00    +0.000 OA
BRANCH  18  20
ATOM     20  OE2 GLU A   1       1.462   2.484  20.351  0.00  0.00    +0.000 OA
ATOM     21  HE2 GLU A   1       0.646   2.325  20.869  0.00  0.00    +0.000 HD
ENDBRANCH  18  20
ENDBRANCH  17  18
ENDBRANCH  16  17
ENDBRANCH  11  16
ENDBRANCH   9  11
ENDBRANCH   4   7
BRANCH   1  22
ATOM     22  S   UNK A   0       0.728  11.417  19.504  0.00  0.00    +0.000 S 
BRANCH  22  25
ATOM     23  C   UNK A   0      -2.464  12.738  20.064  0.00  0.00    +0.000 C 
ATOM     24  C   UNK A   0      -2.056  11.860  18.940  0.00  0.00    +0.000 A 
ATOM     25  C   UNK A   0      -0.803  11.310  18.697  0.00  0.00    +0.000 A 
ATOM     26  N   UNK A   0      -0.848  10.658  17.494  0.00  0.00    +0.000 N 
ATOM     27  C   UNK A   0      -2.104  10.746  16.963  0.00  0.00    +0.000 A 
ATOM     28  N   UNK A   0      -2.478  10.234  15.782  0.00  0.00    +0.000 NA
ATOM     29  C   UNK A   0      -3.754  10.505  15.490  0.00  0.00    +0.000 A 
ATOM     30  N   UNK A   0      -4.241  10.047  14.282  0.00  0.00    +0.000 N 
ATOM     31  N   UNK A   0      -4.639  11.142  16.274  0.00  0.00    +0.000 NA
ATOM     32  C   UNK A   0      -4.229  11.644  17.455  0.00  0.00    +0.000 A 
ATOM     33  N   UNK A   0      -5.178  12.304  18.225  0.00  0.00    +0.000 N 
ATOM     34  C   UNK A   0      -2.892  11.463  17.847  0.00  0.00    +0.000 A 
ATOM     35  H   UNK A   0      -0.066  10.215  17.036  0.00  0.00    +0.000 HD
ATOM     36  H   UNK A   0      -3.696   9.264  13.952  0.00  0.00    +0.000 HD
ATOM     37  H   UNK A   0      -5.243   9.934  14.336  0.00  0.00    +0.000 HD
ATOM     38  H   UNK A   0      -6.113  12.081  17.898  0.00  0.00    +0.000 HD
ATOM     39  H   UNK A   0      -5.032  12.248  19.223  0.00  0.00    +0.000 HD
ENDBRANCH  22  25
ENDBRANCH   1  22
TORSDOF 10
ENDMDL
MODEL 2
REMARK VINA RESULT:      -8.6      1.360      2.915
REMARK  Name = 
REMARK  11 active torsions:
REMARK  status: ('A' for Active; 'I' for Inactive)
REMARK    1  A    between atoms: C_1  and  C_2
REMARK    2  A    between atoms: C_3  and  S_4
REMARK    3  A    between atoms: S_4  and  C_5
REMARK    4  A    between atoms: C_8  and  C_9
REMARK    5  A    between atoms: N_11  and  CA_12
REMARK    6  A    between atoms: CA_12  and  CB_13
REMARK    7  A    between atoms: CA_12  and  C_18
REMARK    8  A    between atoms: CB_13  and  CG_14
REMARK    9  A    between atoms: CG_14  and  CD_15
REMARK   10  A    between atoms: CD_15  and  OE2_17
REMARK   11  A    between atoms: C_18  and  OXT_20
REMARK                            x       y       z     vdW  Elec       q    Type
REMARK                         _______ _______ _______ _____ _____    ______ ____
ROOT
ATOM      1  C   UNK A   0       1.282   9.531  19.426  0.00  0.00    +0.000 A 
ATOM      2  C   UNK A   0       1.866   9.070  18.241  0.00  0.00    +0.000 A 
ATOM      3  C   UNK A   0       2.337   7.754  18.150  0.00  0.00    +0.000 A 
ATOM      4  C   UNK A   0       2.226   6.876  19.236  0.00  0.00    +0.000 A 
ATOM      5  C   UNK A   0       1.667   7.342  20.431  0.00  0.00    +0.000 A 
ATOM      6  C   UNK A   0       1.209   8.664  20.524  0.00  0.00    +0.000 A 
ENDROOT
BRANCH   4   7
ATOM      7  C   UNK A   0       2.752   5.488  19.073  0.00  0.00    +0.000 C 
ATOM      8  O   UNK A   0       2.347   4.585  19.797  0.00  0.00    +0.000 OA
ATOM      9  N   GLU A   1       3.713   5.285  18.108  0.00  0.00    +0.000 N 
ATOM     10  H   GLU A   1       4.120   6.073  17.616  0.00  0.00    +0.000 HD
BRANCH   9  11
ATOM     11  CA  GLU A   1       4.358   3.980  17.915  0.00  0.00    +0.000 C 
BRANCH  11  12
ATOM     12  C   GLU A   1       5.233   3.726  19.148  0.00  0.00    +0.000 C 
ATOM     13  O   GLU A   1       5.088   2.759  19.886  0.00  0.00    +0.000 OA
BRANCH  12  14
ATOM     14  OXT GLU A   1       6.203   4.644  19.348  0.00  0.00    +0.000 OA
ATOM     15  HXT GLU A   1       6.191   5.087  20.226  0.00  0.00    +0.000 HD
ENDBRANCH  12  14
ENDBRANCH  11  12
BRANCH  11  16
ATOM     16  CB  GLU A   1       5.211   3.964  16.632  0.00  0.00    +0.000 C 
BRANCH  16  17
ATOM     17  CG  GLU A   1       5.616   5.340  16.114  0.00  0.00    +0.000 C 
BRANCH  17  18
ATOM     18  CD  GLU A   1       7.085   5.580  16.341  0.00  0.00    +0.000 C 
ATOM     19  OE1 GLU A   1       7.562   6.707  16.389  0.00  0.00    +0.000 OA
BRANCH  18  20
ATOM     20  OE2 GLU A   1       7.793   4.460  16.577  0.00  0.00    +0.000 OA
ATOM     21  HE2 GLU A   1       7.770   3.800  15.854  0.00  0.00    +0.000 HD
ENDBRANCH  18  20
ENDBRANCH  17  18
ENDBRANCH  16  17
ENDBRANCH  11  16
ENDBRANCH   9  11
ENDBRANCH   4   7
BRANCH   1  22
ATOM     22  S   UNK A   0       0.787  11.239  19.581  0.00  0.00    +0.000 S 
BRANCH  22  25
ATOM     23  C   UNK A   0      -2.325  12.738  20.141  0.00  0.00    +0.000 C 
ATOM     24  C   UNK A   0      -1.968  11.837  19.017  0.00  0.00    +0.000 A 
ATOM     25  C   UNK A   0      -0.748  11.217  18.775  0.00  0.00    +0.000 A 
ATOM     26  N   UNK A   0      -0.830  10.566  17.573  0.00  0.00    +0.000 N 
ATOM     27  C   UNK A   0      -2.080  10.724  17.043  0.00  0.00    +0.000 A 
ATOM     28  N   UNK A   0      -2.483  10.232  15.863  0.00  0.00    +0.000 NA
ATOM     29  C   UNK A   0      -3.742  10.573  15.571  0.00  0.00    +0.000 A 
ATOM     30  N   UNK A   0      -4.255  10.141  14.364  0.00  0.00    +0.000 N 
ATOM     31  N   UNK A   0      -4.589  11.260  16.355  0.00  0.00    +0.000 NA
ATOM     32  C   UNK A   0      -4.151  11.740  17.535  0.00  0.00    +0.000 A 
ATOM     33  N   UNK A   0      -5.061  12.453  18.304  0.00  0.00    +0.000 N 
ATOM     34  C   UNK A   0      -2.826  11.485  17.926  0.00  0.00    +0.000 A 
ATOM     35  H   UNK A   0      -0.074  10.080  17.115  0.00  0.00    +0.000 HD
ATOM     36  H   UNK A   0      -3.754   9.328  14.035  0.00  0.00    +0.000 HD
ATOM     37  H   UNK A   0      -5.261  10.085  14.419  0.00  0.00    +0.000 HD
ATOM     38  H   UNK A   0      -6.007  12.283  17.978  0.00  0.00    +0.000 HD
ATOM     39  H   UNK A   0      -4.918  12.391  19.302  0.00  0.00    +0.000 HD
ENDBRANCH  22  25
ENDBRANCH   1  22
TORSDOF 10
ENDMDL
MODEL 3
REMARK VINA RESULT:      -8.5      1.570      3.038
REMARK  Name = 
REMARK  11 active torsions:
REMARK  status: ('A' for Active; 'I' for Inactive)
REMARK    1  A    between atoms: C_1  and  C_2
REMARK    2  A    between atoms: C_3  and  S_4
REMARK    3  A    between atoms: S_4  and  C_5
REMARK    4  A    between atoms: C_8  and  C_9
REMARK    5  A    between atoms: N_11  and  CA_12
REMARK    6  A    between atoms: CA_12  and  CB_13
REMARK    7  A    between atoms: CA_12  and  C_18
REMARK    8  A    between atoms: CB_13  and  CG_14
REMARK    9  A    between atoms: CG_14  and  CD_15
REMARK   10  A    between atoms: CD_15  and  OE2_17
REMARK   11  A    between atoms: C_18  and  OXT_20
REMARK                            x       y       z     vdW  Elec       q    Type
REMARK                         _______ _______ _______ _____ _____    ______ ____
ROOT
ATOM      1  C   UNK A   0       1.403  10.049  19.259  0.00  0.00    +0.000 A 
ATOM      2  C   UNK A   0       1.300   9.053  20.236  0.00  0.00    +0.000 A 
ATOM      3  C   UNK A   0       1.787   7.764  19.987  0.00  0.00    +0.000 A 
ATOM      4  C   UNK A   0       2.393   7.451  18.763  0.00  0.00    +0.000 A 
ATOM      5  C   UNK A   0       2.472   8.437  17.773  0.00  0.00    +0.000 A 
ATOM      6  C   UNK A   0       1.970   9.724  18.021  0.00  0.00    +0.000 A 
ENDROOT
BRANCH   4   7
ATOM      7  C   UNK A   0       2.888   6.057  18.560  0.00  0.00    +0.000 C 
ATOM      8  O   UNK A   0       2.152   5.102  18.785  0.00  0.00    +0.000 OA
ATOM      9  N   GLU A   1       4.190   5.903  18.141  0.00  0.00    +0.000 N 
ATOM     10  H   GLU A   1       4.810   6.704  18.089  0.00  0.00    +0.000 HD
BRANCH   9  11
ATOM     11  CA  GLU A   1       4.805   4.579  17.988  0.00  0.00    +0.000 C 
BRANCH  11  12
ATOM     12  C   GLU A   1       6.192   4.651  18.637  0.00  0.00    +0.000 C 
ATOM     13  O   GLU A   1       6.401   5.196  19.714  0.00  0.00    +0.000 OA
BRANCH  12  14
ATOM     14  OXT GLU A   1       7.172   4.038  17.939  0.00  0.00    +0.000 OA
ATOM     15  HXT GLU A   1       6.876   3.537  17.146  0.00  0.00    +0.000 HD
ENDBRANCH  12  14
ENDBRANCH  11  12
BRANCH  11  16
ATOM     16  CB  GLU A   1       4.923   4.187  16.502  0.00  0.00    +0.000 C 
BRANCH  16  17
ATOM     17  CG  GLU A   1       5.434   5.295  15.586  0.00  0.00    +0.000 C 
BRANCH  17  18
ATOM     18  CD  GLU A   1       6.589   4.804  14.755  0.00  0.00    +0.000 C 
ATOM     19  OE1 GLU A   1       7.660   5.397  14.712  0.00  0.00    +0.000 OA
BRANCH  18  20
ATOM     20  OE2 GLU A   1       6.366   3.621  14.152  0.00  0.00    +0.000 OA
ATOM     21  HE2 GLU A   1       7.136   3.017  14.137  0.00  0.00    +0.000 HD
ENDBRANCH  18  20
ENDBRANCH  17  18
ENDBRANCH  16  17
ENDBRANCH  11  16
ENDBRANCH   9  11
ENDBRANCH   4   7
BRANCH   1  22
ATOM     22  S   UNK A   0       0.678  11.658  19.532  0.00  0.00    +0.000 S 
BRANCH  22  25
ATOM     23  C   UNK A   0      -2.575  12.816  20.102  0.00  0.00    +0.000 C 
ATOM     24  C   UNK A   0      -2.125  11.964  18.973  0.00  0.00    +0.000 A 
ATOM     25  C   UNK A   0      -0.847  11.479  18.727  0.00  0.00    +0.000 A 
ATOM     26  N   UNK A   0      -0.861  10.830  17.520  0.00  0.00    +0.000 N 
ATOM     27  C   UNK A   0      -2.121  10.857  16.992  0.00  0.00    +0.000 A 
ATOM     28  N   UNK A   0      -2.471  10.333  15.809  0.00  0.00    +0.000 NA
ATOM     29  C   UNK A   0      -3.759  10.541  15.520  0.00  0.00    +0.000 A 
ATOM     30  N   UNK A   0      -4.225  10.065  14.310  0.00  0.00    +0.000 N 
ATOM     31  N   UNK A   0      -4.673  11.130  16.308  0.00  0.00    +0.000 NA
ATOM     32  C   UNK A   0      -4.287  11.647  17.490  0.00  0.00    +0.000 A 
ATOM     33  N   UNK A   0      -5.267  12.255  18.264  0.00  0.00    +0.000 N 
ATOM     34  C   UNK A   0      -2.942  11.530  17.880  0.00  0.00    +0.000 A 
ATOM     35  H   UNK A   0      -0.058  10.429  17.059  0.00  0.00    +0.000 HD
ATOM     36  H   UNK A   0      -3.641   9.311  13.976  0.00  0.00    +0.000 HD
ATOM     37  H   UNK A   0      -5.219   9.902  14.365  0.00  0.00    +0.000 HD
ATOM     38  H   UNK A   0      -6.190  11.987  17.938  0.00  0.00    +0.000 HD
ATOM     39  H   UNK A   0      -5.117  12.202  19.262  0.00  0.00    +0.000 HD
ENDBRANCH  22  25
ENDBRANCH   1  22
TORSDOF 10
ENDMDL
MODEL 4
REMARK VINA RESULT:      -8.3      1.310      1.850
REMARK  Name = 
REMARK  11 active torsions:
REMARK  status: ('A' for Active; 'I' for Inactive)
REMARK    1  A    between atoms: C_1  and  C_2
REMARK    2  A    between atoms: C_3  and  S_4
REMARK    3  A    between atoms: S_4  and  C_5
REMARK    4  A    between atoms: C_8  and  C_9
REMARK    5  A    between atoms: N_11  and  CA_12
REMARK    6  A    between atoms: CA_12  and  CB_13
REMARK    7  A    between atoms: CA_12  and  C_18
REMARK    8  A    between atoms: CB_13  and  CG_14
REMARK    9  A    between atoms: CG_14  and  CD_15
REMARK   10  A    between atoms: CD_15  and  OE2_17
REMARK   11  A    between atoms: C_18  and  OXT_20
REMARK                            x       y       z     vdW  Elec       q    Type
REMARK                         _______ _______ _______ _____ _____    ______ ____
ROOT
ATOM      1  C   UNK A   0       1.192   9.920  19.375  0.00  0.00    +0.000 A 
ATOM      2  C   UNK A   0       1.849   9.714  18.158  0.00  0.00    +0.000 A 
ATOM      3  C   UNK A   0       2.503   8.502  17.903  0.00  0.00    +0.000 A 
ATOM      4  C   UNK A   0       2.504   7.474  18.856  0.00  0.00    +0.000 A 
ATOM      5  C   UNK A   0       1.871   7.688  20.085  0.00  0.00    +0.000 A 
ATOM      6  C   UNK A   0       1.229   8.908  20.342  0.00  0.00    +0.000 A 
ENDROOT
BRANCH   4   7
ATOM      7  C   UNK A   0       3.224   6.209  18.523  0.00  0.00    +0.000 C 
ATOM      8  O   UNK A   0       4.259   6.242  17.866  0.00  0.00    +0.000 OA
ATOM      9  N   GLU A   1       2.664   5.030  18.960  0.00  0.00    +0.000 N 
ATOM     10  H   GLU A   1       1.744   5.026  19.386  0.00  0.00    +0.000 HD
BRANCH   9  11
ATOM     11  CA  GLU A   1       3.241   3.723  18.622  0.00  0.00    +0.000 C 
BRANCH  11  12
ATOM     12  C   GLU A   1       2.296   3.063  17.612  0.00  0.00    +0.000 C 
ATOM     13  O   GLU A   1       2.437   1.912  17.214  0.00  0.00    +0.000 OA
BRANCH  12  14
ATOM     14  OXT GLU A   1       1.269   3.842  17.209  0.00  0.00    +0.000 OA
ATOM     15  HXT GLU A   1       0.722   3.474  16.478  0.00  0.00    +0.000 HD
ENDBRANCH  12  14
ENDBRANCH  11  12
BRANCH  11  16
ATOM     16  CB  GLU A   1       3.397   2.840  19.875  0.00  0.00    +0.000 C 
BRANCH  16  17
ATOM     17  CG  GLU A   1       2.784   3.419  21.146  0.00  0.00    +0.000 C 
BRANCH  17  18
ATOM     18  CD  GLU A   1       1.435   2.808  21.410  0.00  0.00    +0.000 C 
ATOM     19  OE1 GLU A   1       1.219   2.096  22.382  0.00  0.00    +0.000 OA
BRANCH  18  20
ATOM     20  OE2 GLU A   1       0.481   3.191  20.541  0.00  0.00    +0.000 OA
ATOM     21  HE2 GLU A   1      -0.249   2.550  20.423  0.00  0.00    +0.000 HD
ENDBRANCH  18  20
ENDBRANCH  17  18
ENDBRANCH  16  17
ENDBRANCH  11  16
ENDBRANCH   9  11
ENDBRANCH   4   7
BRANCH   1  22
ATOM     22  S   UNK A   0       0.459  11.505  19.745  0.00  0.00    +0.000 S 
BRANCH  22  25
ATOM     23  C   UNK A   0      -2.752  12.845  20.132  0.00  0.00    +0.000 C 
ATOM     24  C   UNK A   0      -2.290  11.957  19.036  0.00  0.00    +0.000 A 
ATOM     25  C   UNK A   0      -1.029  11.401  18.861  0.00  0.00    +0.000 A 
ATOM     26  N   UNK A   0      -1.015  10.741  17.661  0.00  0.00    +0.000 N 
ATOM     27  C   UNK A   0      -2.242  10.831  17.066  0.00  0.00    +0.000 A 
ATOM     28  N   UNK A   0      -2.558  10.313  15.871  0.00  0.00    +0.000 NA
ATOM     29  C   UNK A   0      -3.815  10.588  15.512  0.00  0.00    +0.000 A 
ATOM     30  N   UNK A   0      -4.242  10.124  14.284  0.00  0.00    +0.000 N 
ATOM     31  N   UNK A   0      -4.736  11.234  16.246  0.00  0.00    +0.000 NA
ATOM     32  C   UNK A   0      -4.385  11.742  17.443  0.00  0.00    +0.000 A 
ATOM     33  N   UNK A   0      -5.370  12.410  18.159  0.00  0.00    +0.000 N 
ATOM     34  C   UNK A   0      -3.071  11.557  17.904  0.00  0.00    +0.000 A 
ATOM     35  H   UNK A   0      -0.213  10.291  17.247  0.00  0.00    +0.000 HD
ATOM     36  H   UNK A   0      -3.684   9.336  13.986  0.00  0.00    +0.000 HD
ATOM     37  H   UNK A   0      -5.246  10.016  14.287  0.00  0.00    +0.000 HD
ATOM     38  H   UNK A   0      -6.288  12.190  17.786  0.00  0.00    +0.000 HD
ATOM     39  H   UNK A   0      -5.275  12.360  19.164  0.00  0.00    +0.000 HD
ENDBRANCH  22  25
ENDBRANCH   1  22
TORSDOF 10
ENDMDL
MODEL 5
REMARK VINA RESULT:      -8.2      1.792      3.185
REMARK  Name = 
REMARK  11 active torsions:
REMARK  status: ('A' for Active; 'I' for Inactive)
REMARK    1  A    between atoms: C_1  and  C_2
REMARK    2  A    between atoms: C_3  and  S_4
REMARK    3  A    between atoms: S_4  and  C_5
REMARK    4  A    between atoms: C_8  and  C_9
REMARK    5  A    between atoms: N_11  and  CA_12
REMARK    6  A    between atoms: CA_12  and  CB_13
REMARK    7  A    between atoms: CA_12  and  C_18
REMARK    8  A    between atoms: CB_13  and  CG_14
REMARK    9  A    between atoms: CG_14  and  CD_15
REMARK   10  A    between atoms: CD_15  and  OE2_17
REMARK   11  A    between atoms: C_18  and  OXT_20
REMARK                            x       y       z     vdW  Elec       q    Type
REMARK                         _______ _______ _______ _____ _____    ______ ____
ROOT
ATOM      1  C   UNK A   0       1.358   9.409  19.384  0.00  0.00    +0.000 A 
ATOM      2  C   UNK A   0       1.987   9.308  18.139  0.00  0.00    +0.000 A 
ATOM      3  C   UNK A   0       2.642   8.127  17.770  0.00  0.00    +0.000 A 
ATOM      4  C   UNK A   0       2.672   7.024  18.634  0.00  0.00    +0.000 A 
ATOM      5  C   UNK A   0       2.067   7.131  19.892  0.00  0.00    +0.000 A 
ATOM      6  C   UNK A   0       1.424   8.321  20.263  0.00  0.00    +0.000 A 
ENDROOT
BRANCH   4   7
ATOM      7  C   UNK A   0       3.390   5.796  18.181  0.00  0.00    +0.000 C 
ATOM      8  O   UNK A   0       2.769   4.761  17.968  0.00  0.00    +0.000 OA
ATOM      9  N   GLU A   1       4.757   5.878  18.042  0.00  0.00    +0.000 N 
ATOM     10  H   GLU A   1       5.255   6.707  18.349  0.00  0.00    +0.000 HD
BRANCH   9  11
ATOM     11  CA  GLU A   1       5.573   4.713  17.681  0.00  0.00    +0.000 C 
BRANCH  11  12
ATOM     12  C   GLU A   1       6.986   4.970  18.217  0.00  0.00    +0.000 C 
ATOM     13  O   GLU A   1       7.287   5.966  18.863  0.00  0.00    +0.000 OA
BRANCH  12  14
ATOM     14  OXT GLU A   1       7.878   3.992  17.945  0.00  0.00    +0.000 OA
ATOM     15  HXT GLU A   1       7.862   3.652  17.022  0.00  0.00    +0.000 HD
ENDBRANCH  12  14
ENDBRANCH  11  12
BRANCH  11  16
ATOM     16  CB  GLU A   1       5.603   4.504  16.154  0.00  0.00    +0.000 C 
BRANCH  16  17
ATOM     17  CG  GLU A   1       6.627   5.356  15.411  0.00  0.00    +0.000 C 
BRANCH  17  18
ATOM     18  CD  GLU A   1       6.917   4.773  14.054  0.00  0.00    +0.000 C 
ATOM     19  OE1 GLU A   1       6.366   3.757  13.649  0.00  0.00    +0.000 OA
BRANCH  18  20
ATOM     20  OE2 GLU A   1       7.754   5.516  13.306  0.00  0.00    +0.000 OA
ATOM     21  HE2 GLU A   1       7.482   6.449  13.191  0.00  0.00    +0.000 HD
ENDBRANCH  18  20
ENDBRANCH  17  18
ENDBRANCH  16  17
ENDBRANCH  11  16
ENDBRANCH   9  11
ENDBRANCH   4   7
BRANCH   1  22
ATOM     22  S   UNK A   0       0.625  10.952  19.901  0.00  0.00    +0.000 S 
BRANCH  22  25
ATOM     23  C   UNK A   0      -2.480  12.548  20.147  0.00  0.00    +0.000 C 
ATOM     24  C   UNK A   0      -2.042  11.627  19.069  0.00  0.00    +0.000 A 
ATOM     25  C   UNK A   0      -0.824  10.970  18.950  0.00  0.00    +0.000 A 
ATOM     26  N   UNK A   0      -0.809  10.312  17.748  0.00  0.00    +0.000 N 
ATOM     27  C   UNK A   0      -1.996  10.502  17.098  0.00  0.00    +0.000 A 
ATOM     28  N   UNK A   0      -2.297  10.013  15.888  0.00  0.00    +0.000 NA
ATOM     29  C   UNK A   0      -3.510  10.389  15.473  0.00  0.00    +0.000 A 
ATOM     30  N   UNK A   0      -3.917   9.963  14.224  0.00  0.00    +0.000 N 
ATOM     31  N   UNK A   0      -4.409  11.107  16.167  0.00  0.00    +0.000 NA
ATOM     32  C   UNK A   0      -4.073  11.584  17.381  0.00  0.00    +0.000 A 
ATOM     33  N   UNK A   0      -5.032  12.329  18.054  0.00  0.00    +0.000 N 
ATOM     34  C   UNK A   0      -2.801  11.292  17.901  0.00  0.00    +0.000 A 
ATOM     35  H   UNK A   0      -0.027   9.799  17.369  0.00  0.00    +0.000 HD
ATOM     36  H   UNK A   0      -3.411   9.133  13.949  0.00  0.00    +0.000 HD
ATOM     37  H   UNK A   0      -4.925   9.937  14.181  0.00  0.00    +0.000 HD
ATOM     38  H   UNK A   0      -5.946  12.185  17.639  0.00  0.00    +0.000 HD
ATOM     39  H   UNK A   0      -4.988  12.271  19.062  0.00  0.00    +0.000 HD
ENDBRANCH  22  25
ENDBRANCH   1  22
TORSDOF 10
ENDMDL
MODEL 6
REMARK VINA RESULT:      -8.1      1.505      2.993
REMARK  Name = 
REMARK  11 active torsions:
REMARK  status: ('A' for Active; 'I' for Inactive)
REMARK    1  A    between atoms: C_1  and  C_2
REMARK    2  A    between atoms: C_3  and  S_4
REMARK    3  A    between atoms: S_4  and  C_5
REMARK    4  A    between atoms: C_8  and  C_9
REMARK    5  A    between atoms: N_11  and  CA_12
REMARK    6  A    between atoms: CA_12  and  CB_13
REMARK    7  A    between atoms: CA_12  and  C_18
REMARK    8  A    between atoms: CB_13  and  CG_14
REMARK    9  A    between atoms: CG_14  and  CD_15
REMARK   10  A    between atoms: CD_15  and  OE2_17
REMARK   11  A    between atoms: C_18  and  OXT_20
REMARK                            x       y       z     vdW  Elec       q    Type
REMARK                         _______ _______ _______ _____ _____    ______ ____
ROOT
ATOM      1  C   UNK A   0       1.000   9.618  19.465  0.00  0.00    +0.000 A 
ATOM      2  C   UNK A   0       1.635   9.821  18.236  0.00  0.00    +0.000 A 
ATOM      3  C   UNK A   0       2.524   8.863  17.731  0.00  0.00    +0.000 A 
ATOM      4  C   UNK A   0       2.786   7.684  18.442  0.00  0.00    +0.000 A 
ATOM      5  C   UNK A   0       2.173   7.491  19.685  0.00  0.00    +0.000 A 
ATOM      6  C   UNK A   0       1.294   8.459  20.193  0.00  0.00    +0.000 A 
ENDROOT
BRANCH   4   7
ATOM      7  C   UNK A   0       3.746   6.707  17.850  0.00  0.00    +0.000 C 
ATOM      8  O   UNK A   0       4.187   6.881  16.719  0.00  0.00    +0.000 OA
ATOM      9  N   GLU A   1       4.085   5.612  18.613  0.00  0.00    +0.000 N 
ATOM     10  H   GLU A   1       3.606   5.429  19.488  0.00  0.00    +0.000 HD
BRANCH   9  11
ATOM     11  CA  GLU A   1       4.956   4.547  18.101  0.00  0.00    +0.000 C 
BRANCH  11  12
ATOM     12  C   GLU A   1       4.461   3.230  18.709  0.00  0.00    +0.000 C 
ATOM     13  O   GLU A   1       3.449   2.654  18.328  0.00  0.00    +0.000 OA
BRANCH  12  14
ATOM     14  OXT GLU A   1       5.246   2.732  19.688  0.00  0.00    +0.000 OA
ATOM     15  HXT GLU A   1       6.014   2.198  19.383  0.00  0.00    +0.000 HD
ENDBRANCH  12  14
ENDBRANCH  11  12
BRANCH  11  16
ATOM     16  CB  GLU A   1       6.428   4.800  18.482  0.00  0.00    +0.000 C 
BRANCH  16  17
ATOM     17  CG  GLU A   1       7.441   4.439  17.400  0.00  0.00    +0.000 C 
BRANCH  17  18
ATOM     18  CD  GLU A   1       6.973   4.922  16.053  0.00  0.00    +0.000 C 
ATOM     19  OE1 GLU A   1       6.594   4.153  15.179  0.00  0.00    +0.000 OA
BRANCH  18  20
ATOM     20  OE2 GLU A   1       6.921   6.263  15.940  0.00  0.00    +0.000 OA
ATOM     21  HE2 GLU A   1       7.772   6.689  15.714  0.00  0.00    +0.000 HD
ENDBRANCH  18  20
ENDBRANCH  17  18
ENDBRANCH  16  17
ENDBRANCH  11  16
ENDBRANCH   9  11
ENDBRANCH   4   7
BRANCH   1  22
ATOM     22  S   UNK A   0      -0.042  10.890  20.162  0.00  0.00    +0.000 S 
BRANCH  22  25
ATOM     23  C   UNK A   0      -3.112  12.554  19.942  0.00  0.00    +0.000 C 
ATOM     24  C   UNK A   0      -2.537  11.625  18.938  0.00  0.00    +0.000 A 
ATOM     25  C   UNK A   0      -1.329  10.941  19.002  0.00  0.00    +0.000 A 
ATOM     26  N   UNK A   0      -1.147  10.284  17.814  0.00  0.00    +0.000 N 
ATOM     27  C   UNK A   0      -2.217  10.501  16.992  0.00  0.00    +0.000 A 
ATOM     28  N   UNK A   0      -2.342  10.020  15.748  0.00  0.00    +0.000 NA
ATOM     29  C   UNK A   0      -3.470  10.423  15.156  0.00  0.00    +0.000 A 
ATOM     30  N   UNK A   0      -3.692  10.008  13.858  0.00  0.00    +0.000 N 
ATOM     31  N   UNK A   0      -4.447  11.161  15.709  0.00  0.00    +0.000 NA
ATOM     32  C   UNK A   0      -4.288  11.629  16.962  0.00  0.00    +0.000 A 
ATOM     33  N   UNK A   0      -5.321  12.395  17.485  0.00  0.00    +0.000 N 
ATOM     34  C   UNK A   0      -3.116  11.308  17.667  0.00  0.00    +0.000 A 
ATOM     35  H   UNK A   0      -0.328   9.754  17.555  0.00  0.00    +0.000 HD
ATOM     36  H   UNK A   0      -3.169   9.166  13.659  0.00  0.00    +0.000 HD
ATOM     37  H   UNK A   0      -4.682  10.004  13.662  0.00  0.00    +0.000 HD
ATOM     38  H   UNK A   0      -6.166  12.271  16.936  0.00  0.00    +0.000 HD
ATOM     39  H   UNK A   0      -5.432  12.335  18.488  0.00  0.00    +0.000 HD
ENDBRANCH  22  25
ENDBRANCH   1  22
TORSDOF 10
ENDMDL
MODEL 7
REMARK VINA RESULT:      -8.1      1.098      2.879
REMARK  Name = 
REMARK  11 active torsions:
REMARK  status: ('A' for Active; 'I' for Inactive)
REMARK    1  A    between atoms: C_1  and  C_2
REMARK    2  A    between atoms: C_3  and  S_4
REMARK    3  A    between atoms: S_4  and  C_5
REMARK    4  A    between atoms: C_8  and  C_9
REMARK    5  A    between atoms: N_11  and  CA_12
REMARK    6  A    between atoms: CA_12  and  CB_13
REMARK    7  A    between atoms: CA_12  and  C_18
REMARK    8  A    between atoms: CB_13  and  CG_14
REMARK    9  A    between atoms: CG_14  and  CD_15
REMARK   10  A    between atoms: CD_15  and  OE2_17
REMARK   11  A    between atoms: C_18  and  OXT_20
REMARK                            x       y       z     vdW  Elec       q    Type
REMARK                         _______ _______ _______ _____ _____    ______ ____
ROOT
ATOM      1  C   UNK A   0       1.146   9.499  19.715  0.00  0.00    +0.000 A 
ATOM      2  C   UNK A   0       1.790   9.326  18.485  0.00  0.00    +0.000 A 
ATOM      3  C   UNK A   0       2.452   8.127  18.196  0.00  0.00    +0.000 A 
ATOM      4  C   UNK A   0       2.476   7.079  19.125  0.00  0.00    +0.000 A 
ATOM      5  C   UNK A   0       1.857   7.259  20.367  0.00  0.00    +0.000 A 
ATOM      6  C   UNK A   0       1.206   8.467  20.659  0.00  0.00    +0.000 A 
ENDROOT
BRANCH   4   7
ATOM      7  C   UNK A   0       3.204   5.829  18.755  0.00  0.00    +0.000 C 
ATOM      8  O   UNK A   0       4.203   5.488  19.379  0.00  0.00    +0.000 OA
ATOM      9  N   GLU A   1       2.720   5.109  17.686  0.00  0.00    +0.000 N 
ATOM     10  H   GLU A   1       1.973   5.484  17.111  0.00  0.00    +0.000 HD
BRANCH   9  11
ATOM     11  CA  GLU A   1       3.402   3.909  17.184  0.00  0.00    +0.000 C 
BRANCH  11  12
ATOM     12  C   GLU A   1       3.250   2.825  18.257  0.00  0.00    +0.000 C 
ATOM     13  O   GLU A   1       2.180   2.293  18.527  0.00  0.00    +0.000 OA
BRANCH  12  14
ATOM     14  OXT GLU A   1       4.401   2.476  18.871  0.00  0.00    +0.000 OA
ATOM     15  HXT GLU A   1       4.516   2.827  19.784  0.00  0.00    +0.000 HD
ENDBRANCH  12  14
ENDBRANCH  11  12
BRANCH  11  16
ATOM     16  CB  GLU A   1       4.892   4.190  16.905  0.00  0.00    +0.000 C 
BRANCH  16  17
ATOM     17  CG  GLU A   1       5.182   4.815  15.545  0.00  0.00    +0.000 C 
BRANCH  17  18
ATOM     18  CD  GLU A   1       6.520   4.360  15.027  0.00  0.00    +0.000 C 
ATOM     19  OE1 GLU A   1       7.573   4.699  15.552  0.00  0.00    +0.000 OA
BRANCH  18  20
ATOM     20  OE2 GLU A   1       6.443   3.482  14.009  0.00  0.00    +0.000 OA
ATOM     21  HE2 GLU A   1       7.126   3.596  13.317  0.00  0.00    +0.000 HD
ENDBRANCH  18  20
ENDBRANCH  17  18
ENDBRANCH  16  17
ENDBRANCH  11  16
ENDBRANCH   9  11
ENDBRANCH   4   7
BRANCH   1  22
ATOM     22  S   UNK A   0       0.402  11.068  20.130  0.00  0.00    +0.000 S 
BRANCH  22  25
ATOM     23  C   UNK A   0      -2.725  12.639  20.172  0.00  0.00    +0.000 C 
ATOM     24  C   UNK A   0      -2.215  11.712  19.130  0.00  0.00    +0.000 A 
ATOM     25  C   UNK A   0      -0.987  11.065  19.092  0.00  0.00    +0.000 A 
ATOM     26  N   UNK A   0      -0.893  10.396  17.900  0.00  0.00    +0.000 N 
ATOM     27  C   UNK A   0      -2.039  10.570  17.177  0.00  0.00    +0.000 A 
ATOM     28  N   UNK A   0      -2.262  10.068  15.955  0.00  0.00    +0.000 NA
ATOM     29  C   UNK A   0      -3.451  10.430  15.463  0.00  0.00    +0.000 A 
ATOM     30  N   UNK A   0      -3.777   9.990  14.196  0.00  0.00    +0.000 N 
ATOM     31  N   UNK A   0      -4.396  11.147  16.095  0.00  0.00    +0.000 NA
ATOM     32  C   UNK A   0      -4.138  11.637  17.323  0.00  0.00    +0.000 A 
ATOM     33  N   UNK A   0      -5.142  12.380  17.929  0.00  0.00    +0.000 N 
ATOM     34  C   UNK A   0      -2.898  11.361  17.921  0.00  0.00    +0.000 A 
ATOM     35  H   UNK A   0      -0.085   9.887  17.573  0.00  0.00    +0.000 HD
ATOM     36  H   UNK A   0      -3.249   9.161  13.960  0.00  0.00    +0.000 HD
ATOM     37  H   UNK A   0      -4.780   9.955  14.092  0.00  0.00    +0.000 HD
ATOM     38  H   UNK A   0      -6.029  12.224  17.460  0.00  0.00    +0.000 HD
ATOM     39  H   UNK A   0      -5.160  12.331  18.938  0.00  0.00    +0.000 HD
ENDBRANCH  22  25
ENDBRANCH   1  22
TORSDOF 10
ENDMDL
MODEL 8
REMARK VINA RESULT:      -8.1      2.934      4.947
REMARK  Name = 
REMARK  11 active torsions:
REMARK  status: ('A' for Active; 'I' for Inactive)
REMARK    1  A    between atoms: C_1  and  C_2
REMARK    2  A    between atoms: C_3  and  S_4
REMARK    3  A    between atoms: S_4  and  C_5
REMARK    4  A    between atoms: C_8  and  C_9
REMARK    5  A    between atoms: N_11  and  CA_12
REMARK    6  A    between atoms: CA_12  and  CB_13
REMARK    7  A    between atoms: CA_12  and  C_18
REMARK    8  A    between atoms: CB_13  and  CG_14
REMARK    9  A    between atoms: CG_14  and  CD_15
REMARK   10  A    between atoms: CD_15  and  OE2_17
REMARK   11  A    between atoms: C_18  and  OXT_20
REMARK                            x       y       z     vdW  Elec       q    Type
REMARK                         _______ _______ _______ _____ _____    ______ ____
ROOT
ATOM      1  C   UNK A   0       1.466   7.308  20.361  0.00  0.00    +0.000 A 
ATOM      2  C   UNK A   0       1.822   6.022  20.778  0.00  0.00    +0.000 A 
ATOM      3  C   UNK A   0       2.789   5.292  20.076  0.00  0.00    +0.000 A 
ATOM      4  C   UNK A   0       3.422   5.837  18.952  0.00  0.00    +0.000 A 
ATOM      5  C   UNK A   0       3.048   7.113  18.515  0.00  0.00    +0.000 A 
ATOM      6  C   UNK A   0       2.069   7.835  19.212  0.00  0.00    +0.000 A 
ENDROOT
BRANCH   4   7
ATOM      7  C   UNK A   0       4.441   5.004  18.247  0.00  0.00    +0.000 C 
ATOM      8  O   UNK A   0       5.086   4.164  18.864  0.00  0.00    +0.000 OA
ATOM      9  N   GLU A   1       4.631   5.240  16.904  0.00  0.00    +0.000 N 
ATOM     10  H   GLU A   1       4.177   6.026  16.452  0.00  0.00    +0.000 HD
BRANCH   9  11
ATOM     11  CA  GLU A   1       5.662   4.537  16.130  0.00  0.00    +0.000 C 
BRANCH  11  12
ATOM     12  C   GLU A   1       7.014   5.133  16.538  0.00  0.00    +0.000 C 
ATOM     13  O   GLU A   1       7.359   6.273  16.252  0.00  0.00    +0.000 OA
BRANCH  12  14
ATOM     14  OXT GLU A   1       7.795   4.307  17.268  0.00  0.00    +0.000 OA
ATOM     15  HXT GLU A   1       8.740   4.572  17.336  0.00  0.00    +0.000 HD
ENDBRANCH  12  14
ENDBRANCH  11  12
BRANCH  11  16
ATOM     16  CB  GLU A   1       5.431   4.703  14.615  0.00  0.00    +0.000 C 
BRANCH  16  17
ATOM     17  CG  GLU A   1       6.498   4.065  13.731  0.00  0.00    +0.000 C 
BRANCH  17  18
ATOM     18  CD  GLU A   1       5.866   3.369  12.555  0.00  0.00    +0.000 C 
ATOM     19  OE1 GLU A   1       4.715   3.596  12.205  0.00  0.00    +0.000 OA
BRANCH  18  20
ATOM     20  OE2 GLU A   1       6.706   2.561  11.881  0.00  0.00    +0.000 OA
ATOM     21  HE2 GLU A   1       6.723   2.703  10.913  0.00  0.00    +0.000 HD
ENDBRANCH  18  20
ENDBRANCH  17  18
ENDBRANCH  16  17
ENDBRANCH  11  16
ENDBRANCH   9  11
ENDBRANCH   4   7
BRANCH   1  22
ATOM     22  S   UNK A   0       0.152   8.192  21.184  0.00  0.00    +0.000 S 
BRANCH  22  25
ATOM     23  C   UNK A   0      -1.390   9.933  18.569  0.00  0.00    +0.000 C 
ATOM     24  C   UNK A   0      -0.314  10.441  19.456  0.00  0.00    +0.000 A 
ATOM     25  C   UNK A   0       0.325   9.772  20.492  0.00  0.00    +0.000 A 
ATOM     26  N   UNK A   0       1.172  10.652  21.112  0.00  0.00    +0.000 N 
ATOM     27  C   UNK A   0       1.120  11.866  20.487  0.00  0.00    +0.000 A 
ATOM     28  N   UNK A   0       1.809  12.954  20.859  0.00  0.00    +0.000 NA
ATOM     29  C   UNK A   0       1.535  14.017  20.098  0.00  0.00    +0.000 A 
ATOM     30  N   UNK A   0       2.172  15.203  20.407  0.00  0.00    +0.000 N 
ATOM     31  N   UNK A   0       0.733  14.047  19.020  0.00  0.00    +0.000 NA
ATOM     32  C   UNK A   0       0.055  12.936  18.674  0.00  0.00    +0.000 A 
ATOM     33  N   UNK A   0      -0.769  13.021  17.560  0.00  0.00    +0.000 N 
ATOM     34  C   UNK A   0       0.227  11.767  19.434  0.00  0.00    +0.000 A 
ATOM     35  H   UNK A   0       1.722  10.458  21.935  0.00  0.00    +0.000 HD
ATOM     36  H   UNK A   0       3.024  15.027  20.920  0.00  0.00    +0.000 HD
ATOM     37  H   UNK A   0       2.228  15.787  19.586  0.00  0.00    +0.000 HD
ATOM     38  H   UNK A   0      -0.536  13.842  17.011  0.00  0.00    +0.000 HD
ATOM     39  H   UNK A   0      -0.879  12.159  17.044  0.00  0.00    +0.000 HD
ENDBRANCH  22  25
ENDBRANCH   1  22
TORSDOF 10
ENDMDL
MODEL 9
REMARK VINA RESULT:      -8.0      1.227      1.691
REMARK  Name = 
REMARK  11 active torsions:
REMARK  status: ('A' for Active; 'I' for Inactive)
REMARK    1  A    between atoms: C_1  and  C_2
REMARK    2  A    between atoms: C_3  and  S_4
REMARK    3  A    between atoms: S_4  and  C_5
REMARK    4  A    between atoms: C_8  and  C_9
REMARK    5  A    between atoms: N_11  and  CA_12
REMARK    6  A    between atoms: CA_12  and  CB_13
REMARK    7  A    between atoms: CA_12  and  C_18
REMARK    8  A    between atoms: CB_13  and  CG_14
REMARK    9  A    between atoms: CG_14  and  CD_15
REMARK   10  A    between atoms: CD_15  and  OE2_17
REMARK   11  A    between atoms: C_18  and  OXT_20
REMARK                            x       y       z     vdW  Elec       q    Type
REMARK                         _______ _______ _______ _____ _____    ______ ____
ROOT
ATOM      1  C   UNK A   0       1.333  10.058  19.474  0.00  0.00    +0.000 A 
ATOM      2  C   UNK A   0       1.200   9.047  20.431  0.00  0.00    +0.000 A 
ATOM      3  C   UNK A   0       1.688   7.760  20.174  0.00  0.00    +0.000 A 
ATOM      4  C   UNK A   0       2.323   7.463  18.961  0.00  0.00    +0.000 A 
ATOM      5  C   UNK A   0       2.434   8.465  17.990  0.00  0.00    +0.000 A 
ATOM      6  C   UNK A   0       1.932   9.750  18.246  0.00  0.00    +0.000 A 
ENDROOT
BRANCH   4   7
ATOM      7  C   UNK A   0       2.816   6.070  18.749  0.00  0.00    +0.000 C 
ATOM      8  O   UNK A   0       2.497   5.449  17.741  0.00  0.00    +0.000 OA
ATOM      9  N   GLU A   1       3.609   5.524  19.733  0.00  0.00    +0.000 N 
ATOM     10  H   GLU A   1       3.748   6.013  20.610  0.00  0.00    +0.000 HD
BRANCH   9  11
ATOM     11  CA  GLU A   1       4.083   4.135  19.667  0.00  0.00    +0.000 C 
BRANCH  11  12
ATOM     12  C   GLU A   1       5.276   4.114  18.705  0.00  0.00    +0.000 C 
ATOM     13  O   GLU A   1       6.384   4.545  18.999  0.00  0.00    +0.000 OA
BRANCH  12  14
ATOM     14  OXT GLU A   1       5.019   3.552  17.503  0.00  0.00    +0.000 OA
ATOM     15  HXT GLU A   1       4.600   4.147  16.840  0.00  0.00    +0.000 HD
ENDBRANCH  12  14
ENDBRANCH  11  12
BRANCH  11  16
ATOM     16  CB  GLU A   1       2.971   3.189  19.173  0.00  0.00    +0.000 C 
BRANCH  16  17
ATOM     17  CG  GLU A   1       2.481   2.182  20.208  0.00  0.00    +0.000 C 
BRANCH  17  18
ATOM     18  CD  GLU A   1       1.437   2.801  21.097  0.00  0.00    +0.000 C 
ATOM     19  OE1 GLU A   1       1.409   2.603  22.306  0.00  0.00    +0.000 OA
BRANCH  18  20
ATOM     20  OE2 GLU A   1       0.612   3.654  20.462  0.00  0.00    +0.000 OA
ATOM     21  HE2 GLU A   1       0.717   3.679  19.490  0.00  0.00    +0.000 HD
ENDBRANCH  18  20
ENDBRANCH  17  18
ENDBRANCH  16  17
ENDBRANCH  11  16
ENDBRANCH   9  11
ENDBRANCH   4   7
BRANCH   1  22
ATOM     22  S   UNK A   0       0.610  11.666  19.755  0.00  0.00    +0.000 S 
BRANCH  22  25
ATOM     23  C   UNK A   0      -2.638  12.886  20.219  0.00  0.00    +0.000 C 
ATOM     24  C   UNK A   0      -2.169  12.019  19.109  0.00  0.00    +0.000 A 
ATOM     25  C   UNK A   0      -0.893  11.509  18.904  0.00  0.00    +0.000 A 
ATOM     26  N   UNK A   0      -0.882  10.853  17.702  0.00  0.00    +0.000 N 
ATOM     27  C   UNK A   0      -2.125  10.900  17.135  0.00  0.00    +0.000 A 
ATOM     28  N   UNK A   0      -2.448  10.375  15.945  0.00  0.00    +0.000 NA
ATOM     29  C   UNK A   0      -3.723  10.604  15.615  0.00  0.00    +0.000 A 
ATOM     30  N   UNK A   0      -4.160  10.129  14.395  0.00  0.00    +0.000 N 
ATOM     31  N   UNK A   0      -4.650  11.214  16.372  0.00  0.00    +0.000 NA
ATOM     32  C   UNK A   0      -4.290  11.731  17.563  0.00  0.00    +0.000 A 
ATOM     33  N   UNK A   0      -5.282  12.361  18.303  0.00  0.00    +0.000 N 
ATOM     34  C   UNK A   0      -2.960  11.593  17.993  0.00  0.00    +0.000 A 
ATOM     35  H   UNK A   0      -0.073  10.435  17.267  0.00  0.00    +0.000 HD
ATOM     36  H   UNK A   0      -3.581   9.363  14.083  0.00  0.00    +0.000 HD
ATOM     37  H   UNK A   0      -5.159   9.984  14.421  0.00  0.00    +0.000 HD
ATOM     38  H   UNK A   0      -6.200  12.109  17.950  0.00  0.00    +0.000 HD
ATOM     39  H   UNK A   0      -5.163  12.312  19.305  0.00  0.00    +0.000 HD
ENDBRANCH  22  25
ENDBRANCH   1  22
TORSDOF 10
ENDMDL
