MODEL 1
REMARK VINA RESULT:      -8.0      0.000      0.000
REMARK  Name = 
REMARK  9 active torsions:
REMARK  status: ('A' for Active; 'I' for Inactive)
REMARK    1  A    between atoms: C_1  and  C_2
REMARK    2  A    between atoms: C_5  and  C_6
REMARK    3  A    between atoms: C_8  and  N_9
REMARK    4  A    between atoms: C_10  and  C_12
REMARK    5  A    between atoms: C_12  and  O_13
REMARK    6  A    between atoms: O_13  and  C_14
REMARK    7  A    between atoms: C_15  and  C_16
REMARK    8  A    between atoms: C_18  and  C_19
REMARK    9  A    between atoms: C_21  and  C_22
REMARK                            x       y       z     vdW  Elec       q    Type
REMARK                         _______ _______ _______ _____ _____    ______ ____
ROOT
ATOM      1  N   UNL     1       7.466   8.583  17.137  0.00  0.00    +0.000 N 
ATOM      2  C   UNL     1       8.341   8.768  18.205  0.00  0.00    +0.000 C 
ATOM      3  O   UNL     1       8.618   7.916  19.044  0.00  0.00    +0.000 OA
ATOM      4  H   UNL     1       6.861   9.390  17.021  0.00  0.00    +0.000 HD
ENDROOT
BRANCH   1   7
ATOM      5  C   UNL     1       5.422   5.669  17.293  0.00  0.00    +0.000 A 
ATOM      6  C   UNL     1       5.561   7.046  17.623  0.00  0.00    +0.000 A 
ATOM      7  C   UNL     1       6.790   7.384  17.140  0.00  0.00    +0.000 A 
ATOM      8  O   UNL     1       7.387   6.305  16.592  0.00  0.00    +0.000 OA
ATOM      9  N   UNL     1       6.530   5.226  16.670  0.00  0.00    +0.000 NA
BRANCH   5  14
ATOM     10  C   UNL     1       0.956   2.204  18.527  0.00  0.00    +0.000 C 
ATOM     11  C   UNL     1       2.112   3.094  18.178  0.00  0.00    +0.000 A 
ATOM     12  C   UNL     1       3.364   2.559  17.869  0.00  0.00    +0.000 A 
ATOM     13  C   UNL     1       4.440   3.399  17.577  0.00  0.00    +0.000 A 
ATOM     14  C   UNL     1       4.286   4.794  17.592  0.00  0.00    +0.000 A 
ATOM     15  C   UNL     1       3.026   5.325  17.889  0.00  0.00    +0.000 A 
ATOM     16  C   UNL     1       1.947   4.485  18.179  0.00  0.00    +0.000 A 
ENDBRANCH   5  14
ENDBRANCH   1   7
BRANCH   2  17
ATOM     17  C   UNL     1       9.031  10.132  18.174  0.00  0.00    +0.000 C 
BRANCH  17  18
ATOM     18  O   UNL     1       9.852  10.359  19.305  0.00  0.00    +0.000 OA
BRANCH  18  19
ATOM     19  C   UNL     1      10.118  11.665  19.649  0.00  0.00    +0.000 A 
ATOM     20  C   UNL     1       9.584  12.079  20.893  0.00  0.00    +0.000 A 
ATOM     21  C   UNL     1       8.725  11.188  21.754  0.00  0.00    +0.000 C 
ATOM     22  C   UNL     1       9.827  13.385  21.368  0.00  0.00    +0.000 A 
ATOM     23  C   UNL     1      10.623  14.273  20.647  0.00  0.00    +0.000 A 
ATOM     24  C   UNL     1      10.945  15.643  21.160  0.00  0.00    +0.000 C 
ATOM     25  C   UNL     1      11.171  13.849  19.440  0.00  0.00    +0.000 A 
ATOM     26  C   UNL     1      10.957  12.555  18.932  0.00  0.00    +0.000 A 
ATOM     27  C   UNL     1      11.700  12.218  17.673  0.00  0.00    +0.000 C 
ENDBRANCH  18  19
ENDBRANCH  17  18
ENDBRANCH   2  17
TORSDOF 5
ENDMDL
MODEL 2
REMARK VINA RESULT:      -7.9      0.278      1.730
REMARK  Name = 
REMARK  9 active torsions:
REMARK  status: ('A' for Active; 'I' for Inactive)
REMARK    1  A    between atoms: C_1  and  C_2
REMARK    2  A    between atoms: C_5  and  C_6
REMARK    3  A    between atoms: C_8  and  N_9
REMARK    4  A    between atoms: C_10  and  C_12
REMARK    5  A    between atoms: C_12  and  O_13
REMARK    6  A    between atoms: O_13  and  C_14
REMARK    7  A    between atoms: C_15  and  C_16
REMARK    8  A    between atoms: C_18  and  C_19
REMARK    9  A    between atoms: C_21  and  C_22
REMARK                            x       y       z     vdW  Elec       q    Type
REMARK                         _______ _______ _______ _____ _____    ______ ____
ROOT
ATOM      1  N   UNL     1       7.244   8.646  17.241  0.00  0.00    +0.000 N 
ATOM      2  C   UNL     1       8.231   8.688  18.224  0.00  0.00    +0.000 C 
ATOM      3  O   UNL     1       8.581   7.732  18.910  0.00  0.00    +0.000 OA
ATOM      4  H   UNL     1       6.644   9.464  17.296  0.00  0.00    +0.000 HD
ENDROOT
BRANCH   1   7
ATOM      5  C   UNL     1       5.184   5.740  17.244  0.00  0.00    +0.000 A 
ATOM      6  C   UNL     1       5.389   7.055  17.746  0.00  0.00    +0.000 A 
ATOM      7  C   UNL     1       6.553   7.460  17.162  0.00  0.00    +0.000 A 
ATOM      8  O   UNL     1       7.054   6.470  16.394  0.00  0.00    +0.000 OA
ATOM      9  N   UNL     1       6.195   5.391  16.428  0.00  0.00    +0.000 NA
BRANCH   5  14
ATOM     10  C   UNL     1       0.845   2.139  18.542  0.00  0.00    +0.000 C 
ATOM     11  C   UNL     1       1.966   3.066  18.176  0.00  0.00    +0.000 A 
ATOM     12  C   UNL     1       3.204   2.570  17.764  0.00  0.00    +0.000 A 
ATOM     13  C   UNL     1       4.250   3.442  17.457  0.00  0.00    +0.000 A 
ATOM     14  C   UNL     1       4.079   4.831  17.560  0.00  0.00    +0.000 A 
ATOM     15  C   UNL     1       2.832   5.324  17.961  0.00  0.00    +0.000 A 
ATOM     16  C   UNL     1       1.784   4.452  18.265  0.00  0.00    +0.000 A 
ENDBRANCH   5  14
ENDBRANCH   1   7
BRANCH   2  17
ATOM     17  C   UNL     1       8.937  10.042  18.295  0.00  0.00    +0.000 C 
BRANCH  17  18
ATOM     18  O   UNL     1       9.799  10.155  19.413  0.00  0.00    +0.000 OA
BRANCH  18  19
ATOM     19  C   UNL     1      10.071  11.419  19.885  0.00  0.00    +0.000 A 
ATOM     20  C   UNL     1      10.926  12.195  19.067  0.00  0.00    +0.000 A 
ATOM     21  C   UNL     1      11.556  11.664  17.803  0.00  0.00    +0.000 C 
ATOM     22  C   UNL     1      11.242  13.520  19.431  0.00  0.00    +0.000 A 
ATOM     23  C   UNL     1      10.695  14.100  20.572  0.00  0.00    +0.000 A 
ATOM     24  C   UNL     1      10.967  15.525  20.946  0.00  0.00    +0.000 C 
ATOM     25  C   UNL     1       9.830  13.341  21.357  0.00  0.00    +0.000 A 
ATOM     26  C   UNL     1       9.485  12.019  21.028  0.00  0.00    +0.000 A 
ATOM     27  C   UNL     1       8.462  11.373  21.915  0.00  0.00    +0.000 C 
ENDBRANCH  18  19
ENDBRANCH  17  18
ENDBRANCH   2  17
TORSDOF 5
ENDMDL
MODEL 3
REMARK VINA RESULT:      -7.6      5.658      9.032
REMARK  Name = 
REMARK  9 active torsions:
REMARK  status: ('A' for Active; 'I' for Inactive)
REMARK    1  A    between atoms: C_1  and  C_2
REMARK    2  A    between atoms: C_5  and  C_6
REMARK    3  A    between atoms: C_8  and  N_9
REMARK    4  A    between atoms: C_10  and  C_12
REMARK    5  A    between atoms: C_12  and  O_13
REMARK    6  A    between atoms: O_13  and  C_14
REMARK    7  A    between atoms: C_15  and  C_16
REMARK    8  A    between atoms: C_18  and  C_19
REMARK    9  A    between atoms: C_21  and  C_22
REMARK                            x       y       z     vdW  Elec       q    Type
REMARK                         _______ _______ _______ _____ _____    ______ ____
ROOT
ATOM      1  N   UNL     1       3.080   6.434  19.580  0.00  0.00    +0.000 N 
ATOM      2  C   UNL     1       2.555   5.205  19.970  0.00  0.00    +0.000 C 
ATOM      3  O   UNL     1       1.395   5.016  20.328  0.00  0.00    +0.000 OA
ATOM      4  H   UNL     1       4.003   6.576  19.979  0.00  0.00    +0.000 HD
ENDROOT
BRANCH   1   7
ATOM      5  C   UNL     1       0.890   9.127  20.384  0.00  0.00    +0.000 A 
ATOM      6  C   UNL     1       1.569   7.964  20.845  0.00  0.00    +0.000 A 
ATOM      7  C   UNL     1       2.236   7.507  19.747  0.00  0.00    +0.000 A 
ATOM      8  O   UNL     1       1.966   8.290  18.682  0.00  0.00    +0.000 OA
ATOM      9  N   UNL     1       1.133   9.318  19.074  0.00  0.00    +0.000 NA
BRANCH   5  14
ATOM     10  C   UNL     1      -2.633  12.578  23.408  0.00  0.00    +0.000 C 
ATOM     11  C   UNL     1      -1.698  11.705  22.625  0.00  0.00    +0.000 A 
ATOM     12  C   UNL     1      -1.402  11.983  21.290  0.00  0.00    +0.000 A 
ATOM     13  C   UNL     1      -0.556  11.146  20.562  0.00  0.00    +0.000 A 
ATOM     14  C   UNL     1       0.009  10.006  21.156  0.00  0.00    +0.000 A 
ATOM     15  C   UNL     1      -0.280   9.738  22.499  0.00  0.00    +0.000 A 
ATOM     16  C   UNL     1      -1.124  10.579  23.229  0.00  0.00    +0.000 A 
ENDBRANCH   5  14
ENDBRANCH   1   7
BRANCH   2  17
ATOM     17  C   UNL     1       3.549   4.056  19.802  0.00  0.00    +0.000 C 
BRANCH  17  18
ATOM     18  O   UNL     1       4.865   4.503  19.528  0.00  0.00    +0.000 OA
BRANCH  18  19
ATOM     19  C   UNL     1       5.261   4.557  18.211  0.00  0.00    +0.000 A 
ATOM     20  C   UNL     1       6.542   5.116  17.990  0.00  0.00    +0.000 A 
ATOM     21  C   UNL     1       7.392   5.682  19.100  0.00  0.00    +0.000 C 
ATOM     22  C   UNL     1       7.068   5.185  16.684  0.00  0.00    +0.000 A 
ATOM     23  C   UNL     1       6.361   4.673  15.598  0.00  0.00    +0.000 A 
ATOM     24  C   UNL     1       6.926   4.680  14.210  0.00  0.00    +0.000 C 
ATOM     25  C   UNL     1       5.115   4.096  15.826  0.00  0.00    +0.000 A 
ATOM     26  C   UNL     1       4.556   4.003  17.113  0.00  0.00    +0.000 A 
ATOM     27  C   UNL     1       3.255   3.261  17.205  0.00  0.00    +0.000 C 
ENDBRANCH  18  19
ENDBRANCH  17  18
ENDBRANCH   2  17
TORSDOF 5
ENDMDL
MODEL 4
REMARK VINA RESULT:      -7.6      6.418      7.913
REMARK  Name = 
REMARK  9 active torsions:
REMARK  status: ('A' for Active; 'I' for Inactive)
REMARK    1  A    between atoms: C_1  and  C_2
REMARK    2  A    between atoms: C_5  and  C_6
REMARK    3  A    between atoms: C_8  and  N_9
REMARK    4  A    between atoms: C_10  and  C_12
REMARK    5  A    between atoms: C_12  and  O_13
REMARK    6  A    between atoms: O_13  and  C_14
REMARK    7  A    between atoms: C_15  and  C_16
REMARK    8  A    between atoms: C_18  and  C_19
REMARK    9  A    between atoms: C_21  and  C_22
REMARK                            x       y       z     vdW  Elec       q    Type
REMARK                         _______ _______ _______ _____ _____    ______ ____
ROOT
ATOM      1  N   UNL     1       3.391   6.432  19.804  0.00  0.00    +0.000 N 
ATOM      2  C   UNL     1       2.081   5.995  19.989  0.00  0.00    +0.000 C 
ATOM      3  O   UNL     1       1.592   4.997  19.466  0.00  0.00    +0.000 OA
ATOM      4  H   UNL     1       3.422   7.439  19.679  0.00  0.00    +0.000 HD
ENDROOT
BRANCH   1   7
ATOM      5  C   UNL     1       5.176   4.917  17.119  0.00  0.00    +0.000 A 
ATOM      6  C   UNL     1       4.332   5.983  17.537  0.00  0.00    +0.000 A 
ATOM      7  C   UNL     1       4.109   5.736  18.859  0.00  0.00    +0.000 A 
ATOM      8  O   UNL     1       4.724   4.593  19.228  0.00  0.00    +0.000 OA
ATOM      9  N   UNL     1       5.409   4.078  18.146  0.00  0.00    +0.000 NA
BRANCH   5  14
ATOM     10  C   UNL     1       7.263   4.035  11.796  0.00  0.00    +0.000 C 
ATOM     11  C   UNL     1       6.728   4.235  13.182  0.00  0.00    +0.000 A 
ATOM     12  C   UNL     1       5.493   3.705  13.560  0.00  0.00    +0.000 A 
ATOM     13  C   UNL     1       4.990   3.924  14.843  0.00  0.00    +0.000 A 
ATOM     14  C   UNL     1       5.714   4.684  15.776  0.00  0.00    +0.000 A 
ATOM     15  C   UNL     1       6.957   5.202  15.398  0.00  0.00    +0.000 A 
ATOM     16  C   UNL     1       7.462   4.980  14.114  0.00  0.00    +0.000 A 
ENDBRANCH   5  14
ENDBRANCH   1   7
BRANCH   2  17
ATOM     17  C   UNL     1       1.319   6.829  21.018  0.00  0.00    +0.000 C 
BRANCH  17  18
ATOM     18  O   UNL     1       1.749   8.178  21.060  0.00  0.00    +0.000 OA
BRANCH  18  19
ATOM     19  C   UNL     1       0.898   9.136  20.558  0.00  0.00    +0.000 A 
ATOM     20  C   UNL     1       0.103   9.799  21.523  0.00  0.00    +0.000 A 
ATOM     21  C   UNL     1       0.124   9.443  22.989  0.00  0.00    +0.000 C 
ATOM     22  C   UNL     1      -0.777  10.828  21.129  0.00  0.00    +0.000 A 
ATOM     23  C   UNL     1      -0.853  11.236  19.799  0.00  0.00    +0.000 A 
ATOM     24  C   UNL     1      -1.735  12.368  19.366  0.00  0.00    +0.000 C 
ATOM     25  C   UNL     1      -0.045  10.601  18.859  0.00  0.00    +0.000 A 
ATOM     26  C   UNL     1       0.848   9.574  19.211  0.00  0.00    +0.000 A 
ATOM     27  C   UNL     1       1.723   9.064  18.103  0.00  0.00    +0.000 C 
ENDBRANCH  18  19
ENDBRANCH  17  18
ENDBRANCH   2  17
TORSDOF 5
ENDMDL
MODEL 5
REMARK VINA RESULT:      -7.6      0.713      1.983
REMARK  Name = 
REMARK  9 active torsions:
REMARK  status: ('A' for Active; 'I' for Inactive)
REMARK    1  A    between atoms: C_1  and  C_2
REMARK    2  A    between atoms: C_5  and  C_6
REMARK    3  A    between atoms: C_8  and  N_9
REMARK    4  A    between atoms: C_10  and  C_12
REMARK    5  A    between atoms: C_12  and  O_13
REMARK    6  A    between atoms: O_13  and  C_14
REMARK    7  A    between atoms: C_15  and  C_16
REMARK    8  A    between atoms: C_18  and  C_19
REMARK    9  A    between atoms: C_21  and  C_22
REMARK                            x       y       z     vdW  Elec       q    Type
REMARK                         _______ _______ _______ _____ _____    ______ ____
ROOT
ATOM      1  N   UNL     1       7.676   8.781  17.166  0.00  0.00    +0.000 N 
ATOM      2  C   UNL     1       8.469   9.133  18.256  0.00  0.00    +0.000 C 
ATOM      3  O   UNL     1       8.796   8.374  19.164  0.00  0.00    +0.000 OA
ATOM      4  H   UNL     1       6.993   9.505  16.967  0.00  0.00    +0.000 HD
ENDROOT
BRANCH   1   7
ATOM      5  C   UNL     1       5.974   5.666  17.470  0.00  0.00    +0.000 A 
ATOM      6  C   UNL     1       5.972   7.058  17.763  0.00  0.00    +0.000 A 
ATOM      7  C   UNL     1       7.138   7.516  17.224  0.00  0.00    +0.000 A 
ATOM      8  O   UNL     1       7.829   6.494  16.679  0.00  0.00    +0.000 OA
ATOM      9  N   UNL     1       7.100   5.330  16.815  0.00  0.00    +0.000 NA
BRANCH   5  14
ATOM     10  C   UNL     1       1.960   1.741  18.866  0.00  0.00    +0.000 C 
ATOM     11  C   UNL     1       2.981   2.780  18.513  0.00  0.00    +0.000 A 
ATOM     12  C   UNL     1       2.815   3.604  17.399  0.00  0.00    +0.000 A 
ATOM     13  C   UNL     1       3.788   4.546  17.062  0.00  0.00    +0.000 A 
ATOM     14  C   UNL     1       4.952   4.680  17.834  0.00  0.00    +0.000 A 
ATOM     15  C   UNL     1       5.109   3.862  18.958  0.00  0.00    +0.000 A 
ATOM     16  C   UNL     1       4.134   2.920  19.297  0.00  0.00    +0.000 A 
ENDBRANCH   5  14
ENDBRANCH   1   7
BRANCH   2  17
ATOM     17  C   UNL     1       9.006  10.561  18.159  0.00  0.00    +0.000 C 
BRANCH  17  18
ATOM     18  O   UNL     1      10.211  10.746  18.879  0.00  0.00    +0.000 OA
BRANCH  18  19
ATOM     19  C   UNL     1      10.373  11.931  19.561  0.00  0.00    +0.000 A 
ATOM     20  C   UNL     1      11.088  12.933  18.863  0.00  0.00    +0.000 A 
ATOM     21  C   UNL     1      11.696  12.710  17.501  0.00  0.00    +0.000 C 
ATOM     22  C   UNL     1      11.280  14.202  19.448  0.00  0.00    +0.000 A 
ATOM     23  C   UNL     1      10.742  14.505  20.696  0.00  0.00    +0.000 A 
ATOM     24  C   UNL     1      10.880  15.865  21.311  0.00  0.00    +0.000 C 
ATOM     25  C   UNL     1      10.012  13.525  21.364  0.00  0.00    +0.000 A 
ATOM     26  C   UNL     1       9.793  12.249  20.815  0.00  0.00    +0.000 A 
ATOM     27  C   UNL     1       8.901  11.342  21.610  0.00  0.00    +0.000 C 
ENDBRANCH  18  19
ENDBRANCH  17  18
ENDBRANCH   2  17
TORSDOF 5
ENDMDL
MODEL 6
REMARK VINA RESULT:      -7.6      6.018      9.342
REMARK  Name = 
REMARK  9 active torsions:
REMARK  status: ('A' for Active; 'I' for Inactive)
REMARK    1  A    between atoms: C_1  and  C_2
REMARK    2  A    between atoms: C_5  and  C_6
REMARK    3  A    between atoms: C_8  and  N_9
REMARK    4  A    between atoms: C_10  and  C_12
REMARK    5  A    between atoms: C_12  and  O_13
REMARK    6  A    between atoms: O_13  and  C_14
REMARK    7  A    between atoms: C_15  and  C_16
REMARK    8  A    between atoms: C_18  and  C_19
REMARK    9  A    between atoms: C_21  and  C_22
REMARK                            x       y       z     vdW  Elec       q    Type
REMARK                         _______ _______ _______ _____ _____    ______ ____
ROOT
ATOM      1  N   UNL     1       2.913   5.990  20.064  0.00  0.00    +0.000 N 
ATOM      2  C   UNL     1       2.194   4.813  20.258  0.00  0.00    +0.000 C 
ATOM      3  O   UNL     1       0.972   4.742  20.356  0.00  0.00    +0.000 OA
ATOM      4  H   UNL     1       3.740   6.009  20.653  0.00  0.00    +0.000 HD
ENDROOT
BRANCH   1   7
ATOM      5  C   UNL     1       0.920   8.896  20.587  0.00  0.00    +0.000 A 
ATOM      6  C   UNL     1       1.415   7.678  21.129  0.00  0.00    +0.000 A 
ATOM      7  C   UNL     1       2.166   7.144  20.125  0.00  0.00    +0.000 A 
ATOM      8  O   UNL     1       2.113   7.937  19.035  0.00  0.00    +0.000 OA
ATOM      9  N   UNL     1       1.345   9.047  19.319  0.00  0.00    +0.000 NA
BRANCH   5  14
ATOM     10  C   UNL     1      -2.504  12.759  23.199  0.00  0.00    +0.000 C 
ATOM     11  C   UNL     1      -1.639  11.737  22.524  0.00  0.00    +0.000 A 
ATOM     12  C   UNL     1      -1.084  10.677  23.243  0.00  0.00    +0.000 A 
ATOM     13  C   UNL     1      -0.254   9.750  22.610  0.00  0.00    +0.000 A 
ATOM     14  C   UNL     1       0.041   9.868  21.243  0.00  0.00    +0.000 A 
ATOM     15  C   UNL     1      -0.528  10.925  20.524  0.00  0.00    +0.000 A 
ATOM     16  C   UNL     1      -1.361  11.851  21.156  0.00  0.00    +0.000 A 
ENDBRANCH   5  14
ENDBRANCH   1   7
BRANCH   2  17
ATOM     17  C   UNL     1       3.079   3.567  20.222  0.00  0.00    +0.000 C 
BRANCH  17  18
ATOM     18  O   UNL     1       4.427   3.858  19.899  0.00  0.00    +0.000 OA
BRANCH  18  19
ATOM     19  C   UNL     1       4.759   3.951  18.567  0.00  0.00    +0.000 A 
ATOM     20  C   UNL     1       5.910   4.725  18.287  0.00  0.00    +0.000 A 
ATOM     21  C   UNL     1       6.685   5.459  19.353  0.00  0.00    +0.000 C 
ATOM     22  C   UNL     1       6.368   4.857  16.959  0.00  0.00    +0.000 A 
ATOM     23  C   UNL     1       5.726   4.202  15.911  0.00  0.00    +0.000 A 
ATOM     24  C   UNL     1       6.230   4.277  14.502  0.00  0.00    +0.000 C 
ATOM     25  C   UNL     1       4.612   3.417  16.197  0.00  0.00    +0.000 A 
ATOM     26  C   UNL     1       4.125   3.256  17.507  0.00  0.00    +0.000 A 
ATOM     27  C   UNL     1       2.983   2.296  17.663  0.00  0.00    +0.000 C 
ENDBRANCH  18  19
ENDBRANCH  17  18
ENDBRANCH   2  17
TORSDOF 5
ENDMDL
MODEL 7
REMARK VINA RESULT:      -7.5      1.644      9.760
REMARK  Name = 
REMARK  9 active torsions:
REMARK  status: ('A' for Active; 'I' for Inactive)
REMARK    1  A    between atoms: C_1  and  C_2
REMARK    2  A    between atoms: C_5  and  C_6
REMARK    3  A    between atoms: C_8  and  N_9
REMARK    4  A    between atoms: C_10  and  C_12
REMARK    5  A    between atoms: C_12  and  O_13
REMARK    6  A    between atoms: O_13  and  C_14
REMARK    7  A    between atoms: C_15  and  C_16
REMARK    8  A    between atoms: C_18  and  C_19
REMARK    9  A    between atoms: C_21  and  C_22
REMARK                            x       y       z     vdW  Elec       q    Type
REMARK                         _______ _______ _______ _____ _____    ______ ____
ROOT
ATOM      1  N   UNL     1       6.853   5.859  17.927  0.00  0.00    +0.000 N 
ATOM      2  C   UNL     1       6.377   5.413  16.697  0.00  0.00    +0.000 C 
ATOM      3  O   UNL     1       6.462   6.035  15.642  0.00  0.00    +0.000 OA
ATOM      4  H   UNL     1       6.182   5.669  18.665  0.00  0.00    +0.000 HD
ENDROOT
BRANCH   1   7
ATOM      5  C   UNL     1       8.359   9.077  18.178  0.00  0.00    +0.000 A 
ATOM      6  C   UNL     1       8.340   7.732  18.640  0.00  0.00    +0.000 A 
ATOM      7  C   UNL     1       7.329   7.149  17.934  0.00  0.00    +0.000 A 
ATOM      8  O   UNL     1       6.740   8.060  17.131  0.00  0.00    +0.000 OA
ATOM      9  N   UNL     1       7.388   9.270  17.267  0.00  0.00    +0.000 NA
BRANCH   5  14
ATOM     10  C   UNL     1      11.838  13.369  19.897  0.00  0.00    +0.000 C 
ATOM     11  C   UNL     1      10.961  12.240  19.444  0.00  0.00    +0.000 A 
ATOM     12  C   UNL     1      10.822  11.935  18.089  0.00  0.00    +0.000 A 
ATOM     13  C   UNL     1       9.977  10.903  17.678  0.00  0.00    +0.000 A 
ATOM     14  C   UNL     1       9.250  10.155  18.617  0.00  0.00    +0.000 A 
ATOM     15  C   UNL     1       9.402  10.455  19.976  0.00  0.00    +0.000 A 
ATOM     16  C   UNL     1      10.250  11.487  20.388  0.00  0.00    +0.000 A 
ENDBRANCH   5  14
ENDBRANCH   1   7
BRANCH   2  17
ATOM     17  C   UNL     1       5.822   3.990  16.758  0.00  0.00    +0.000 C 
BRANCH  17  18
ATOM     18  O   UNL     1       4.423   3.935  16.546  0.00  0.00    +0.000 OA
BRANCH  18  19
ATOM     19  C   UNL     1       3.609   3.907  17.655  0.00  0.00    +0.000 A 
ATOM     20  C   UNL     1       3.425   2.629  18.233  0.00  0.00    +0.000 A 
ATOM     21  C   UNL     1       4.013   1.370  17.647  0.00  0.00    +0.000 C 
ATOM     22  C   UNL     1       2.642   2.486  19.398  0.00  0.00    +0.000 A 
ATOM     23  C   UNL     1       2.072   3.594  20.020  0.00  0.00    +0.000 A 
ATOM     24  C   UNL     1       1.289   3.474  21.291  0.00  0.00    +0.000 C 
ATOM     25  C   UNL     1       2.283   4.853  19.463  0.00  0.00    +0.000 A 
ATOM     26  C   UNL     1       3.059   5.040  18.306  0.00  0.00    +0.000 A 
ATOM     27  C   UNL     1       3.278   6.466  17.892  0.00  0.00    +0.000 C 
ENDBRANCH  18  19
ENDBRANCH  17  18
ENDBRANCH   2  17
TORSDOF 5
ENDMDL
MODEL 8
REMARK VINA RESULT:      -7.5      1.267      1.679
REMARK  Name = 
REMARK  9 active torsions:
REMARK  status: ('A' for Active; 'I' for Inactive)
REMARK    1  A    between atoms: C_1  and  C_2
REMARK    2  A    between atoms: C_5  and  C_6
REMARK    3  A    between atoms: C_8  and  N_9
REMARK    4  A    between atoms: C_10  and  C_12
REMARK    5  A    between atoms: C_12  and  O_13
REMARK    6  A    between atoms: O_13  and  C_14
REMARK    7  A    between atoms: C_15  and  C_16
REMARK    8  A    between atoms: C_18  and  C_19
REMARK    9  A    between atoms: C_21  and  C_22
REMARK                            x       y       z     vdW  Elec       q    Type
REMARK                         _______ _______ _______ _____ _____    ______ ____
ROOT
ATOM      1  N   UNL     1       7.541   8.401  16.976  0.00  0.00    +0.000 N 
ATOM      2  C   UNL     1       8.361   8.746  18.048  0.00  0.00    +0.000 C 
ATOM      3  O   UNL     1       8.581   8.035  19.024  0.00  0.00    +0.000 OA
ATOM      4  H   UNL     1       6.956   9.184  16.702  0.00  0.00    +0.000 HD
ENDROOT
BRANCH   1   7
ATOM      5  C   UNL     1       5.437   5.563  17.434  0.00  0.00    +0.000 A 
ATOM      6  C   UNL     1       5.553   6.980  17.484  0.00  0.00    +0.000 A 
ATOM      7  C   UNL     1       6.848   7.222  17.131  0.00  0.00    +0.000 A 
ATOM      8  O   UNL     1       7.497   6.059  16.920  0.00  0.00    +0.000 OA
ATOM      9  N   UNL     1       6.616   5.011  17.094  0.00  0.00    +0.000 NA
BRANCH   5  14
ATOM     10  C   UNL     1       0.774   2.372  18.680  0.00  0.00    +0.000 C 
ATOM     11  C   UNL     1       1.979   3.192  18.328  0.00  0.00    +0.000 A 
ATOM     12  C   UNL     1       3.174   2.585  17.939  0.00  0.00    +0.000 A 
ATOM     13  C   UNL     1       4.298   3.358  17.644  0.00  0.00    +0.000 A 
ATOM     14  C   UNL     1       4.250   4.758  17.737  0.00  0.00    +0.000 A 
ATOM     15  C   UNL     1       3.046   5.363  18.115  0.00  0.00    +0.000 A 
ATOM     16  C   UNL     1       1.920   4.590  18.407  0.00  0.00    +0.000 A 
ENDBRANCH   5  14
ENDBRANCH   1   7
BRANCH   2  17
ATOM     17  C   UNL     1       9.073  10.083  17.840  0.00  0.00    +0.000 C 
BRANCH  17  18
ATOM     18  O   UNL     1       8.684  11.066  18.783  0.00  0.00    +0.000 OA
BRANCH  18  19
ATOM     19  C   UNL     1       9.334  12.279  18.746  0.00  0.00    +0.000 A 
ATOM     20  C   UNL     1       8.655  13.304  18.046  0.00  0.00    +0.000 A 
ATOM     21  C   UNL     1       7.348  13.080  17.327  0.00  0.00    +0.000 C 
ATOM     22  C   UNL     1       9.207  14.600  17.978  0.00  0.00    +0.000 A 
ATOM     23  C   UNL     1      10.403  14.904  18.625  0.00  0.00    +0.000 A 
ATOM     24  C   UNL     1      10.978  16.288  18.618  0.00  0.00    +0.000 C 
ATOM     25  C   UNL     1      11.050  13.899  19.338  0.00  0.00    +0.000 A 
ATOM     26  C   UNL     1      10.532  12.595  19.435  0.00  0.00    +0.000 A 
ATOM     27  C   UNL     1      11.293  11.657  20.324  0.00  0.00    +0.000 C 
ENDBRANCH  18  19
ENDBRANCH  17  18
ENDBRANCH   2  17
TORSDOF 5
ENDMDL
MODEL 9
REMARK VINA RESULT:      -7.5      1.803      9.857
REMARK  Name = 
REMARK  9 active torsions:
REMARK  status: ('A' for Active; 'I' for Inactive)
REMARK    1  A    between atoms: C_1  and  C_2
REMARK    2  A    between atoms: C_5  and  C_6
REMARK    3  A    between atoms: C_8  and  N_9
REMARK    4  A    between atoms: C_10  and  C_12
REMARK    5  A    between atoms: C_12  and  O_13
REMARK    6  A    between atoms: O_13  and  C_14
REMARK    7  A    between atoms: C_15  and  C_16
REMARK    8  A    between atoms: C_18  and  C_19
REMARK    9  A    between atoms: C_21  and  C_22
REMARK                            x       y       z     vdW  Elec       q    Type
REMARK                         _______ _______ _______ _____ _____    ______ ____
ROOT
ATOM      1  N   UNL     1       6.505   6.404  17.022  0.00  0.00    +0.000 N 
ATOM      2  C   UNL     1       5.905   5.494  17.888  0.00  0.00    +0.000 C 
ATOM      3  O   UNL     1       5.964   5.543  19.113  0.00  0.00    +0.000 OA
ATOM      4  H   UNL     1       6.944   5.926  16.242  0.00  0.00    +0.000 HD
ENDROOT
BRANCH   1   7
ATOM      5  C   UNL     1       8.439   9.071  18.378  0.00  0.00    +0.000 A 
ATOM      6  C   UNL     1       7.478   8.669  17.409  0.00  0.00    +0.000 A 
ATOM      7  C   UNL     1       7.319   7.333  17.628  0.00  0.00    +0.000 A 
ATOM      8  O   UNL     1       8.138   6.925  18.619  0.00  0.00    +0.000 OA
ATOM      9  N   UNL     1       8.836   8.012  19.107  0.00  0.00    +0.000 NA
BRANCH   5  14
ATOM     10  C   UNL     1      10.561  14.391  19.197  0.00  0.00    +0.000 C 
ATOM     11  C   UNL     1      10.029  13.009  18.960  0.00  0.00    +0.000 A 
ATOM     12  C   UNL     1       9.162  12.744  17.899  0.00  0.00    +0.000 A 
ATOM     13  C   UNL     1       8.648  11.460  17.708  0.00  0.00    +0.000 A 
ATOM     14  C   UNL     1       8.989  10.414  18.580  0.00  0.00    +0.000 A 
ATOM     15  C   UNL     1       9.868  10.682  19.635  0.00  0.00    +0.000 A 
ATOM     16  C   UNL     1      10.386  11.966  19.825  0.00  0.00    +0.000 A 
ENDBRANCH   5  14
ENDBRANCH   1   7
BRANCH   2  17
ATOM     17  C   UNL     1       5.046   4.461  17.157  0.00  0.00    +0.000 C 
BRANCH  17  18
ATOM     18  O   UNL     1       3.660   4.731  17.253  0.00  0.00    +0.000 OA
BRANCH  18  19
ATOM     19  C   UNL     1       3.006   4.320  18.392  0.00  0.00    +0.000 A 
ATOM     20  C   UNL     1       2.926   2.918  18.567  0.00  0.00    +0.000 A 
ATOM     21  C   UNL     1       3.452   1.933  17.552  0.00  0.00    +0.000 C 
ATOM     22  C   UNL     1       2.313   2.382  19.719  0.00  0.00    +0.000 A 
ATOM     23  C   UNL     1       1.813   3.214  20.718  0.00  0.00    +0.000 A 
ATOM     24  C   UNL     1       1.213   2.668  21.978  0.00  0.00    +0.000 C 
ATOM     25  C   UNL     1       1.922   4.593  20.554  0.00  0.00    +0.000 A 
ATOM     26  C   UNL     1       2.529   5.168  19.424  0.00  0.00    +0.000 A 
ATOM     27  C   UNL     1       2.663   6.662  19.446  0.00  0.00    +0.000 C 
ENDBRANCH  18  19
ENDBRANCH  17  18
ENDBRANCH   2  17
TORSDOF 5
ENDMDL
