MODEL 1
REMARK VINA RESULT:      -7.1      0.000      0.000
REMARK  Name = 
REMARK  6 active torsions:
REMARK  status: ('A' for Active; 'I' for Inactive)
REMARK    1  A    between atoms: C_1  and  N_2
REMARK    2  A    between atoms: N_2  and  C_3
REMARK    3  A    between atoms: C_3  and  C_4
REMARK    4  A    between atoms: C_7  and  C_9
REMARK    5  A    between atoms: C_9  and  C_10
REMARK    6  A    between atoms: N_13  and  C_14
REMARK                            x       y       z     vdW  Elec       q    Type
REMARK                         _______ _______ _______ _____ _____    ______ ____
ROOT
ATOM      1  C   UNL     1       6.212   5.368  18.050  0.00  0.00    +0.000 A 
ATOM      2  C   UNL     1       7.140   6.341  17.638  0.00  0.00    +0.000 A 
ATOM      3  N   UNL     1       7.468   6.230  16.350  0.00  0.00    +0.000 NA
ATOM      4  N   UNL     1       6.756   5.161  15.905  0.00  0.00    +0.000 N 
ATOM      5  C   UNL     1       6.009   4.606  16.920  0.00  0.00    +0.000 A 
ENDROOT
BRANCH   4   6
ATOM      6  C   UNL     1       6.792   4.764  14.540  0.00  0.00    +0.000 A 
ATOM      7  C   UNL     1       7.702   5.370  13.662  0.00  0.00    +0.000 A 
ATOM      8  C   UNL     1       7.720   5.011  12.316  0.00  0.00    +0.000 A 
ATOM      9  C   UNL     1       6.831   4.048  11.835  0.00  0.00    +0.000 A 
ATOM     10  C   UNL     1       5.928   3.437  12.702  0.00  0.00    +0.000 A 
ATOM     11  C   UNL     1       5.908   3.789  14.052  0.00  0.00    +0.000 A 
ENDBRANCH   4   6
BRANCH   1  12
ATOM     12  C   UNL     1       5.587   5.193  19.390  0.00  0.00    +0.000 C 
BRANCH  12  15
ATOM     13  C   UNL     1       1.999   3.891  19.546  0.00  0.00    +0.000 C 
ATOM     14  N   UNL     1       3.128   4.805  19.600  0.00  0.00    +0.000 N 
ATOM     15  C   UNL     1       4.387   4.253  19.364  0.00  0.00    +0.000 C 
ATOM     16  O   UNL     1       4.518   3.052  19.116  0.00  0.00    +0.000 OA
BRANCH  14  17
ATOM     17  C   UNL     1       2.833   6.238  19.585  0.00  0.00    +0.000 C 
BRANCH  17  18
ATOM     18  C   UNL     1       2.541   6.726  18.198  0.00  0.00    +0.000 C 
ATOM     19  C   UNL     1       2.166   8.174  17.986  0.00  0.00    +0.000 C 
ATOM     20  C   UNL     1       3.484   7.665  17.481  0.00  0.00    +0.000 C 
ENDBRANCH  17  18
ENDBRANCH  14  17
ENDBRANCH  12  15
ENDBRANCH   1  12
TORSDOF 5
ENDMDL
MODEL 2
REMARK VINA RESULT:      -7.1      1.664      2.671
REMARK  Name = 
REMARK  6 active torsions:
REMARK  status: ('A' for Active; 'I' for Inactive)
REMARK    1  A    between atoms: C_1  and  N_2
REMARK    2  A    between atoms: N_2  and  C_3
REMARK    3  A    between atoms: C_3  and  C_4
REMARK    4  A    between atoms: C_7  and  C_9
REMARK    5  A    between atoms: C_9  and  C_10
REMARK    6  A    between atoms: N_13  and  C_14
REMARK                            x       y       z     vdW  Elec       q    Type
REMARK                         _______ _______ _______ _____ _____    ______ ____
ROOT
ATOM      1  C   UNL     1       4.591   5.442  17.304  0.00  0.00    +0.000 A 
ATOM      2  C   UNL     1       4.788   6.681  16.668  0.00  0.00    +0.000 A 
ATOM      3  N   UNL     1       5.328   6.559  15.455  0.00  0.00    +0.000 NA
ATOM      4  N   UNL     1       5.502   5.221  15.288  0.00  0.00    +0.000 N 
ATOM      5  C   UNL     1       5.088   4.526  16.403  0.00  0.00    +0.000 A 
ENDROOT
BRANCH   4   6
ATOM      6  C   UNL     1       6.001   4.685  14.070  0.00  0.00    +0.000 A 
ATOM      7  C   UNL     1       7.216   5.155  13.548  0.00  0.00    +0.000 A 
ATOM      8  C   UNL     1       7.696   4.659  12.338  0.00  0.00    +0.000 A 
ATOM      9  C   UNL     1       6.969   3.695  11.638  0.00  0.00    +0.000 A 
ATOM     10  C   UNL     1       5.765   3.219  12.151  0.00  0.00    +0.000 A 
ATOM     11  C   UNL     1       5.281   3.708  13.365  0.00  0.00    +0.000 A 
ENDBRANCH   4   6
BRANCH   1  12
ATOM     12  C   UNL     1       3.986   5.171  18.637  0.00  0.00    +0.000 C 
BRANCH  12  15
ATOM     13  C   UNL     1       4.710   1.855  20.392  0.00  0.00    +0.000 C 
ATOM     14  N   UNL     1       3.992   2.903  19.685  0.00  0.00    +0.000 N 
ATOM     15  C   UNL     1       4.708   4.065  19.399  0.00  0.00    +0.000 C 
ATOM     16  O   UNL     1       5.891   4.180  19.729  0.00  0.00    +0.000 OA
BRANCH  14  17
ATOM     17  C   UNL     1       2.713   2.543  19.072  0.00  0.00    +0.000 C 
BRANCH  17  18
ATOM     18  C   UNL     1       1.592   2.597  20.065  0.00  0.00    +0.000 C 
ATOM     19  C   UNL     1       1.728   3.472  21.289  0.00  0.00    +0.000 C 
ATOM     20  C   UNL     1       0.740   3.836  20.221  0.00  0.00    +0.000 C 
ENDBRANCH  17  18
ENDBRANCH  14  17
ENDBRANCH  12  15
ENDBRANCH   1  12
TORSDOF 5
ENDMDL
MODEL 3
REMARK VINA RESULT:      -7.1      1.957      6.888
REMARK  Name = 
REMARK  6 active torsions:
REMARK  status: ('A' for Active; 'I' for Inactive)
REMARK    1  A    between atoms: C_1  and  N_2
REMARK    2  A    between atoms: N_2  and  C_3
REMARK    3  A    between atoms: C_3  and  C_4
REMARK    4  A    between atoms: C_7  and  C_9
REMARK    5  A    between atoms: C_9  and  C_10
REMARK    6  A    between atoms: N_13  and  C_14
REMARK                            x       y       z     vdW  Elec       q    Type
REMARK                         _______ _______ _______ _____ _____    ______ ____
ROOT
ATOM      1  C   UNL     1       5.013   4.644  17.159  0.00  0.00    +0.000 A 
ATOM      2  C   UNL     1       3.744   4.038  17.151  0.00  0.00    +0.000 A 
ATOM      3  N   UNL     1       2.787   4.835  17.625  0.00  0.00    +0.000 NA
ATOM      4  N   UNL     1       3.431   5.984  17.963  0.00  0.00    +0.000 N 
ATOM      5  C   UNL     1       4.782   5.884  17.715  0.00  0.00    +0.000 A 
ENDROOT
BRANCH   4   6
ATOM      6  C   UNL     1       2.722   7.115  18.451  0.00  0.00    +0.000 A 
ATOM      7  C   UNL     1       2.258   7.128  19.775  0.00  0.00    +0.000 A 
ATOM      8  C   UNL     1       1.533   8.218  20.251  0.00  0.00    +0.000 A 
ATOM      9  C   UNL     1       1.264   9.301  19.413  0.00  0.00    +0.000 A 
ATOM     10  C   UNL     1       1.727   9.300  18.099  0.00  0.00    +0.000 A 
ATOM     11  C   UNL     1       2.457   8.212  17.617  0.00  0.00    +0.000 A 
ENDBRANCH   4   6
BRANCH   1  12
ATOM     12  C   UNL     1       6.309   4.089  16.680  0.00  0.00    +0.000 C 
BRANCH  12  15
ATOM     13  C   UNL     1       7.502   5.394  13.293  0.00  0.00    +0.000 C 
ATOM     14  N   UNL     1       6.886   4.534  14.290  0.00  0.00    +0.000 N 
ATOM     15  C   UNL     1       6.968   4.959  15.616  0.00  0.00    +0.000 C 
ATOM     16  O   UNL     1       7.530   6.017  15.911  0.00  0.00    +0.000 OA
BRANCH  14  17
ATOM     17  C   UNL     1       5.986   3.487  13.808  0.00  0.00    +0.000 C 
BRANCH  17  18
ATOM     18  C   UNL     1       5.890   3.489  12.312  0.00  0.00    +0.000 C 
ATOM     19  C   UNL     1       5.622   2.192  11.585  0.00  0.00    +0.000 C 
ATOM     20  C   UNL     1       4.571   3.262  11.609  0.00  0.00    +0.000 C 
ENDBRANCH  17  18
ENDBRANCH  14  17
ENDBRANCH  12  15
ENDBRANCH   1  12
TORSDOF 5
ENDMDL
MODEL 4
REMARK VINA RESULT:      -7.0      1.719      2.897
REMARK  Name = 
REMARK  6 active torsions:
REMARK  status: ('A' for Active; 'I' for Inactive)
REMARK    1  A    between atoms: C_1  and  N_2
REMARK    2  A    between atoms: N_2  and  C_3
REMARK    3  A    between atoms: C_3  and  C_4
REMARK    4  A    between atoms: C_7  and  C_9
REMARK    5  A    between atoms: C_9  and  C_10
REMARK    6  A    between atoms: N_13  and  C_14
REMARK                            x       y       z     vdW  Elec       q    Type
REMARK                         _______ _______ _______ _____ _____    ______ ____
ROOT
ATOM      1  C   UNL     1       4.595   5.231  17.144  0.00  0.00    +0.000 A 
ATOM      2  C   UNL     1       4.944   6.491  16.625  0.00  0.00    +0.000 A 
ATOM      3  N   UNL     1       5.528   6.415  15.429  0.00  0.00    +0.000 NA
ATOM      4  N   UNL     1       5.575   5.084  15.153  0.00  0.00    +0.000 N 
ATOM      5  C   UNL     1       5.041   4.346  16.187  0.00  0.00    +0.000 A 
ENDROOT
BRANCH   4   6
ATOM      6  C   UNL     1       6.077   4.601  13.914  0.00  0.00    +0.000 A 
ATOM      7  C   UNL     1       5.416   3.554  13.255  0.00  0.00    +0.000 A 
ATOM      8  C   UNL     1       5.920   3.053  12.057  0.00  0.00    +0.000 A 
ATOM      9  C   UNL     1       7.086   3.588  11.509  0.00  0.00    +0.000 A 
ATOM     10  C   UNL     1       7.747   4.631  12.154  0.00  0.00    +0.000 A 
ATOM     11  C   UNL     1       7.245   5.141  13.352  0.00  0.00    +0.000 A 
ENDBRANCH   4   6
BRANCH   1  12
ATOM     12  C   UNL     1       3.903   4.916  18.423  0.00  0.00    +0.000 C 
BRANCH  12  15
ATOM     13  C   UNL     1       4.690   1.807  20.499  0.00  0.00    +0.000 C 
ATOM     14  N   UNL     1       3.943   2.781  19.720  0.00  0.00    +0.000 N 
ATOM     15  C   UNL     1       4.655   3.890  19.264  0.00  0.00    +0.000 C 
ATOM     16  O   UNL     1       5.857   4.020  19.511  0.00  0.00    +0.000 OA
BRANCH  14  17
ATOM     17  C   UNL     1       2.627   2.377  19.225  0.00  0.00    +0.000 C 
BRANCH  17  18
ATOM     18  C   UNL     1       1.559   2.607  20.251  0.00  0.00    +0.000 C 
ATOM     19  C   UNL     1       1.840   3.521  21.421  0.00  0.00    +0.000 C 
ATOM     20  C   UNL     1       0.857   3.941  20.368  0.00  0.00    +0.000 C 
ENDBRANCH  17  18
ENDBRANCH  14  17
ENDBRANCH  12  15
ENDBRANCH   1  12
TORSDOF 5
ENDMDL
MODEL 5
REMARK VINA RESULT:      -7.0      1.615      2.849
REMARK  Name = 
REMARK  6 active torsions:
REMARK  status: ('A' for Active; 'I' for Inactive)
REMARK    1  A    between atoms: C_1  and  N_2
REMARK    2  A    between atoms: N_2  and  C_3
REMARK    3  A    between atoms: C_3  and  C_4
REMARK    4  A    between atoms: C_7  and  C_9
REMARK    5  A    between atoms: C_9  and  C_10
REMARK    6  A    between atoms: N_13  and  C_14
REMARK                            x       y       z     vdW  Elec       q    Type
REMARK                         _______ _______ _______ _____ _____    ______ ____
ROOT
ATOM      1  C   UNL     1       5.142   5.464  17.860  0.00  0.00    +0.000 A 
ATOM      2  C   UNL     1       4.931   6.669  17.166  0.00  0.00    +0.000 A 
ATOM      3  N   UNL     1       5.283   6.596  15.882  0.00  0.00    +0.000 NA
ATOM      4  N   UNL     1       5.744   5.326  15.724  0.00  0.00    +0.000 N 
ATOM      5  C   UNL     1       5.694   4.631  16.912  0.00  0.00    +0.000 A 
ENDROOT
BRANCH   4   6
ATOM      6  C   UNL     1       6.156   4.841  14.453  0.00  0.00    +0.000 A 
ATOM      7  C   UNL     1       5.386   3.870  13.796  0.00  0.00    +0.000 A 
ATOM      8  C   UNL     1       5.800   3.364  12.565  0.00  0.00    +0.000 A 
ATOM      9  C   UNL     1       6.983   3.820  11.983  0.00  0.00    +0.000 A 
ATOM     10  C   UNL     1       7.751   4.789  12.625  0.00  0.00    +0.000 A 
ATOM     11  C   UNL     1       7.339   5.302  13.856  0.00  0.00    +0.000 A 
ENDBRANCH   4   6
BRANCH   1  12
ATOM     12  C   UNL     1       4.842   5.150  19.284  0.00  0.00    +0.000 C 
BRANCH  12  15
ATOM     13  C   UNL     1       1.206   4.598  20.317  0.00  0.00    +0.000 C 
ATOM     14  N   UNL     1       2.583   4.315  19.945  0.00  0.00    +0.000 N 
ATOM     15  C   UNL     1       3.388   5.416  19.654  0.00  0.00    +0.000 C 
ATOM     16  O   UNL     1       2.942   6.565  19.721  0.00  0.00    +0.000 OA
BRANCH  14  17
ATOM     17  C   UNL     1       3.083   2.964  20.202  0.00  0.00    +0.000 C 
BRANCH  17  18
ATOM     18  C   UNL     1       2.679   2.012  19.118  0.00  0.00    +0.000 C 
ATOM     19  C   UNL     1       2.612   2.500  17.690  0.00  0.00    +0.000 C 
ATOM     20  C   UNL     1       3.675   1.521  18.092  0.00  0.00    +0.000 C 
ENDBRANCH  17  18
ENDBRANCH  14  17
ENDBRANCH  12  15
ENDBRANCH   1  12
TORSDOF 5
ENDMDL
MODEL 6
REMARK VINA RESULT:      -7.0      3.366      6.429
REMARK  Name = 
REMARK  6 active torsions:
REMARK  status: ('A' for Active; 'I' for Inactive)
REMARK    1  A    between atoms: C_1  and  N_2
REMARK    2  A    between atoms: N_2  and  C_3
REMARK    3  A    between atoms: C_3  and  C_4
REMARK    4  A    between atoms: C_7  and  C_9
REMARK    5  A    between atoms: C_9  and  C_10
REMARK    6  A    between atoms: N_13  and  C_14
REMARK                            x       y       z     vdW  Elec       q    Type
REMARK                         _______ _______ _______ _____ _____    ______ ____
ROOT
ATOM      1  C   UNL     1       3.800   5.635  17.567  0.00  0.00    +0.000 A 
ATOM      2  C   UNL     1       4.438   6.802  17.111  0.00  0.00    +0.000 A 
ATOM      3  N   UNL     1       3.799   7.916  17.471  0.00  0.00    +0.000 NA
ATOM      4  N   UNL     1       2.715   7.481  18.167  0.00  0.00    +0.000 N 
ATOM      5  C   UNL     1       2.679   6.105  18.217  0.00  0.00    +0.000 A 
ENDROOT
BRANCH   4   6
ATOM      6  C   UNL     1       1.813   8.393  18.779  0.00  0.00    +0.000 A 
ATOM      7  C   UNL     1       1.559   8.304  20.156  0.00  0.00    +0.000 A 
ATOM      8  C   UNL     1       0.651   9.173  20.758  0.00  0.00    +0.000 A 
ATOM      9  C   UNL     1      -0.012  10.133  19.993  0.00  0.00    +0.000 A 
ATOM     10  C   UNL     1       0.238  10.233  18.626  0.00  0.00    +0.000 A 
ATOM     11  C   UNL     1       1.150   9.368  18.018  0.00  0.00    +0.000 A 
ENDBRANCH   4   6
BRANCH   1  12
ATOM     12  C   UNL     1       4.226   4.219  17.397  0.00  0.00    +0.000 C 
BRANCH  12  15
ATOM     13  C   UNL     1       4.664   1.994  20.471  0.00  0.00    +0.000 C 
ATOM     14  N   UNL     1       4.088   2.567  19.265  0.00  0.00    +0.000 N 
ATOM     15  C   UNL     1       4.794   3.615  18.675  0.00  0.00    +0.000 C 
ATOM     16  O   UNL     1       5.855   4.018  19.159  0.00  0.00    +0.000 OA
BRANCH  14  17
ATOM     17  C   UNL     1       3.015   1.816  18.613  0.00  0.00    +0.000 C 
BRANCH  17  18
ATOM     18  C   UNL     1       1.721   1.944  19.358  0.00  0.00    +0.000 C 
ATOM     19  C   UNL     1       1.319   3.287  19.921  0.00  0.00    +0.000 C 
ATOM     20  C   UNL     1       0.550   2.701  18.774  0.00  0.00    +0.000 C 
ENDBRANCH  17  18
ENDBRANCH  14  17
ENDBRANCH  12  15
ENDBRANCH   1  12
TORSDOF 5
ENDMDL
MODEL 7
REMARK VINA RESULT:      -7.0      1.485      2.671
REMARK  Name = 
REMARK  6 active torsions:
REMARK  status: ('A' for Active; 'I' for Inactive)
REMARK    1  A    between atoms: C_1  and  N_2
REMARK    2  A    between atoms: N_2  and  C_3
REMARK    3  A    between atoms: C_3  and  C_4
REMARK    4  A    between atoms: C_7  and  C_9
REMARK    5  A    between atoms: C_9  and  C_10
REMARK    6  A    between atoms: N_13  and  C_14
REMARK                            x       y       z     vdW  Elec       q    Type
REMARK                         _______ _______ _______ _____ _____    ______ ____
ROOT
ATOM      1  C   UNL     1       5.720   4.468  17.935  0.00  0.00    +0.000 A 
ATOM      2  C   UNL     1       7.106   4.707  17.923  0.00  0.00    +0.000 A 
ATOM      3  N   UNL     1       7.622   4.694  16.694  0.00  0.00    +0.000 NA
ATOM      4  N   UNL     1       6.566   4.432  15.879  0.00  0.00    +0.000 N 
ATOM      5  C   UNL     1       5.409   4.265  16.608  0.00  0.00    +0.000 A 
ENDROOT
BRANCH   4   6
ATOM      6  C   UNL     1       6.710   4.404  14.465  0.00  0.00    +0.000 A 
ATOM      7  C   UNL     1       5.926   3.526  13.702  0.00  0.00    +0.000 A 
ATOM      8  C   UNL     1       6.084   3.469  12.320  0.00  0.00    +0.000 A 
ATOM      9  C   UNL     1       7.025   4.283  11.688  0.00  0.00    +0.000 A 
ATOM     10  C   UNL     1       7.804   5.162  12.437  0.00  0.00    +0.000 A 
ATOM     11  C   UNL     1       7.647   5.227  13.822  0.00  0.00    +0.000 A 
ENDBRANCH   4   6
BRANCH   1  12
ATOM     12  C   UNL     1       4.794   4.441  19.101  0.00  0.00    +0.000 C 
BRANCH  12  15
ATOM     13  C   UNL     1       1.977   6.838  20.054  0.00  0.00    +0.000 C 
ATOM     14  N   UNL     1       2.762   5.619  19.951  0.00  0.00    +0.000 N 
ATOM     15  C   UNL     1       3.939   5.698  19.206  0.00  0.00    +0.000 C 
ATOM     16  O   UNL     1       4.286   6.757  18.676  0.00  0.00    +0.000 OA
BRANCH  14  17
ATOM     17  C   UNL     1       2.429   4.527  20.866  0.00  0.00    +0.000 C 
BRANCH  17  18
ATOM     18  C   UNL     1       1.263   3.728  20.368  0.00  0.00    +0.000 C 
ATOM     19  C   UNL     1       1.188   3.358  18.905  0.00  0.00    +0.000 C 
ATOM     20  C   UNL     1       1.425   2.290  19.931  0.00  0.00    +0.000 C 
ENDBRANCH  17  18
ENDBRANCH  14  17
ENDBRANCH  12  15
ENDBRANCH   1  12
TORSDOF 5
ENDMDL
MODEL 8
REMARK VINA RESULT:      -6.8      3.412      8.049
REMARK  Name = 
REMARK  6 active torsions:
REMARK  status: ('A' for Active; 'I' for Inactive)
REMARK    1  A    between atoms: C_1  and  N_2
REMARK    2  A    between atoms: N_2  and  C_3
REMARK    3  A    between atoms: C_3  and  C_4
REMARK    4  A    between atoms: C_7  and  C_9
REMARK    5  A    between atoms: C_9  and  C_10
REMARK    6  A    between atoms: N_13  and  C_14
REMARK                            x       y       z     vdW  Elec       q    Type
REMARK                         _______ _______ _______ _____ _____    ______ ____
ROOT
ATOM      1  C   UNL     1       2.518   7.998  18.265  0.00  0.00    +0.000 A 
ATOM      2  C   UNL     1       1.944   9.130  17.660  0.00  0.00    +0.000 A 
ATOM      3  N   UNL     1       1.147   9.810  18.484  0.00  0.00    +0.000 NA
ATOM      4  N   UNL     1       1.184   9.113  19.651  0.00  0.00    +0.000 N 
ATOM      5  C   UNL     1       1.985   7.999  19.536  0.00  0.00    +0.000 A 
ENDROOT
BRANCH   4   6
ATOM      6  C   UNL     1       0.499   9.571  20.810  0.00  0.00    +0.000 A 
ATOM      7  C   UNL     1      -0.367  10.671  20.718  0.00  0.00    +0.000 A 
ATOM      8  C   UNL     1      -1.016  11.147  21.855  0.00  0.00    +0.000 A 
ATOM      9  C   UNL     1      -0.805  10.534  23.091  0.00  0.00    +0.000 A 
ATOM     10  C   UNL     1       0.049   9.438  23.190  0.00  0.00    +0.000 A 
ATOM     11  C   UNL     1       0.699   8.953  22.054  0.00  0.00    +0.000 A 
ENDBRANCH   4   6
BRANCH   1  12
ATOM     12  C   UNL     1       3.479   7.022  17.682  0.00  0.00    +0.000 C 
BRANCH  12  15
ATOM     13  C   UNL     1       3.775   3.478  19.079  0.00  0.00    +0.000 C 
ATOM     14  N   UNL     1       4.124   4.844  18.722  0.00  0.00    +0.000 N 
ATOM     15  C   UNL     1       3.149   5.579  18.047  0.00  0.00    +0.000 C 
ATOM     16  O   UNL     1       2.051   5.085  17.780  0.00  0.00    +0.000 OA
BRANCH  14  17
ATOM     17  C   UNL     1       5.309   5.421  19.356  0.00  0.00    +0.000 C 
BRANCH  17  18
ATOM     18  C   UNL     1       6.541   5.191  18.534  0.00  0.00    +0.000 C 
ATOM     19  C   UNL     1       7.188   6.358  17.826  0.00  0.00    +0.000 C 
ATOM     20  C   UNL     1       7.890   5.705  18.979  0.00  0.00    +0.000 C 
ENDBRANCH  17  18
ENDBRANCH  14  17
ENDBRANCH  12  15
ENDBRANCH   1  12
TORSDOF 5
ENDMDL
MODEL 9
REMARK VINA RESULT:      -6.8      1.572      2.864
REMARK  Name = 
REMARK  6 active torsions:
REMARK  status: ('A' for Active; 'I' for Inactive)
REMARK    1  A    between atoms: C_1  and  N_2
REMARK    2  A    between atoms: N_2  and  C_3
REMARK    3  A    between atoms: C_3  and  C_4
REMARK    4  A    between atoms: C_7  and  C_9
REMARK    5  A    between atoms: C_9  and  C_10
REMARK    6  A    between atoms: N_13  and  C_14
REMARK                            x       y       z     vdW  Elec       q    Type
REMARK                         _______ _______ _______ _____ _____    ______ ____
ROOT
ATOM      1  C   UNL     1       6.068   5.080  18.077  0.00  0.00    +0.000 A 
ATOM      2  C   UNL     1       7.434   4.751  18.014  0.00  0.00    +0.000 A 
ATOM      3  N   UNL     1       7.849   4.500  16.772  0.00  0.00    +0.000 NA
ATOM      4  N   UNL     1       6.740   4.654  16.001  0.00  0.00    +0.000 N 
ATOM      5  C   UNL     1       5.644   4.979  16.770  0.00  0.00    +0.000 A 
ENDROOT
BRANCH   4   6
ATOM      6  C   UNL     1       6.799   4.532  14.586  0.00  0.00    +0.000 A 
ATOM      7  C   UNL     1       5.983   3.596  13.933  0.00  0.00    +0.000 A 
ATOM      8  C   UNL     1       6.059   3.447  12.550  0.00  0.00    +0.000 A 
ATOM      9  C   UNL     1       6.948   4.226  11.809  0.00  0.00    +0.000 A 
ATOM     10  C   UNL     1       7.757   5.162  12.448  0.00  0.00    +0.000 A 
ATOM     11  C   UNL     1       7.683   5.320  13.833  0.00  0.00    +0.000 A 
ENDBRANCH   4   6
BRANCH   1  12
ATOM     12  C   UNL     1       5.259   5.452  19.270  0.00  0.00    +0.000 C 
BRANCH  12  15
ATOM     13  C   UNL     1       1.516   4.831  18.820  0.00  0.00    +0.000 C 
ATOM     14  N   UNL     1       2.919   4.591  19.120  0.00  0.00    +0.000 N 
ATOM     15  C   UNL     1       3.787   5.668  18.941  0.00  0.00    +0.000 C 
ATOM     16  O   UNL     1       3.369   6.764  18.555  0.00  0.00    +0.000 OA
BRANCH  14  17
ATOM     17  C   UNL     1       3.248   3.373  19.860  0.00  0.00    +0.000 C 
BRANCH  17  18
ATOM     18  C   UNL     1       2.841   2.143  19.106  0.00  0.00    +0.000 C 
ATOM     19  C   UNL     1       3.201   2.017  17.645  0.00  0.00    +0.000 C 
ATOM     20  C   UNL     1       3.863   1.125  18.654  0.00  0.00    +0.000 C 
ENDBRANCH  17  18
ENDBRANCH  14  17
ENDBRANCH  12  15
ENDBRANCH   1  12
TORSDOF 5
ENDMDL
