MODEL 1
REMARK VINA RESULT:      -8.8      0.000      0.000
REMARK  Name = 
REMARK  5 active torsions:
REMARK  status: ('A' for Active; 'I' for Inactive)
REMARK    1  A    between atoms: C_1  and  C_2
REMARK    2  A    between atoms: C_6  and  C_7
REMARK    3  A    between atoms: C_10  and  C_11
REMARK    4  A    between atoms: C_11  and  N_12
REMARK    5  A    between atoms: N_15  and  C_16
REMARK                            x       y       z     vdW  Elec       q    Type
REMARK                         _______ _______ _______ _____ _____    ______ ____
ROOT
ATOM      1  C   UNL     1       7.318   6.973  17.379  0.00  0.00    +0.000 C 
ENDROOT
BRANCH   1   2
ATOM      2  N   UNL     1       8.209   7.531  18.380  0.00  0.00    +0.000 N 
ATOM      3  C   UNL     1       8.375   8.895  18.379  0.00  0.00    +0.000 C 
ATOM      4  O   UNL     1       7.820   9.595  17.544  0.00  0.00    +0.000 OA
ATOM      5  N   UNL     1       9.249   9.316  19.355  0.00  0.00    +0.000 N 
ATOM      6  H   UNL     1       8.282   7.040  19.260  0.00  0.00    +0.000 HD
ATOM      7  H   UNL     1       9.827   8.597  19.763  0.00  0.00    +0.000 HD
BRANCH   5   8
ATOM      8  C   UNL     1       9.644  10.657  19.564  0.00  0.00    +0.000 A 
ATOM      9  C   UNL     1       9.396  11.347  20.758  0.00  0.00    +0.000 A 
ATOM     10  C   UNL     1       9.734  12.694  20.886  0.00  0.00    +0.000 A 
ATOM     11  C   UNL     1      10.335  13.351  19.825  0.00  0.00    +0.000 A 
ATOM     12  F   UNL     1      10.635  14.651  19.938  0.00  0.00    +0.000 F 
ATOM     13  C   UNL     1      10.629  12.677  18.645  0.00  0.00    +0.000 A 
ATOM     14  C   UNL     1      10.293  11.325  18.518  0.00  0.00    +0.000 A 
ENDBRANCH   5   8
ENDBRANCH   1   2
BRANCH   1  18
ATOM     15  C   UNL     1       4.878   4.717  18.664  0.00  0.00    +0.000 A 
ATOM     16  N   UNL     1       5.975   4.242  19.277  0.00  0.00    +0.000 NA
ATOM     17  O   UNL     1       6.995   5.071  18.823  0.00  0.00    +0.000 OA
ATOM     18  C   UNL     1       6.417   5.966  17.975  0.00  0.00    +0.000 A 
ATOM     19  N   UNL     1       5.126   5.782  17.821  0.00  0.00    +0.000 NA
BRANCH  15  25
ATOM     20  C   UNL     1       1.544   2.578  21.685  0.00  0.00    +0.000 C 
ATOM     21  C   UNL     1       1.896   3.133  20.338  0.00  0.00    +0.000 A 
ATOM     22  C   UNL     1       0.974   3.125  19.285  0.00  0.00    +0.000 A 
ATOM     23  C   UNL     1       1.320   3.647  18.039  0.00  0.00    +0.000 A 
ATOM     24  C   UNL     1       2.594   4.180  17.831  0.00  0.00    +0.000 A 
ATOM     25  C   UNL     1       3.535   4.193  18.870  0.00  0.00    +0.000 A 
ATOM     26  C   UNL     1       3.171   3.669  20.119  0.00  0.00    +0.000 A 
ENDBRANCH  15  25
ENDBRANCH   1  18
TORSDOF 4
ENDMDL
MODEL 2
REMARK VINA RESULT:      -8.6      1.022      1.416
REMARK  Name = 
REMARK  5 active torsions:
REMARK  status: ('A' for Active; 'I' for Inactive)
REMARK    1  A    between atoms: C_1  and  C_2
REMARK    2  A    between atoms: C_6  and  C_7
REMARK    3  A    between atoms: C_10  and  C_11
REMARK    4  A    between atoms: C_11  and  N_12
REMARK    5  A    between atoms: N_15  and  C_16
REMARK                            x       y       z     vdW  Elec       q    Type
REMARK                         _______ _______ _______ _____ _____    ______ ____
ROOT
ATOM      1  C   UNL     1       7.812   7.675  17.606  0.00  0.00    +0.000 C 
ENDROOT
BRANCH   1   2
ATOM      2  N   UNL     1       8.578   8.210  18.718  0.00  0.00    +0.000 N 
ATOM      3  C   UNL     1       8.771   9.569  18.749  0.00  0.00    +0.000 C 
ATOM      4  O   UNL     1       8.343  10.285  17.855  0.00  0.00    +0.000 OA
ATOM      5  N   UNL     1       9.520   9.967  19.833  0.00  0.00    +0.000 N 
ATOM      6  H   UNL     1       8.527   7.712  19.596  0.00  0.00    +0.000 HD
ATOM      7  H   UNL     1      10.026   9.234  20.307  0.00  0.00    +0.000 HD
BRANCH   5   8
ATOM      8  C   UNL     1       9.913  11.297  20.101  0.00  0.00    +0.000 A 
ATOM      9  C   UNL     1      11.060  11.880  19.548  0.00  0.00    +0.000 A 
ATOM     10  C   UNL     1      11.449  13.170  19.907  0.00  0.00    +0.000 A 
ATOM     11  C   UNL     1      10.681  13.888  20.810  0.00  0.00    +0.000 A 
ATOM     12  F   UNL     1      11.068  15.116  21.176  0.00  0.00    +0.000 F 
ATOM     13  C   UNL     1       9.517  13.347  21.341  0.00  0.00    +0.000 A 
ATOM     14  C   UNL     1       9.125  12.054  20.978  0.00  0.00    +0.000 A 
ENDBRANCH   5   8
ENDBRANCH   1   2
BRANCH   1  18
ATOM     15  C   UNL     1       5.387   5.211  18.465  0.00  0.00    +0.000 A 
ATOM     16  N   UNL     1       6.341   4.916  19.363  0.00  0.00    +0.000 NA
ATOM     17  O   UNL     1       7.347   5.838  19.096  0.00  0.00    +0.000 OA
ATOM     18  C   UNL     1       6.906   6.600  18.057  0.00  0.00    +0.000 A 
ATOM     19  N   UNL     1       5.721   6.246  17.614  0.00  0.00    +0.000 NA
BRANCH  15  25
ATOM     20  C   UNL     1       1.117   3.892  20.666  0.00  0.00    +0.000 C 
ATOM     21  C   UNL     1       2.008   3.871  19.461  0.00  0.00    +0.000 A 
ATOM     22  C   UNL     1       1.636   3.195  18.294  0.00  0.00    +0.000 A 
ATOM     23  C   UNL     1       2.478   3.188  17.182  0.00  0.00    +0.000 A 
ATOM     24  C   UNL     1       3.705   3.855  17.228  0.00  0.00    +0.000 A 
ATOM     25  C   UNL     1       4.099   4.534  18.388  0.00  0.00    +0.000 A 
ATOM     26  C   UNL     1       3.240   4.537  19.497  0.00  0.00    +0.000 A 
ENDBRANCH  15  25
ENDBRANCH   1  18
TORSDOF 4
ENDMDL
MODEL 3
REMARK VINA RESULT:      -8.6      0.994      1.045
REMARK  Name = 
REMARK  5 active torsions:
REMARK  status: ('A' for Active; 'I' for Inactive)
REMARK    1  A    between atoms: C_1  and  C_2
REMARK    2  A    between atoms: C_6  and  C_7
REMARK    3  A    between atoms: C_10  and  C_11
REMARK    4  A    between atoms: C_11  and  N_12
REMARK    5  A    between atoms: N_15  and  C_16
REMARK                            x       y       z     vdW  Elec       q    Type
REMARK                         _______ _______ _______ _____ _____    ______ ____
ROOT
ATOM      1  C   UNL     1       7.460   7.742  17.315  0.00  0.00    +0.000 C 
ENDROOT
BRANCH   1   2
ATOM      2  N   UNL     1       8.331   8.145  18.405  0.00  0.00    +0.000 N 
ATOM      3  C   UNL     1       8.598   9.486  18.529  0.00  0.00    +0.000 C 
ATOM      4  O   UNL     1       8.147  10.294  17.728  0.00  0.00    +0.000 OA
ATOM      5  N   UNL     1       9.443   9.757  19.580  0.00  0.00    +0.000 N 
ATOM      6  H   UNL     1       8.316   7.579  19.242  0.00  0.00    +0.000 HD
ATOM      7  H   UNL     1       9.941   8.964  19.956  0.00  0.00    +0.000 HD
BRANCH   5   8
ATOM      8  C   UNL     1       9.925  11.040  19.923  0.00  0.00    +0.000 A 
ATOM      9  C   UNL     1       9.306  11.856  20.878  0.00  0.00    +0.000 A 
ATOM     10  C   UNL     1       9.772  13.148  21.123  0.00  0.00    +0.000 A 
ATOM     11  C   UNL     1      10.869  13.621  20.423  0.00  0.00    +0.000 A 
ATOM     12  F   UNL     1      11.301  14.871  20.637  0.00  0.00    +0.000 F 
ATOM     13  C   UNL     1      11.525  12.816  19.498  0.00  0.00    +0.000 A 
ATOM     14  C   UNL     1      11.060  11.520  19.256  0.00  0.00    +0.000 A 
ENDBRANCH   5   8
ENDBRANCH   1   2
BRANCH   1  18
ATOM     15  C   UNL     1       5.365   4.961  18.071  0.00  0.00    +0.000 A 
ATOM     16  N   UNL     1       6.555   4.458  18.439  0.00  0.00    +0.000 NA
ATOM     17  O   UNL     1       7.450   5.488  18.170  0.00  0.00    +0.000 OA
ATOM     18  C   UNL     1       6.714   6.515  17.660  0.00  0.00    +0.000 A 
ATOM     19  N   UNL     1       5.434   6.240  17.555  0.00  0.00    +0.000 NA
BRANCH  15  25
ATOM     20  C   UNL     1       1.080   4.333  20.534  0.00  0.00    +0.000 C 
ATOM     21  C   UNL     1       2.001   3.930  19.423  0.00  0.00    +0.000 A 
ATOM     22  C   UNL     1       1.677   2.880  18.556  0.00  0.00    +0.000 A 
ATOM     23  C   UNL     1       2.546   2.521  17.526  0.00  0.00    +0.000 A 
ATOM     24  C   UNL     1       3.752   3.205  17.355  0.00  0.00    +0.000 A 
ATOM     25  C   UNL     1       4.099   4.255  18.215  0.00  0.00    +0.000 A 
ATOM     26  C   UNL     1       3.212   4.610  19.243  0.00  0.00    +0.000 A 
ENDBRANCH  15  25
ENDBRANCH   1  18
TORSDOF 4
ENDMDL
MODEL 4
REMARK VINA RESULT:      -8.5      0.759      1.548
REMARK  Name = 
REMARK  5 active torsions:
REMARK  status: ('A' for Active; 'I' for Inactive)
REMARK    1  A    between atoms: C_1  and  C_2
REMARK    2  A    between atoms: C_6  and  C_7
REMARK    3  A    between atoms: C_10  and  C_11
REMARK    4  A    between atoms: C_11  and  N_12
REMARK    5  A    between atoms: N_15  and  C_16
REMARK                            x       y       z     vdW  Elec       q    Type
REMARK                         _______ _______ _______ _____ _____    ______ ____
ROOT
ATOM      1  C   UNL     1       7.314   6.976  17.390  0.00  0.00    +0.000 C 
ENDROOT
BRANCH   1   2
ATOM      2  N   UNL     1       8.257   7.525  18.347  0.00  0.00    +0.000 N 
ATOM      3  C   UNL     1       8.378   8.892  18.394  0.00  0.00    +0.000 C 
ATOM      4  O   UNL     1       7.740   9.605  17.631  0.00  0.00    +0.000 OA
ATOM      5  N   UNL     1       9.307   9.305  19.321  0.00  0.00    +0.000 N 
ATOM      6  H   UNL     1       8.411   7.001  19.198  0.00  0.00    +0.000 HD
ATOM      7  H   UNL     1       9.937   8.592  19.655  0.00  0.00    +0.000 HD
BRANCH   5   8
ATOM      8  C   UNL     1       9.672  10.649  19.558  0.00  0.00    +0.000 A 
ATOM      9  C   UNL     1      10.368  11.426  18.623  0.00  0.00    +0.000 A 
ATOM     10  C   UNL     1      10.777  12.723  18.936  0.00  0.00    +0.000 A 
ATOM     11  C   UNL     1      10.476  13.251  20.181  0.00  0.00    +0.000 A 
ATOM     12  F   UNL     1      10.891  14.486  20.492  0.00  0.00    +0.000 F 
ATOM     13  C   UNL     1       9.751  12.515  21.111  0.00  0.00    +0.000 A 
ATOM     14  C   UNL     1       9.338  11.216  20.795  0.00  0.00    +0.000 A 
ENDBRANCH   5   8
ENDBRANCH   1   2
BRANCH   1  18
ATOM     15  C   UNL     1       4.809   4.957  18.920  0.00  0.00    +0.000 A 
ATOM     16  N   UNL     1       5.891   4.197  19.156  0.00  0.00    +0.000 NA
ATOM     17  O   UNL     1       6.934   4.914  18.579  0.00  0.00    +0.000 OA
ATOM     18  C   UNL     1       6.380   6.039  18.046  0.00  0.00    +0.000 A 
ATOM     19  N   UNL     1       5.078   6.106  18.204  0.00  0.00    +0.000 NA
BRANCH  15  25
ATOM     20  C   UNL     1       0.775   2.045  18.647  0.00  0.00    +0.000 C 
ATOM     21  C   UNL     1       1.479   3.222  19.252  0.00  0.00    +0.000 A 
ATOM     22  C   UNL     1       0.860   4.020  20.221  0.00  0.00    +0.000 A 
ATOM     23  C   UNL     1       1.532   5.110  20.773  0.00  0.00    +0.000 A 
ATOM     24  C   UNL     1       2.830   5.417  20.359  0.00  0.00    +0.000 A 
ATOM     25  C   UNL     1       3.467   4.635  19.386  0.00  0.00    +0.000 A 
ATOM     26  C   UNL     1       2.781   3.538  18.843  0.00  0.00    +0.000 A 
ENDBRANCH  15  25
ENDBRANCH   1  18
TORSDOF 4
ENDMDL
MODEL 5
REMARK VINA RESULT:      -8.4      5.743      7.718
REMARK  Name = 
REMARK  5 active torsions:
REMARK  status: ('A' for Active; 'I' for Inactive)
REMARK    1  A    between atoms: C_1  and  C_2
REMARK    2  A    between atoms: C_6  and  C_7
REMARK    3  A    between atoms: C_10  and  C_11
REMARK    4  A    between atoms: C_11  and  N_12
REMARK    5  A    between atoms: N_15  and  C_16
REMARK                            x       y       z     vdW  Elec       q    Type
REMARK                         _______ _______ _______ _____ _____    ______ ____
ROOT
ATOM      1  C   UNL     1       4.159   3.757  19.017  0.00  0.00    +0.000 C 
ENDROOT
BRANCH   1   2
ATOM      2  N   UNL     1       3.943   4.951  19.815  0.00  0.00    +0.000 N 
ATOM      3  C   UNL     1       2.870   5.740  19.482  0.00  0.00    +0.000 C 
ATOM      4  O   UNL     1       2.155   5.459  18.529  0.00  0.00    +0.000 OA
ATOM      5  N   UNL     1       2.765   6.850  20.288  0.00  0.00    +0.000 N 
ATOM      6  H   UNL     1       4.233   4.919  20.782  0.00  0.00    +0.000 HD
ATOM      7  H   UNL     1       3.587   7.075  20.829  0.00  0.00    +0.000 HD
BRANCH   5   8
ATOM      8  C   UNL     1       1.786   7.860  20.153  0.00  0.00    +0.000 A 
ATOM      9  C   UNL     1       1.707   8.700  19.035  0.00  0.00    +0.000 A 
ATOM     10  C   UNL     1       0.773   9.735  18.985  0.00  0.00    +0.000 A 
ATOM     11  C   UNL     1      -0.095   9.922  20.048  0.00  0.00    +0.000 A 
ATOM     12  F   UNL     1      -0.974  10.932  20.013  0.00  0.00    +0.000 F 
ATOM     13  C   UNL     1      -0.063   9.077  21.151  0.00  0.00    +0.000 A 
ATOM     14  C   UNL     1       0.871   8.036  21.199  0.00  0.00    +0.000 A 
ENDBRANCH   5   8
ENDBRANCH   1   2
BRANCH   1  18
ATOM     15  C   UNL     1       6.225   4.291  16.164  0.00  0.00    +0.000 A 
ATOM     16  N   UNL     1       7.126   4.489  17.140  0.00  0.00    +0.000 NA
ATOM     17  O   UNL     1       6.397   4.305  18.309  0.00  0.00    +0.000 OA
ATOM     18  C   UNL     1       5.122   4.016  17.928  0.00  0.00    +0.000 A 
ATOM     19  N   UNL     1       4.952   4.017  16.625  0.00  0.00    +0.000 NA
BRANCH  15  25
ATOM     20  C   UNL     1       5.400   2.576  11.560  0.00  0.00    +0.000 C 
ATOM     21  C   UNL     1       6.150   3.488  12.482  0.00  0.00    +0.000 A 
ATOM     22  C   UNL     1       7.152   4.341  12.004  0.00  0.00    +0.000 A 
ATOM     23  C   UNL     1       7.838   5.184  12.878  0.00  0.00    +0.000 A 
ATOM     24  C   UNL     1       7.533   5.181  14.241  0.00  0.00    +0.000 A 
ATOM     25  C   UNL     1       6.537   4.331  14.742  0.00  0.00    +0.000 A 
ATOM     26  C   UNL     1       5.851   3.492  13.850  0.00  0.00    +0.000 A 
ENDBRANCH  15  25
ENDBRANCH   1  18
TORSDOF 4
ENDMDL
MODEL 6
REMARK VINA RESULT:      -8.4      5.759      7.627
REMARK  Name = 
REMARK  5 active torsions:
REMARK  status: ('A' for Active; 'I' for Inactive)
REMARK    1  A    between atoms: C_1  and  C_2
REMARK    2  A    between atoms: C_6  and  C_7
REMARK    3  A    between atoms: C_10  and  C_11
REMARK    4  A    between atoms: C_11  and  N_12
REMARK    5  A    between atoms: N_15  and  C_16
REMARK                            x       y       z     vdW  Elec       q    Type
REMARK                         _______ _______ _______ _____ _____    ______ ____
ROOT
ATOM      1  C   UNL     1       3.923   3.791  18.819  0.00  0.00    +0.000 C 
ENDROOT
BRANCH   1   2
ATOM      2  N   UNL     1       3.733   4.967  19.649  0.00  0.00    +0.000 N 
ATOM      3  C   UNL     1       2.764   5.858  19.260  0.00  0.00    +0.000 C 
ATOM      4  O   UNL     1       2.119   5.677  18.236  0.00  0.00    +0.000 OA
ATOM      5  N   UNL     1       2.678   6.941  20.105  0.00  0.00    +0.000 N 
ATOM      6  H   UNL     1       3.931   4.873  20.636  0.00  0.00    +0.000 HD
ATOM      7  H   UNL     1       3.461   7.073  20.727  0.00  0.00    +0.000 HD
BRANCH   5   8
ATOM      8  C   UNL     1       1.801   8.035  19.932  0.00  0.00    +0.000 A 
ATOM      9  C   UNL     1       0.920   8.471  20.931  0.00  0.00    +0.000 A 
ATOM     10  C   UNL     1       0.018   9.505  20.684  0.00  0.00    +0.000 A 
ATOM     11  C   UNL     1       0.005  10.117  19.441  0.00  0.00    +0.000 A 
ATOM     12  F   UNL     1      -0.880  11.092  19.194  0.00  0.00    +0.000 F 
ATOM     13  C   UNL     1       0.896   9.730  18.447  0.00  0.00    +0.000 A 
ATOM     14  C   UNL     1       1.804   8.695  18.697  0.00  0.00    +0.000 A 
ENDBRANCH   5   8
ENDBRANCH   1   2
BRANCH   1  18
ATOM     15  C   UNL     1       6.044   4.315  16.005  0.00  0.00    +0.000 A 
ATOM     16  N   UNL     1       6.909   4.586  16.996  0.00  0.00    +0.000 NA
ATOM     17  O   UNL     1       6.155   4.411  18.152  0.00  0.00    +0.000 OA
ATOM     18  C   UNL     1       4.905   4.054  17.747  0.00  0.00    +0.000 A 
ATOM     19  N   UNL     1       4.773   4.002  16.441  0.00  0.00    +0.000 NA
BRANCH  15  25
ATOM     20  C   UNL     1       5.278   2.551  11.409  0.00  0.00    +0.000 C 
ATOM     21  C   UNL     1       6.037   3.451  12.336  0.00  0.00    +0.000 A 
ATOM     22  C   UNL     1       7.082   4.258  11.871  0.00  0.00    +0.000 A 
ATOM     23  C   UNL     1       7.775   5.090  12.749  0.00  0.00    +0.000 A 
ATOM     24  C   UNL     1       7.435   5.122  14.103  0.00  0.00    +0.000 A 
ATOM     25  C   UNL     1       6.395   4.318  14.591  0.00  0.00    +0.000 A 
ATOM     26  C   UNL     1       5.702   3.489  13.695  0.00  0.00    +0.000 A 
ENDBRANCH  15  25
ENDBRANCH   1  18
TORSDOF 4
ENDMDL
MODEL 7
REMARK VINA RESULT:      -8.3      3.552      9.553
REMARK  Name = 
REMARK  5 active torsions:
REMARK  status: ('A' for Active; 'I' for Inactive)
REMARK    1  A    between atoms: C_1  and  C_2
REMARK    2  A    between atoms: C_6  and  C_7
REMARK    3  A    between atoms: C_10  and  C_11
REMARK    4  A    between atoms: C_11  and  N_12
REMARK    5  A    between atoms: N_15  and  C_16
REMARK                            x       y       z     vdW  Elec       q    Type
REMARK                         _______ _______ _______ _____ _____    ______ ____
ROOT
ATOM      1  C   UNL     1       6.646   6.814  16.462  0.00  0.00    +0.000 C 
ENDROOT
BRANCH   1   2
ATOM      2  N   UNL     1       5.235   6.924  16.786  0.00  0.00    +0.000 N 
ATOM      3  C   UNL     1       4.710   5.974  17.627  0.00  0.00    +0.000 C 
ATOM      4  O   UNL     1       5.402   5.058  18.051  0.00  0.00    +0.000 OA
ATOM      5  N   UNL     1       3.366   6.162  17.855  0.00  0.00    +0.000 N 
ATOM      6  H   UNL     1       4.835   7.852  16.801  0.00  0.00    +0.000 HD
ATOM      7  H   UNL     1       2.897   6.784  17.214  0.00  0.00    +0.000 HD
BRANCH   5   8
ATOM      8  C   UNL     1       2.553   5.317  18.644  0.00  0.00    +0.000 A 
ATOM      9  C   UNL     1       2.321   5.540  20.008  0.00  0.00    +0.000 A 
ATOM     10  C   UNL     1       1.577   4.633  20.762  0.00  0.00    +0.000 A 
ATOM     11  C   UNL     1       1.048   3.508  20.150  0.00  0.00    +0.000 A 
ATOM     12  F   UNL     1       0.356   2.623  20.878  0.00  0.00    +0.000 F 
ATOM     13  C   UNL     1       1.230   3.286  18.790  0.00  0.00    +0.000 A 
ATOM     14  C   UNL     1       1.974   4.198  18.033  0.00  0.00    +0.000 A 
ENDBRANCH   5   8
ENDBRANCH   1   2
BRANCH   1  18
ATOM     15  C   UNL     1       8.586   8.993  18.507  0.00  0.00    +0.000 A 
ATOM     16  N   UNL     1       8.752   7.841  19.178  0.00  0.00    +0.000 NA
ATOM     17  O   UNL     1       8.014   6.919  18.444  0.00  0.00    +0.000 OA
ATOM     18  C   UNL     1       7.467   7.604  17.402  0.00  0.00    +0.000 A 
ATOM     19  N   UNL     1       7.765   8.883  17.402  0.00  0.00    +0.000 NA
BRANCH  15  25
ATOM     20  C   UNL     1      10.857  13.200  17.105  0.00  0.00    +0.000 C 
ATOM     21  C   UNL     1      10.346  12.311  18.199  0.00  0.00    +0.000 A 
ATOM     22  C   UNL     1      10.498  12.658  19.546  0.00  0.00    +0.000 A 
ATOM     23  C   UNL     1      10.014  11.819  20.550  0.00  0.00    +0.000 A 
ATOM     24  C   UNL     1       9.378  10.621  20.217  0.00  0.00    +0.000 A 
ATOM     25  C   UNL     1       9.221  10.252  18.874  0.00  0.00    +0.000 A 
ATOM     26  C   UNL     1       9.707  11.108  17.875  0.00  0.00    +0.000 A 
ENDBRANCH  15  25
ENDBRANCH   1  18
TORSDOF 4
ENDMDL
MODEL 8
REMARK VINA RESULT:      -8.1      1.439      1.906
REMARK  Name = 
REMARK  5 active torsions:
REMARK  status: ('A' for Active; 'I' for Inactive)
REMARK    1  A    between atoms: C_1  and  C_2
REMARK    2  A    between atoms: C_6  and  C_7
REMARK    3  A    between atoms: C_10  and  C_11
REMARK    4  A    between atoms: C_11  and  N_12
REMARK    5  A    between atoms: N_15  and  C_16
REMARK                            x       y       z     vdW  Elec       q    Type
REMARK                         _______ _______ _______ _____ _____    ______ ____
ROOT
ATOM      1  C   UNL     1       7.324   6.580  17.169  0.00  0.00    +0.000 C 
ENDROOT
BRANCH   1   2
ATOM      2  N   UNL     1       7.605   7.991  16.980  0.00  0.00    +0.000 N 
ATOM      3  C   UNL     1       8.342   8.619  17.954  0.00  0.00    +0.000 C 
ATOM      4  O   UNL     1       8.710   8.013  18.952  0.00  0.00    +0.000 OA
ATOM      5  N   UNL     1       8.537   9.954  17.685  0.00  0.00    +0.000 N 
ATOM      6  H   UNL     1       7.685   8.323  16.029  0.00  0.00    +0.000 HD
ATOM      7  H   UNL     1       7.935  10.349  16.978  0.00  0.00    +0.000 HD
BRANCH   5   8
ATOM      8  C   UNL     1       9.221  10.859  18.528  0.00  0.00    +0.000 A 
ATOM      9  C   UNL     1       9.349  10.664  19.910  0.00  0.00    +0.000 A 
ATOM     10  C   UNL     1       9.964  11.626  20.711  0.00  0.00    +0.000 A 
ATOM     11  C   UNL     1      10.465  12.779  20.130  0.00  0.00    +0.000 A 
ATOM     12  F   UNL     1      11.031  13.716  20.902  0.00  0.00    +0.000 F 
ATOM     13  C   UNL     1      10.386  12.977  18.756  0.00  0.00    +0.000 A 
ATOM     14  C   UNL     1       9.773  12.010  17.952  0.00  0.00    +0.000 A 
ENDBRANCH   5   8
ENDBRANCH   1   2
BRANCH   1  18
ATOM     15  C   UNL     1       3.995   5.830  18.194  0.00  0.00    +0.000 A 
ATOM     16  N   UNL     1       3.737   6.616  17.135  0.00  0.00    +0.000 NA
ATOM     17  O   UNL     1       4.999   6.967  16.667  0.00  0.00    +0.000 OA
ATOM     18  C   UNL     1       5.899   6.362  17.490  0.00  0.00    +0.000 A 
ATOM     19  N   UNL     1       5.341   5.671  18.458  0.00  0.00    +0.000 NA
BRANCH  15  25
ATOM     20  C   UNL     1       0.665   2.156  18.682  0.00  0.00    +0.000 C 
ATOM     21  C   UNL     1       1.325   3.382  19.237  0.00  0.00    +0.000 A 
ATOM     22  C   UNL     1       0.952   3.909  20.478  0.00  0.00    +0.000 A 
ATOM     23  C   UNL     1       1.580   5.050  20.979  0.00  0.00    +0.000 A 
ATOM     24  C   UNL     1       2.585   5.679  20.240  0.00  0.00    +0.000 A 
ATOM     25  C   UNL     1       2.970   5.171  18.992  0.00  0.00    +0.000 A 
ATOM     26  C   UNL     1       2.334   4.020  18.504  0.00  0.00    +0.000 A 
ENDBRANCH  15  25
ENDBRANCH   1  18
TORSDOF 4
ENDMDL
MODEL 9
REMARK VINA RESULT:      -8.0      4.246      5.249
REMARK  Name = 
REMARK  5 active torsions:
REMARK  status: ('A' for Active; 'I' for Inactive)
REMARK    1  A    between atoms: C_1  and  C_2
REMARK    2  A    between atoms: C_6  and  C_7
REMARK    3  A    between atoms: C_10  and  C_11
REMARK    4  A    between atoms: C_11  and  N_12
REMARK    5  A    between atoms: N_15  and  C_16
REMARK                            x       y       z     vdW  Elec       q    Type
REMARK                         _______ _______ _______ _____ _____    ______ ____
ROOT
ATOM      1  C   UNL     1       6.466   6.176  17.067  0.00  0.00    +0.000 C 
ENDROOT
BRANCH   1   2
ATOM      2  N   UNL     1       6.747   7.601  17.049  0.00  0.00    +0.000 N 
ATOM      3  C   UNL     1       7.791   8.043  17.823  0.00  0.00    +0.000 C 
ATOM      4  O   UNL     1       8.427   7.266  18.522  0.00  0.00    +0.000 OA
ATOM      5  N   UNL     1       7.961   9.406  17.745  0.00  0.00    +0.000 N 
ATOM      6  H   UNL     1       6.534   8.103  16.198  0.00  0.00    +0.000 HD
ATOM      7  H   UNL     1       7.185   9.921  17.355  0.00  0.00    +0.000 HD
BRANCH   5   8
ATOM      8  C   UNL     1       8.927  10.144  18.464  0.00  0.00    +0.000 A 
ATOM      9  C   UNL     1       8.925  10.246  19.861  0.00  0.00    +0.000 A 
ATOM     10  C   UNL     1       9.852  11.052  20.519  0.00  0.00    +0.000 A 
ATOM     11  C   UNL     1      10.796  11.748  19.782  0.00  0.00    +0.000 A 
ATOM     12  F   UNL     1      11.671  12.544  20.411  0.00  0.00    +0.000 F 
ATOM     13  C   UNL     1      10.845  11.632  18.398  0.00  0.00    +0.000 A 
ATOM     14  C   UNL     1       9.917  10.820  17.738  0.00  0.00    +0.000 A 
ENDBRANCH   5   8
ENDBRANCH   1   2
BRANCH   1  18
ATOM     15  C   UNL     1       6.612   4.570  13.891  0.00  0.00    +0.000 A 
ATOM     16  N   UNL     1       7.795   5.207  13.880  0.00  0.00    +0.000 NA
ATOM     17  O   UNL     1       7.823   5.877  15.098  0.00  0.00    +0.000 OA
ATOM     18  C   UNL     1       6.652   5.583  15.727  0.00  0.00    +0.000 A 
ATOM     19  N   UNL     1       5.861   4.805  15.025  0.00  0.00    +0.000 NA
BRANCH  15  25
ATOM     20  C   UNL     1       3.026   3.233  10.702  0.00  0.00    +0.000 C 
ATOM     21  C   UNL     1       4.395   3.013  11.270  0.00  0.00    +0.000 A 
ATOM     22  C   UNL     1       5.208   1.966  10.822  0.00  0.00    +0.000 A 
ATOM     23  C   UNL     1       6.480   1.778  11.363  0.00  0.00    +0.000 A 
ATOM     24  C   UNL     1       6.951   2.634  12.362  0.00  0.00    +0.000 A 
ATOM     25  C   UNL     1       6.151   3.685  12.829  0.00  0.00    +0.000 A 
ATOM     26  C   UNL     1       4.876   3.865  12.272  0.00  0.00    +0.000 A 
ENDBRANCH  15  25
ENDBRANCH   1  18
TORSDOF 4
ENDMDL
