MODEL 1
REMARK VINA RESULT:      -7.3      0.000      0.000
REMARK  Name = 
REMARK  4 active torsions:
REMARK  status: ('A' for Active; 'I' for Inactive)
REMARK    1  A    between atoms: C_5  and  S_6
REMARK    2  A    between atoms: S_6  and  C_7
REMARK    3  A    between atoms: N_9  and  C_10
REMARK    4  A    between atoms: C_17  and  C_18
REMARK                            x       y       z     vdW  Elec       q    Type
REMARK                         _______ _______ _______ _____ _____    ______ ____
ROOT
ATOM      1  C   UNL     1      -0.280  11.226  19.005  0.00  0.00    +0.000 A 
ATOM      2  C   UNL     1       0.297  10.092  18.478  0.00  0.00    +0.000 A 
ATOM      3  N   UNL     1       0.977   9.482  19.506  0.00  0.00    +0.000 N 
ATOM      4  N   UNL     1       0.961  10.239  20.620  0.00  0.00    +0.000 NA
ATOM      5  C   UNL     1       0.124  11.255  20.363  0.00  0.00    +0.000 A 
ENDROOT
BRANCH   5   6
ATOM      6  C   UNL     1      -0.332  12.063  21.491  0.00  0.00    +0.000 A 
ATOM      7  C   UNL     1       0.129  13.348  21.787  0.00  0.00    +0.000 A 
ATOM      8  C   UNL     1      -0.556  14.128  22.731  0.00  0.00    +0.000 A 
ATOM      9  C   UNL     1      -1.697  13.625  23.359  0.00  0.00    +0.000 A 
ATOM     10  C   UNL     1      -2.065  12.300  23.155  0.00  0.00    +0.000 A 
ATOM     11  C   UNL     1      -1.384  11.516  22.243  0.00  0.00    +0.000 A 
ATOM     12  O   UNL     1      -3.150  11.727  23.759  0.00  0.00    +0.000 OA
ATOM     13  C   UNL     1      -4.177  12.709  23.805  0.00  0.00    +0.000 C 
ATOM     14  C   UNL     1      -3.701  13.949  24.551  0.00  0.00    +0.000 C 
ATOM     15  O   UNL     1      -2.447  14.491  24.104  0.00  0.00    +0.000 OA
ENDBRANCH   5   6
BRANCH   3  16
ATOM     16  C   UNL     1       1.598   8.204  19.539  0.00  0.00    +0.000 A 
ATOM     17  C   UNL     1       1.448   7.348  20.634  0.00  0.00    +0.000 A 
ATOM     18  C   UNL     1       2.096   6.109  20.639  0.00  0.00    +0.000 A 
ATOM     19  C   UNL     1       2.901   5.726  19.566  0.00  0.00    +0.000 A 
ATOM     20  C   UNL     1       3.062   6.577  18.476  0.00  0.00    +0.000 A 
ATOM     21  C   UNL     1       2.412   7.810  18.459  0.00  0.00    +0.000 A 
ENDBRANCH   3  16
BRANCH   1  22
ATOM     22  S   UNL     1      -1.307  12.328  18.130  0.00  0.00    +0.000 S 
BRANCH  22  27
ATOM     23 CL   UNL     1      -7.359  11.343  19.619  0.00  0.00    +0.000 Cl
ATOM     24  C   UNL     1      -5.693  11.537  19.234  0.00  0.00    +0.000 A 
ATOM     25  C   UNL     1      -4.896  12.370  20.010  0.00  0.00    +0.000 A 
ATOM     26  C   UNL     1      -3.552  12.552  19.672  0.00  0.00    +0.000 A 
ATOM     27  C   UNL     1      -2.988  11.907  18.561  0.00  0.00    +0.000 A 
ATOM     28  C   UNL     1      -3.802  11.060  17.800  0.00  0.00    +0.000 A 
ATOM     29  C   UNL     1      -5.152  10.874  18.135  0.00  0.00    +0.000 A 
ENDBRANCH  22  27
ENDBRANCH   1  22
TORSDOF 4
ENDMDL
MODEL 2
REMARK VINA RESULT:      -7.3      0.444      1.010
REMARK  Name = 
REMARK  4 active torsions:
REMARK  status: ('A' for Active; 'I' for Inactive)
REMARK    1  A    between atoms: C_5  and  S_6
REMARK    2  A    between atoms: S_6  and  C_7
REMARK    3  A    between atoms: N_9  and  C_10
REMARK    4  A    between atoms: C_17  and  C_18
REMARK                            x       y       z     vdW  Elec       q    Type
REMARK                         _______ _______ _______ _____ _____    ______ ____
ROOT
ATOM      1  C   UNL     1       0.002  11.273  18.991  0.00  0.00    +0.000 A 
ATOM      2  C   UNL     1       0.564  10.124  18.480  0.00  0.00    +0.000 A 
ATOM      3  N   UNL     1       1.140   9.463  19.540  0.00  0.00    +0.000 N 
ATOM      4  N   UNL     1       1.076  10.198  20.667  0.00  0.00    +0.000 NA
ATOM      5  C   UNL     1       0.306  11.256  20.374  0.00  0.00    +0.000 A 
ENDROOT
BRANCH   5   6
ATOM      6  C   UNL     1      -0.195  12.061  21.484  0.00  0.00    +0.000 A 
ATOM      7  C   UNL     1       0.221  13.363  21.774  0.00  0.00    +0.000 A 
ATOM      8  C   UNL     1      -0.505  14.132  22.697  0.00  0.00    +0.000 A 
ATOM      9  C   UNL     1      -1.641  13.601  23.310  0.00  0.00    +0.000 A 
ATOM     10  C   UNL     1      -1.964  12.263  23.115  0.00  0.00    +0.000 A 
ATOM     11  C   UNL     1      -1.242  11.491  22.224  0.00  0.00    +0.000 A 
ATOM     12  O   UNL     1      -3.041  11.663  23.706  0.00  0.00    +0.000 OA
ATOM     13  C   UNL     1      -4.099  12.613  23.723  0.00  0.00    +0.000 C 
ATOM     14  C   UNL     1      -3.675  13.876  24.463  0.00  0.00    +0.000 C 
ATOM     15  O   UNL     1      -2.430  14.452  24.032  0.00  0.00    +0.000 OA
ENDBRANCH   5   6
BRANCH   3  16
ATOM     16  C   UNL     1       1.700   8.158  19.588  0.00  0.00    +0.000 A 
ATOM     17  C   UNL     1       2.499   7.669  18.550  0.00  0.00    +0.000 A 
ATOM     18  C   UNL     1       3.011   6.370  18.623  0.00  0.00    +0.000 A 
ATOM     19  C   UNL     1       2.720   5.553  19.716  0.00  0.00    +0.000 A 
ATOM     20  C   UNL     1       1.916   6.030  20.748  0.00  0.00    +0.000 A 
ATOM     21  C   UNL     1       1.410   7.328  20.688  0.00  0.00    +0.000 A 
ENDBRANCH   3  16
BRANCH   1  22
ATOM     22  S   UNL     1      -0.909  12.438  18.070  0.00  0.00    +0.000 S 
BRANCH  22  27
ATOM     23 CL   UNL     1      -7.071  11.131  18.437  0.00  0.00    +0.000 Cl
ATOM     24  C   UNL     1      -5.376  11.409  18.340  0.00  0.00    +0.000 A 
ATOM     25  C   UNL     1      -4.715  12.026  19.397  0.00  0.00    +0.000 A 
ATOM     26  C   UNL     1      -3.344  12.283  19.299  0.00  0.00    +0.000 A 
ATOM     27  C   UNL     1      -2.618  11.928  18.152  0.00  0.00    +0.000 A 
ATOM     28  C   UNL     1      -3.297  11.294  17.104  0.00  0.00    +0.000 A 
ATOM     29  C   UNL     1      -4.673  11.034  17.198  0.00  0.00    +0.000 A 
ENDBRANCH  22  27
ENDBRANCH   1  22
TORSDOF 4
ENDMDL
MODEL 3
REMARK VINA RESULT:      -7.0      2.407      4.611
REMARK  Name = 
REMARK  4 active torsions:
REMARK  status: ('A' for Active; 'I' for Inactive)
REMARK    1  A    between atoms: C_5  and  S_6
REMARK    2  A    between atoms: S_6  and  C_7
REMARK    3  A    between atoms: N_9  and  C_10
REMARK    4  A    between atoms: C_17  and  C_18
REMARK                            x       y       z     vdW  Elec       q    Type
REMARK                         _______ _______ _______ _____ _____    ______ ____
ROOT
ATOM      1  C   UNL     1      -0.063  12.374  19.423  0.00  0.00    +0.000 A 
ATOM      2  C   UNL     1       1.060  11.584  19.520  0.00  0.00    +0.000 A 
ATOM      3  N   UNL     1       0.662  10.297  19.242  0.00  0.00    +0.000 N 
ATOM      4  N   UNL     1      -0.676  10.220  19.099  0.00  0.00    +0.000 NA
ATOM      5  C   UNL     1      -1.121  11.485  19.112  0.00  0.00    +0.000 A 
ENDROOT
BRANCH   5   6
ATOM      6  C   UNL     1      -2.490  11.729  18.664  0.00  0.00    +0.000 A 
ATOM      7  C   UNL     1      -2.984  11.395  17.401  0.00  0.00    +0.000 A 
ATOM      8  C   UNL     1      -4.367  11.436  17.166  0.00  0.00    +0.000 A 
ATOM      9  C   UNL     1      -5.241  11.797  18.194  0.00  0.00    +0.000 A 
ATOM     10  C   UNL     1      -4.727  12.255  19.403  0.00  0.00    +0.000 A 
ATOM     11  C   UNL     1      -3.365  12.238  19.635  0.00  0.00    +0.000 A 
ATOM     12  O   UNL     1      -5.518  12.655  20.444  0.00  0.00    +0.000 OA
ATOM     13  C   UNL     1      -6.644  11.787  20.479  0.00  0.00    +0.000 C 
ATOM     14  C   UNL     1      -7.391  11.824  19.152  0.00  0.00    +0.000 C 
ATOM     15  O   UNL     1      -6.579  11.617  17.984  0.00  0.00    +0.000 OA
ENDBRANCH   5   6
BRANCH   3  16
ATOM     16  C   UNL     1       1.454   9.134  19.043  0.00  0.00    +0.000 A 
ATOM     17  C   UNL     1       2.121   8.904  17.835  0.00  0.00    +0.000 A 
ATOM     18  C   UNL     1       2.870   7.736  17.670  0.00  0.00    +0.000 A 
ATOM     19  C   UNL     1       2.948   6.792  18.694  0.00  0.00    +0.000 A 
ATOM     20  C   UNL     1       2.279   7.010  19.896  0.00  0.00    +0.000 A 
ATOM     21  C   UNL     1       1.537   8.178  20.073  0.00  0.00    +0.000 A 
ENDBRANCH   3  16
BRANCH   1  22
ATOM     22  S   UNL     1      -0.092  14.105  19.623  0.00  0.00    +0.000 S 
BRANCH  22  27
ATOM     23 CL   UNL     1      -3.278  15.108  24.977  0.00  0.00    +0.000 Cl
ATOM     24  C   UNL     1      -2.345  14.868  23.551  0.00  0.00    +0.000 A 
ATOM     25  C   UNL     1      -2.639  15.592  22.401  0.00  0.00    +0.000 A 
ATOM     26  C   UNL     1      -1.902  15.367  21.235  0.00  0.00    +0.000 A 
ATOM     27  C   UNL     1      -0.866  14.421  21.201  0.00  0.00    +0.000 A 
ATOM     28  C   UNL     1      -0.574  13.712  22.372  0.00  0.00    +0.000 A 
ATOM     29  C   UNL     1      -1.311  13.935  23.545  0.00  0.00    +0.000 A 
ENDBRANCH  22  27
ENDBRANCH   1  22
TORSDOF 4
ENDMDL
MODEL 4
REMARK VINA RESULT:      -7.0      3.917      6.805
REMARK  Name = 
REMARK  4 active torsions:
REMARK  status: ('A' for Active; 'I' for Inactive)
REMARK    1  A    between atoms: C_5  and  S_6
REMARK    2  A    between atoms: S_6  and  C_7
REMARK    3  A    between atoms: N_9  and  C_10
REMARK    4  A    between atoms: C_17  and  C_18
REMARK                            x       y       z     vdW  Elec       q    Type
REMARK                         _______ _______ _______ _____ _____    ______ ____
ROOT
ATOM      1  C   UNL     1       0.225  11.624  19.966  0.00  0.00    +0.000 A 
ATOM      2  C   UNL     1       1.348  12.347  19.632  0.00  0.00    +0.000 A 
ATOM      3  N   UNL     1       0.910  13.475  18.978  0.00  0.00    +0.000 N 
ATOM      4  N   UNL     1      -0.421  13.437  18.775  0.00  0.00    +0.000 NA
ATOM      5  C   UNL     1      -0.866  12.367  19.450  0.00  0.00    +0.000 A 
ENDROOT
BRANCH   5   6
ATOM      6  C   UNL     1      -2.305  12.252  19.670  0.00  0.00    +0.000 A 
ATOM      7  C   UNL     1      -2.977  12.721  20.802  0.00  0.00    +0.000 A 
ATOM      8  C   UNL     1      -4.378  12.791  20.796  0.00  0.00    +0.000 A 
ATOM      9  C   UNL     1      -5.093  12.404  19.660  0.00  0.00    +0.000 A 
ATOM     10  C   UNL     1      -4.422  11.814  18.595  0.00  0.00    +0.000 A 
ATOM     11  C   UNL     1      -3.043  11.722  18.601  0.00  0.00    +0.000 A 
ATOM     12  O   UNL     1      -5.056  11.381  17.464  0.00  0.00    +0.000 OA
ATOM     13  C   UNL     1      -6.088  12.315  17.172  0.00  0.00    +0.000 C 
ATOM     14  C   UNL     1      -7.048  12.438  18.349  0.00  0.00    +0.000 C 
ATOM     15  O   UNL     1      -6.429  12.688  19.623  0.00  0.00    +0.000 OA
ENDBRANCH   5   6
BRANCH   3  16
ATOM     16  C   UNL     1       1.646  14.624  18.577  0.00  0.00    +0.000 A 
ATOM     17  C   UNL     1       1.116  15.911  18.707  0.00  0.00    +0.000 A 
ATOM     18  C   UNL     1       1.860  17.013  18.277  0.00  0.00    +0.000 A 
ATOM     19  C   UNL     1       3.122  16.838  17.708  0.00  0.00    +0.000 A 
ATOM     20  C   UNL     1       3.652  15.558  17.567  0.00  0.00    +0.000 A 
ATOM     21  C   UNL     1       2.920  14.454  18.002  0.00  0.00    +0.000 A 
ENDBRANCH   3  16
BRANCH   1  22
ATOM     22  S   UNL     1       0.223  10.132  20.866  0.00  0.00    +0.000 S 
BRANCH  22  27
ATOM     23 CL   UNL     1       3.390   5.690  17.695  0.00  0.00    +0.000 Cl
ATOM     24  C   UNL     1       2.590   6.949  18.553  0.00  0.00    +0.000 A 
ATOM     25  C   UNL     1       2.314   6.797  19.907  0.00  0.00    +0.000 A 
ATOM     26  C   UNL     1       1.631   7.807  20.591  0.00  0.00    +0.000 A 
ATOM     27  C   UNL     1       1.219   8.977  19.936  0.00  0.00    +0.000 A 
ATOM     28  C   UNL     1       1.519   9.120  18.576  0.00  0.00    +0.000 A 
ATOM     29  C   UNL     1       2.204   8.109  17.886  0.00  0.00    +0.000 A 
ENDBRANCH  22  27
ENDBRANCH   1  22
TORSDOF 4
ENDMDL
MODEL 5
REMARK VINA RESULT:      -7.0      3.843      6.996
REMARK  Name = 
REMARK  4 active torsions:
REMARK  status: ('A' for Active; 'I' for Inactive)
REMARK    1  A    between atoms: C_5  and  S_6
REMARK    2  A    between atoms: S_6  and  C_7
REMARK    3  A    between atoms: N_9  and  C_10
REMARK    4  A    between atoms: C_17  and  C_18
REMARK                            x       y       z     vdW  Elec       q    Type
REMARK                         _______ _______ _______ _____ _____    ______ ____
ROOT
ATOM      1  C   UNL     1       0.369  11.295  19.528  0.00  0.00    +0.000 A 
ATOM      2  C   UNL     1       1.409  12.196  19.583  0.00  0.00    +0.000 A 
ATOM      3  N   UNL     1       1.062  13.248  18.767  0.00  0.00    +0.000 N 
ATOM      4  N   UNL     1      -0.084  12.996  18.106  0.00  0.00    +0.000 NA
ATOM      5  C   UNL     1      -0.567  11.859  18.626  0.00  0.00    +0.000 A 
ENDROOT
BRANCH   5   6
ATOM      6  C   UNL     1      -1.952  11.508  18.325  0.00  0.00    +0.000 A 
ATOM      7  C   UNL     1      -2.349  10.374  17.612  0.00  0.00    +0.000 A 
ATOM      8  C   UNL     1      -3.701   9.999  17.603  0.00  0.00    +0.000 A 
ATOM      9  C   UNL     1      -4.640  10.750  18.313  0.00  0.00    +0.000 A 
ATOM     10  C   UNL     1      -4.255  11.948  18.905  0.00  0.00    +0.000 A 
ATOM     11  C   UNL     1      -2.928  12.336  18.901  0.00  0.00    +0.000 A 
ATOM     12  O   UNL     1      -5.122  12.754  19.589  0.00  0.00    +0.000 OA
ATOM     13  C   UNL     1      -6.011  11.907  20.306  0.00  0.00    +0.000 C 
ATOM     14  C   UNL     1      -6.740  10.966  19.354  0.00  0.00    +0.000 C 
ATOM     15  O   UNL     1      -5.896  10.232  18.451  0.00  0.00    +0.000 OA
ENDBRANCH   5   6
BRANCH   3  16
ATOM     16  C   UNL     1       1.702  14.506  18.603  0.00  0.00    +0.000 A 
ATOM     17  C   UNL     1       1.057  15.702  18.936  0.00  0.00    +0.000 A 
ATOM     18  C   UNL     1       1.711  16.920  18.736  0.00  0.00    +0.000 A 
ATOM     19  C   UNL     1       2.997  16.955  18.196  0.00  0.00    +0.000 A 
ATOM     20  C   UNL     1       3.642  15.769  17.853  0.00  0.00    +0.000 A 
ATOM     21  C   UNL     1       3.000  14.548  18.058  0.00  0.00    +0.000 A 
ENDBRANCH   3  16
BRANCH   1  22
ATOM     22  S   UNL     1       0.280   9.809  20.433  0.00  0.00    +0.000 S 
BRANCH  22  27
ATOM     23 CL   UNL     1       3.876   5.396  17.710  0.00  0.00    +0.000 Cl
ATOM     24  C   UNL     1       2.958   6.648  18.453  0.00  0.00    +0.000 A 
ATOM     25  C   UNL     1       2.523   6.502  19.765  0.00  0.00    +0.000 A 
ATOM     26  C   UNL     1       1.747   7.506  20.353  0.00  0.00    +0.000 A 
ATOM     27  C   UNL     1       1.399   8.664  19.642  0.00  0.00    +0.000 A 
ATOM     28  C   UNL     1       1.859   8.802  18.327  0.00  0.00    +0.000 A 
ATOM     29  C   UNL     1       2.638   7.797  17.733  0.00  0.00    +0.000 A 
ENDBRANCH  22  27
ENDBRANCH   1  22
TORSDOF 4
ENDMDL
MODEL 6
REMARK VINA RESULT:      -7.0      3.734      7.001
REMARK  Name = 
REMARK  4 active torsions:
REMARK  status: ('A' for Active; 'I' for Inactive)
REMARK    1  A    between atoms: C_5  and  S_6
REMARK    2  A    between atoms: S_6  and  C_7
REMARK    3  A    between atoms: N_9  and  C_10
REMARK    4  A    between atoms: C_17  and  C_18
REMARK                            x       y       z     vdW  Elec       q    Type
REMARK                         _______ _______ _______ _____ _____    ______ ____
ROOT
ATOM      1  C   UNL     1       0.850  10.294  18.254  0.00  0.00    +0.000 A 
ATOM      2  C   UNL     1      -0.455   9.971  17.957  0.00  0.00    +0.000 A 
ATOM      3  N   UNL     1      -1.224  11.042  18.348  0.00  0.00    +0.000 N 
ATOM      4  N   UNL     1      -0.484  11.967  18.989  0.00  0.00    +0.000 NA
ATOM      5  C   UNL     1       0.791  11.574  18.858  0.00  0.00    +0.000 A 
ENDROOT
BRANCH   5   6
ATOM      6  C   UNL     1       1.837  12.541  19.182  0.00  0.00    +0.000 A 
ATOM      7  C   UNL     1       2.679  13.145  18.245  0.00  0.00    +0.000 A 
ATOM      8  C   UNL     1       3.467  14.241  18.628  0.00  0.00    +0.000 A 
ATOM      9  C   UNL     1       3.399  14.729  19.934  0.00  0.00    +0.000 A 
ATOM     10  C   UNL     1       2.662  14.037  20.889  0.00  0.00    +0.000 A 
ATOM     11  C   UNL     1       1.899  12.943  20.525  0.00  0.00    +0.000 A 
ATOM     12  O   UNL     1       2.573  14.434  22.193  0.00  0.00    +0.000 OA
ATOM     13  C   UNL     1       2.515  15.855  22.201  0.00  0.00    +0.000 C 
ATOM     14  C   UNL     1       3.736  16.446  21.509  0.00  0.00    +0.000 C 
ATOM     15  O   UNL     1       4.017  15.918  20.202  0.00  0.00    +0.000 OA
ENDBRANCH   5   6
BRANCH   3  16
ATOM     16  C   UNL     1      -2.604  11.291  18.112  0.00  0.00    +0.000 A 
ATOM     17  C   UNL     1      -3.200  10.991  16.884  0.00  0.00    +0.000 A 
ATOM     18  C   UNL     1      -4.553  11.273  16.683  0.00  0.00    +0.000 A 
ATOM     19  C   UNL     1      -5.312  11.864  17.694  0.00  0.00    +0.000 A 
ATOM     20  C   UNL     1      -4.723  12.175  18.917  0.00  0.00    +0.000 A 
ATOM     21  C   UNL     1      -3.375  11.887  19.129  0.00  0.00    +0.000 A 
ENDBRANCH   3  16
BRANCH   1  22
ATOM     22  S   UNL     1       2.236   9.298  17.901  0.00  0.00    +0.000 S 
BRANCH  22  27
ATOM     23 CL   UNL     1       2.113   3.971  21.280  0.00  0.00    +0.000 Cl
ATOM     24  C   UNL     1       2.067   5.425  20.362  0.00  0.00    +0.000 A 
ATOM     25  C   UNL     1       2.449   5.411  19.025  0.00  0.00    +0.000 A 
ATOM     26  C   UNL     1       2.445   6.602  18.293  0.00  0.00    +0.000 A 
ATOM     27  C   UNL     1       2.059   7.816  18.882  0.00  0.00    +0.000 A 
ATOM     28  C   UNL     1       1.663   7.808  20.224  0.00  0.00    +0.000 A 
ATOM     29  C   UNL     1       1.666   6.615  20.963  0.00  0.00    +0.000 A 
ENDBRANCH  22  27
ENDBRANCH   1  22
TORSDOF 4
ENDMDL
MODEL 7
REMARK VINA RESULT:      -7.0      3.920      6.818
REMARK  Name = 
REMARK  4 active torsions:
REMARK  status: ('A' for Active; 'I' for Inactive)
REMARK    1  A    between atoms: C_5  and  S_6
REMARK    2  A    between atoms: S_6  and  C_7
REMARK    3  A    between atoms: N_9  and  C_10
REMARK    4  A    between atoms: C_17  and  C_18
REMARK                            x       y       z     vdW  Elec       q    Type
REMARK                         _______ _______ _______ _____ _____    ______ ____
ROOT
ATOM      1  C   UNL     1       0.316  11.673  20.103  0.00  0.00    +0.000 A 
ATOM      2  C   UNL     1       1.438  12.386  19.744  0.00  0.00    +0.000 A 
ATOM      3  N   UNL     1       1.003  13.461  19.005  0.00  0.00    +0.000 N 
ATOM      4  N   UNL     1      -0.323  13.390  18.775  0.00  0.00    +0.000 NA
ATOM      5  C   UNL     1      -0.771  12.364  19.513  0.00  0.00    +0.000 A 
ENDROOT
BRANCH   5   6
ATOM      6  C   UNL     1      -2.213  12.245  19.708  0.00  0.00    +0.000 A 
ATOM      7  C   UNL     1      -2.904  12.708  20.831  0.00  0.00    +0.000 A 
ATOM      8  C   UNL     1      -4.305  12.775  20.802  0.00  0.00    +0.000 A 
ATOM      9  C   UNL     1      -5.000  12.393  19.653  0.00  0.00    +0.000 A 
ATOM     10  C   UNL     1      -4.311  11.809  18.595  0.00  0.00    +0.000 A 
ATOM     11  C   UNL     1      -2.932  11.720  18.624  0.00  0.00    +0.000 A 
ATOM     12  O   UNL     1      -4.925  11.381  17.452  0.00  0.00    +0.000 OA
ATOM     13  C   UNL     1      -5.954  12.315  17.148  0.00  0.00    +0.000 C 
ATOM     14  C   UNL     1      -6.933  12.430  18.310  0.00  0.00    +0.000 C 
ATOM     15  O   UNL     1      -6.336  12.675  19.594  0.00  0.00    +0.000 OA
ENDBRANCH   5   6
BRANCH   3  16
ATOM     16  C   UNL     1       1.734  14.588  18.541  0.00  0.00    +0.000 A 
ATOM     17  C   UNL     1       3.007  14.451  17.981  0.00  0.00    +0.000 A 
ATOM     18  C   UNL     1       3.704  15.587  17.560  0.00  0.00    +0.000 A 
ATOM     19  C   UNL     1       3.146  16.857  17.705  0.00  0.00    +0.000 A 
ATOM     20  C   UNL     1       1.881  17.002  18.271  0.00  0.00    +0.000 A 
ATOM     21  C   UNL     1       1.175  15.873  18.685  0.00  0.00    +0.000 A 
ENDBRANCH   3  16
BRANCH   1  22
ATOM     22  S   UNL     1       0.311  10.247  21.103  0.00  0.00    +0.000 S 
BRANCH  22  27
ATOM     23 CL   UNL     1       3.507   6.050  17.640  0.00  0.00    +0.000 Cl
ATOM     24  C   UNL     1       2.575   7.142  18.588  0.00  0.00    +0.000 A 
ATOM     25  C   UNL     1       2.098   8.318  18.020  0.00  0.00    +0.000 A 
ATOM     26  C   UNL     1       1.373   9.220  18.804  0.00  0.00    +0.000 A 
ATOM     27  C   UNL     1       1.113   8.961  20.158  0.00  0.00    +0.000 A 
ATOM     28  C   UNL     1       1.588   7.765  20.710  0.00  0.00    +0.000 A 
ATOM     29  C   UNL     1       2.317   6.857  19.927  0.00  0.00    +0.000 A 
ENDBRANCH  22  27
ENDBRANCH   1  22
TORSDOF 4
ENDMDL
MODEL 8
REMARK VINA RESULT:      -6.9      2.519      4.746
REMARK  Name = 
REMARK  4 active torsions:
REMARK  status: ('A' for Active; 'I' for Inactive)
REMARK    1  A    between atoms: C_5  and  S_6
REMARK    2  A    between atoms: S_6  and  C_7
REMARK    3  A    between atoms: N_9  and  C_10
REMARK    4  A    between atoms: C_17  and  C_18
REMARK                            x       y       z     vdW  Elec       q    Type
REMARK                         _______ _______ _______ _____ _____    ______ ____
ROOT
ATOM      1  C   UNL     1       0.019  12.247  19.466  0.00  0.00    +0.000 A 
ATOM      2  C   UNL     1       1.123  11.433  19.588  0.00  0.00    +0.000 A 
ATOM      3  N   UNL     1       0.711  10.161  19.268  0.00  0.00    +0.000 N 
ATOM      4  N   UNL     1      -0.621  10.112  19.073  0.00  0.00    +0.000 NA
ATOM      5  C   UNL     1      -1.043  11.384  19.096  0.00  0.00    +0.000 A 
ENDROOT
BRANCH   5   6
ATOM      6  C   UNL     1      -2.389  11.664  18.602  0.00  0.00    +0.000 A 
ATOM      7  C   UNL     1      -2.845  11.354  17.319  0.00  0.00    +0.000 A 
ATOM      8  C   UNL     1      -4.217  11.429  17.035  0.00  0.00    +0.000 A 
ATOM      9  C   UNL     1      -5.119  11.799  18.035  0.00  0.00    +0.000 A 
ATOM     10  C   UNL     1      -4.639  12.233  19.266  0.00  0.00    +0.000 A 
ATOM     11  C   UNL     1      -3.287  12.183  19.547  0.00  0.00    +0.000 A 
ATOM     12  O   UNL     1      -5.457  12.641  20.282  0.00  0.00    +0.000 OA
ATOM     13  C   UNL     1      -6.603  11.799  20.268  0.00  0.00    +0.000 C 
ATOM     14  C   UNL     1      -7.301  11.865  18.915  0.00  0.00    +0.000 C 
ATOM     15  O   UNL     1      -6.452  11.652  17.775  0.00  0.00    +0.000 OA
ENDBRANCH   5   6
BRANCH   3  16
ATOM     16  C   UNL     1       1.489   8.987  19.074  0.00  0.00    +0.000 A 
ATOM     17  C   UNL     1       1.607   8.016  20.074  0.00  0.00    +0.000 A 
ATOM     18  C   UNL     1       2.402   6.888  19.854  0.00  0.00    +0.000 A 
ATOM     19  C   UNL     1       3.089   6.728  18.650  0.00  0.00    +0.000 A 
ATOM     20  C   UNL     1       2.984   7.696  17.654  0.00  0.00    +0.000 A 
ATOM     21  C   UNL     1       2.185   8.819  17.861  0.00  0.00    +0.000 A 
ENDBRANCH   3  16
BRANCH   1  22
ATOM     22  S   UNL     1       0.014  13.973  19.702  0.00  0.00    +0.000 S 
BRANCH  22  27
ATOM     23 CL   UNL     1      -1.960  15.284  25.550  0.00  0.00    +0.000 Cl
ATOM     24  C   UNL     1      -1.358  14.890  23.987  0.00  0.00    +0.000 A 
ATOM     25  C   UNL     1      -0.899  15.899  23.148  0.00  0.00    +0.000 A 
ATOM     26  C   UNL     1      -0.445  15.578  21.865  0.00  0.00    +0.000 A 
ATOM     27  C   UNL     1      -0.442  14.252  21.406  0.00  0.00    +0.000 A 
ATOM     28  C   UNL     1      -0.894  13.248  22.270  0.00  0.00    +0.000 A 
ATOM     29  C   UNL     1      -1.351  13.565  23.558  0.00  0.00    +0.000 A 
ENDBRANCH  22  27
ENDBRANCH   1  22
TORSDOF 4
ENDMDL
MODEL 9
REMARK VINA RESULT:      -6.9      2.253      4.437
REMARK  Name = 
REMARK  4 active torsions:
REMARK  status: ('A' for Active; 'I' for Inactive)
REMARK    1  A    between atoms: C_5  and  S_6
REMARK    2  A    between atoms: S_6  and  C_7
REMARK    3  A    between atoms: N_9  and  C_10
REMARK    4  A    between atoms: C_17  and  C_18
REMARK                            x       y       z     vdW  Elec       q    Type
REMARK                         _______ _______ _______ _____ _____    ______ ____
ROOT
ATOM      1  C   UNL     1       0.026  11.627  20.045  0.00  0.00    +0.000 A 
ATOM      2  C   UNL     1       1.128  10.809  20.167  0.00  0.00    +0.000 A 
ATOM      3  N   UNL     1       0.882   9.700  19.392  0.00  0.00    +0.000 N 
ATOM      4  N   UNL     1      -0.368   9.721  18.891  0.00  0.00    +0.000 NA
ATOM      5  C   UNL     1      -0.868  10.926  19.198  0.00  0.00    +0.000 A 
ENDROOT
BRANCH   5   6
ATOM      6  C   UNL     1      -2.087  11.351  18.516  0.00  0.00    +0.000 A 
ATOM      7  C   UNL     1      -2.324  11.207  17.147  0.00  0.00    +0.000 A 
ATOM      8  C   UNL     1      -3.618  11.409  16.643  0.00  0.00    +0.000 A 
ATOM      9  C   UNL     1      -4.662  11.741  17.509  0.00  0.00    +0.000 A 
ATOM     10  C   UNL     1      -4.386  12.013  18.845  0.00  0.00    +0.000 A 
ATOM     11  C   UNL     1      -3.110  11.836  19.346  0.00  0.00    +0.000 A 
ATOM     12  O   UNL     1      -5.349  12.374  19.746  0.00  0.00    +0.000 OA
ATOM     13  C   UNL     1      -6.518  11.624  19.441  0.00  0.00    +0.000 C 
ATOM     14  C   UNL     1      -6.959  11.877  18.005  0.00  0.00    +0.000 C 
ATOM     15  O   UNL     1      -5.934  11.719  17.010  0.00  0.00    +0.000 OA
ENDBRANCH   5   6
BRANCH   3  16
ATOM     16  C   UNL     1       1.760   8.639  19.038  0.00  0.00    +0.000 A 
ATOM     17  C   UNL     1       2.417   8.618  17.804  0.00  0.00    +0.000 A 
ATOM     18  C   UNL     1       3.252   7.545  17.483  0.00  0.00    +0.000 A 
ATOM     19  C   UNL     1       3.426   6.488  18.377  0.00  0.00    +0.000 A 
ATOM     20  C   UNL     1       2.767   6.498  19.604  0.00  0.00    +0.000 A 
ATOM     21  C   UNL     1       1.939   7.570  19.937  0.00  0.00    +0.000 A 
ENDBRANCH   3  16
BRANCH   1  22
ATOM     22  S   UNL     1      -0.144  13.196  20.782  0.00  0.00    +0.000 S 
BRANCH  22  27
ATOM     23 CL   UNL     1      -5.095  12.749  24.670  0.00  0.00    +0.000 Cl
ATOM     24  C   UNL     1      -3.697  12.876  23.673  0.00  0.00    +0.000 A 
ATOM     25  C   UNL     1      -3.494  14.019  22.909  0.00  0.00    +0.000 A 
ATOM     26  C   UNL     1      -2.376  14.101  22.072  0.00  0.00    +0.000 A 
ATOM     27  C   UNL     1      -1.450  13.050  21.992  0.00  0.00    +0.000 A 
ATOM     28  C   UNL     1      -1.663  11.913  22.780  0.00  0.00    +0.000 A 
ATOM     29  C   UNL     1      -2.783  11.826  23.620  0.00  0.00    +0.000 A 
ENDBRANCH  22  27
ENDBRANCH   1  22
TORSDOF 4
ENDMDL
