MODEL 1
REMARK VINA RESULT:      -6.7      0.000      0.000
REMARK  Name = 
REMARK  15 active torsions:
REMARK  status: ('A' for Active; 'I' for Inactive)
REMARK    1  A    between atoms: C_1  and  C_2
REMARK    2  A    between atoms: N_4  and  C_5
REMARK    3  A    between atoms: C_6  and  N_7
REMARK    4  A    between atoms: N_7  and  C_8
REMARK    5  A    between atoms: C_8  and  C_9
REMARK    6  A    between atoms: C_9  and  C_10
REMARK    7  A    between atoms: C_10  and  N_11
REMARK    8  A    between atoms: C_13  and  C_14
REMARK    9  A    between atoms: C_14  and  O_16
REMARK   10  A    between atoms: C_18  and  C_19
REMARK   11  A    between atoms: C_19  and  O_20
REMARK   12  A    between atoms: C_19  and  C_21
REMARK   13  A    between atoms: C_21  and  O_22
REMARK   14  A    between atoms: C_21  and  C_23
REMARK   15  A    between atoms: C_23  and  O_24
REMARK                            x       y       z     vdW  Elec       q    Type
REMARK                         _______ _______ _______ _____ _____    ______ ____
ROOT
ATOM      1  C   UNL     1       4.548   4.209  17.349  0.00  0.00    +0.000 C 
ATOM      2  C   UNL     1       2.994   4.341  17.113  0.00  0.00    +0.000 C 
ATOM      3  C   UNL     1       2.364   5.286  18.089  0.00  0.00    +0.000 C 
ATOM      4  C   UNL     1       3.029   5.920  19.063  0.00  0.00    +0.000 C 
ATOM      5  O   UNL     1       4.397   5.851  19.217  0.00  0.00    +0.000 OA
ATOM      6  C   UNL     1       5.102   5.518  17.992  0.00  0.00    +0.000 C 
ENDROOT
BRANCH   1  10
ATOM      7  C   UNL     1       6.426   3.978  14.017  0.00  0.00    +0.000 C 
ATOM      8  C   UNL     1       5.510   4.584  15.049  0.00  0.00    +0.000 C 
ATOM      9  O   UNL     1       5.133   5.748  14.984  0.00  0.00    +0.000 OA
ATOM     10  N   UNL     1       5.263   3.773  16.131  0.00  0.00    +0.000 N 
ATOM     11  H   UNL     1       5.563   2.806  16.087  0.00  0.00    +0.000 HD
ENDBRANCH   1  10
BRANCH   2  12
ATOM     12  N   UNL     1       2.352   3.001  17.192  0.00  0.00    +0.000 NA
ATOM     13  H   UNL     1       2.356   2.580  16.261  0.00  0.00    +0.000 HD
BRANCH  12  14
ATOM     14  C   UNL     1       2.980   2.038  18.115  0.00  0.00    +0.000 C 
BRANCH  14  15
ATOM     15  C   UNL     1       2.528   2.123  19.577  0.00  0.00    +0.000 C 
BRANCH  15  16
ATOM     16  C   UNL     1       3.682   2.514  20.495  0.00  0.00    +0.000 C 
BRANCH  16  17
ATOM     17  N   UNL     1       4.963   2.213  19.868  0.00  0.00    +0.000 NA
ATOM     18  H   UNL     1       5.717   2.342  20.542  0.00  0.00    +0.000 HD
ATOM     19  H   UNL     1       5.133   2.881  19.119  0.00  0.00    +0.000 HD
ENDBRANCH  16  17
ENDBRANCH  15  16
ENDBRANCH  14  15
ENDBRANCH  12  14
ENDBRANCH   2  12
BRANCH   4  20
ATOM     20  C   UNL     1       2.231   6.704  20.050  0.00  0.00    +0.000 C 
ATOM     21  O   UNL     1       1.876   7.863  19.909  0.00  0.00    +0.000 OA
BRANCH  20  22
ATOM     22  O   UNL     1       1.913   5.956  21.128  0.00  0.00    +0.000 OA
ATOM     23  H   UNL     1       1.778   5.016  20.880  0.00  0.00    +0.000 HD
ENDBRANCH  20  22
ENDBRANCH   4  20
BRANCH   6  24
ATOM     24  C   UNL     1       6.603   5.453  18.386  0.00  0.00    +0.000 C 
BRANCH  24  25
ATOM     25  O   UNL     1       7.218   4.168  18.220  0.00  0.00    +0.000 OA
ATOM     26  H   UNL     1       8.039   4.157  18.747  0.00  0.00    +0.000 HD
ENDBRANCH  24  25
BRANCH  24  27
ATOM     27  C   UNL     1       7.474   6.483  17.627  0.00  0.00    +0.000 C 
BRANCH  27  28
ATOM     28  O   UNL     1       6.616   7.283  16.787  0.00  0.00    +0.000 OA
ATOM     29  H   UNL     1       6.731   6.937  15.878  0.00  0.00    +0.000 HD
ENDBRANCH  27  28
BRANCH  27  30
ATOM     30  C   UNL     1       8.245   7.450  18.537  0.00  0.00    +0.000 C 
BRANCH  30  31
ATOM     31  O   UNL     1       8.171   8.769  17.999  0.00  0.00    +0.000 OA
ATOM     32  H   UNL     1       8.606   9.345  18.660  0.00  0.00    +0.000 HD
ENDBRANCH  30  31
ENDBRANCH  27  30
ENDBRANCH  24  27
ENDBRANCH   6  24
TORSDOF 14
ENDMDL
MODEL 2
REMARK VINA RESULT:      -6.6      2.523      4.447
REMARK  Name = 
REMARK  15 active torsions:
REMARK  status: ('A' for Active; 'I' for Inactive)
REMARK    1  A    between atoms: C_1  and  C_2
REMARK    2  A    between atoms: N_4  and  C_5
REMARK    3  A    between atoms: C_6  and  N_7
REMARK    4  A    between atoms: N_7  and  C_8
REMARK    5  A    between atoms: C_8  and  C_9
REMARK    6  A    between atoms: C_9  and  C_10
REMARK    7  A    between atoms: C_10  and  N_11
REMARK    8  A    between atoms: C_13  and  C_14
REMARK    9  A    between atoms: C_14  and  O_16
REMARK   10  A    between atoms: C_18  and  C_19
REMARK   11  A    between atoms: C_19  and  O_20
REMARK   12  A    between atoms: C_19  and  C_21
REMARK   13  A    between atoms: C_21  and  O_22
REMARK   14  A    between atoms: C_21  and  C_23
REMARK   15  A    between atoms: C_23  and  O_24
REMARK                            x       y       z     vdW  Elec       q    Type
REMARK                         _______ _______ _______ _____ _____    ______ ____
ROOT
ATOM      1  C   UNL     1       4.944   5.873  17.783  0.00  0.00    +0.000 C 
ATOM      2  C   UNL     1       4.827   5.196  19.203  0.00  0.00    +0.000 C 
ATOM      3  C   UNL     1       4.359   3.777  19.102  0.00  0.00    +0.000 C 
ATOM      4  C   UNL     1       4.048   3.164  17.954  0.00  0.00    +0.000 C 
ATOM      5  O   UNL     1       4.220   3.743  16.714  0.00  0.00    +0.000 OA
ATOM      6  C   UNL     1       5.226   4.789  16.698  0.00  0.00    +0.000 C 
ENDROOT
BRANCH   1  10
ATOM      7  C   UNL     1       8.032   8.141  17.716  0.00  0.00    +0.000 C 
ATOM      8  C   UNL     1       7.251   6.875  17.958  0.00  0.00    +0.000 C 
ATOM      9  O   UNL     1       7.800   5.799  18.164  0.00  0.00    +0.000 OA
ATOM     10  N   UNL     1       5.894   7.006  17.781  0.00  0.00    +0.000 N 
ATOM     11  H   UNL     1       5.511   7.937  17.668  0.00  0.00    +0.000 HD
ENDBRANCH   1  10
BRANCH   2  12
ATOM     12  N   UNL     1       3.916   5.989  20.072  0.00  0.00    +0.000 NA
ATOM     13  H   UNL     1       4.276   6.942  20.142  0.00  0.00    +0.000 HD
BRANCH  12  14
ATOM     14  C   UNL     1       2.514   6.079  19.623  0.00  0.00    +0.000 C 
BRANCH  14  15
ATOM     15  C   UNL     1       1.461   5.594  20.625  0.00  0.00    +0.000 C 
BRANCH  15  16
ATOM     16  C   UNL     1       1.615   4.104  20.919  0.00  0.00    +0.000 C 
BRANCH  16  17
ATOM     17  N   UNL     1       0.646   3.326  20.156  0.00  0.00    +0.000 NA
ATOM     18  H   UNL     1       0.452   3.790  19.269  0.00  0.00    +0.000 HD
ATOM     19  H   UNL     1      -0.236   3.301  20.664  0.00  0.00    +0.000 HD
ENDBRANCH  16  17
ENDBRANCH  15  16
ENDBRANCH  14  15
ENDBRANCH  12  14
ENDBRANCH   2  12
BRANCH   4  20
ATOM     20  C   UNL     1       3.446   1.801  18.037  0.00  0.00    +0.000 C 
ATOM     21  O   UNL     1       4.040   0.786  18.364  0.00  0.00    +0.000 OA
BRANCH  20  22
ATOM     22  O   UNL     1       2.132   1.826  17.731  0.00  0.00    +0.000 OA
ATOM     23  H   UNL     1       1.879   1.046  17.192  0.00  0.00    +0.000 HD
ENDBRANCH  20  22
ENDBRANCH   4  20
BRANCH   6  24
ATOM     24  C   UNL     1       5.235   5.328  15.241  0.00  0.00    +0.000 C 
BRANCH  24  25
ATOM     25  O   UNL     1       5.098   6.750  15.120  0.00  0.00    +0.000 OA
ATOM     26  H   UNL     1       5.556   7.161  15.878  0.00  0.00    +0.000 HD
ENDBRANCH  24  25
BRANCH  24  27
ATOM     27  C   UNL     1       6.499   4.917  14.450  0.00  0.00    +0.000 C 
BRANCH  27  28
ATOM     28  O   UNL     1       7.544   4.587  15.389  0.00  0.00    +0.000 OA
ATOM     29  H   UNL     1       7.332   5.076  16.212  0.00  0.00    +0.000 HD
ENDBRANCH  27  28
BRANCH  27  30
ATOM     30  C   UNL     1       6.307   3.695  13.541  0.00  0.00    +0.000 C 
BRANCH  30  31
ATOM     31  O   UNL     1       6.856   3.968  12.254  0.00  0.00    +0.000 OA
ATOM     32  H   UNL     1       7.702   3.476  12.221  0.00  0.00    +0.000 HD
ENDBRANCH  30  31
ENDBRANCH  27  30
ENDBRANCH  24  27
ENDBRANCH   6  24
TORSDOF 14
ENDMDL
MODEL 3
REMARK VINA RESULT:      -6.6      1.101      1.282
REMARK  Name = 
REMARK  15 active torsions:
REMARK  status: ('A' for Active; 'I' for Inactive)
REMARK    1  A    between atoms: C_1  and  C_2
REMARK    2  A    between atoms: N_4  and  C_5
REMARK    3  A    between atoms: C_6  and  N_7
REMARK    4  A    between atoms: N_7  and  C_8
REMARK    5  A    between atoms: C_8  and  C_9
REMARK    6  A    between atoms: C_9  and  C_10
REMARK    7  A    between atoms: C_10  and  N_11
REMARK    8  A    between atoms: C_13  and  C_14
REMARK    9  A    between atoms: C_14  and  O_16
REMARK   10  A    between atoms: C_18  and  C_19
REMARK   11  A    between atoms: C_19  and  O_20
REMARK   12  A    between atoms: C_19  and  C_21
REMARK   13  A    between atoms: C_21  and  O_22
REMARK   14  A    between atoms: C_21  and  C_23
REMARK   15  A    between atoms: C_23  and  O_24
REMARK                            x       y       z     vdW  Elec       q    Type
REMARK                         _______ _______ _______ _____ _____    ______ ____
ROOT
ATOM      1  C   UNL     1       4.407   4.087  17.604  0.00  0.00    +0.000 C 
ATOM      2  C   UNL     1       2.890   4.356  17.268  0.00  0.00    +0.000 C 
ATOM      3  C   UNL     1       2.279   5.340  18.218  0.00  0.00    +0.000 C 
ATOM      4  C   UNL     1       2.928   5.902  19.245  0.00  0.00    +0.000 C 
ATOM      5  O   UNL     1       4.272   5.712  19.488  0.00  0.00    +0.000 OA
ATOM      6  C   UNL     1       5.027   5.334  18.306  0.00  0.00    +0.000 C 
ENDROOT
BRANCH   1  10
ATOM      7  C   UNL     1       6.399   3.732  14.350  0.00  0.00    +0.000 C 
ATOM      8  C   UNL     1       5.449   4.376  15.327  0.00  0.00    +0.000 C 
ATOM      9  O   UNL     1       5.077   5.537  15.206  0.00  0.00    +0.000 OA
ATOM     10  N   UNL     1       5.163   3.606  16.429  0.00  0.00    +0.000 N 
ATOM     11  H   UNL     1       5.462   2.637  16.430  0.00  0.00    +0.000 HD
ENDBRANCH   1  10
BRANCH   2  12
ATOM     12  N   UNL     1       2.131   3.076  17.279  0.00  0.00    +0.000 NA
ATOM     13  H   UNL     1       2.253   2.615  16.376  0.00  0.00    +0.000 HD
BRANCH  12  14
ATOM     14  C   UNL     1       2.513   2.109  18.324  0.00  0.00    +0.000 C 
BRANCH  14  15
ATOM     15  C   UNL     1       1.809   2.275  19.675  0.00  0.00    +0.000 C 
BRANCH  15  16
ATOM     16  C   UNL     1       2.802   2.616  20.783  0.00  0.00    +0.000 C 
BRANCH  16  17
ATOM     17  N   UNL     1       2.101   3.037  21.990  0.00  0.00    +0.000 NA
ATOM     18  H   UNL     1       2.243   4.036  22.142  0.00  0.00    +0.000 HD
ATOM     19  H   UNL     1       2.509   2.565  22.795  0.00  0.00    +0.000 HD
ENDBRANCH  16  17
ENDBRANCH  15  16
ENDBRANCH  14  15
ENDBRANCH  12  14
ENDBRANCH   2  12
BRANCH   4  20
ATOM     20  C   UNL     1       2.136   6.739  20.191  0.00  0.00    +0.000 C 
ATOM     21  O   UNL     1       1.856   7.916  20.028  0.00  0.00    +0.000 OA
BRANCH  20  22
ATOM     22  O   UNL     1       1.727   6.021  21.259  0.00  0.00    +0.000 OA
ATOM     23  H   UNL     1       2.469   5.857  21.880  0.00  0.00    +0.000 HD
ENDBRANCH  20  22
ENDBRANCH   4  20
BRANCH   6  24
ATOM     24  C   UNL     1       6.487   5.134  18.798  0.00  0.00    +0.000 C 
BRANCH  24  25
ATOM     25  O   UNL     1       7.267   4.215  18.020  0.00  0.00    +0.000 OA
ATOM     26  H   UNL     1       8.047   3.960  18.550  0.00  0.00    +0.000 HD
ENDBRANCH  24  25
BRANCH  24  27
ATOM     27  C   UNL     1       7.284   6.457  18.886  0.00  0.00    +0.000 C 
BRANCH  27  28
ATOM     28  O   UNL     1       8.649   6.151  19.240  0.00  0.00    +0.000 OA
ATOM     29  H   UNL     1       8.939   6.869  19.841  0.00  0.00    +0.000 HD
ENDBRANCH  27  28
BRANCH  27  30
ATOM     30  C   UNL     1       7.326   7.257  17.577  0.00  0.00    +0.000 C 
BRANCH  30  31
ATOM     31  O   UNL     1       7.706   6.396  16.506  0.00  0.00    +0.000 OA
ATOM     32  H   UNL     1       7.624   5.487  16.860  0.00  0.00    +0.000 HD
ENDBRANCH  30  31
ENDBRANCH  27  30
ENDBRANCH  24  27
ENDBRANCH   6  24
TORSDOF 14
ENDMDL
MODEL 4
REMARK VINA RESULT:      -6.5      2.745      4.928
REMARK  Name = 
REMARK  15 active torsions:
REMARK  status: ('A' for Active; 'I' for Inactive)
REMARK    1  A    between atoms: C_1  and  C_2
REMARK    2  A    between atoms: N_4  and  C_5
REMARK    3  A    between atoms: C_6  and  N_7
REMARK    4  A    between atoms: N_7  and  C_8
REMARK    5  A    between atoms: C_8  and  C_9
REMARK    6  A    between atoms: C_9  and  C_10
REMARK    7  A    between atoms: C_10  and  N_11
REMARK    8  A    between atoms: C_13  and  C_14
REMARK    9  A    between atoms: C_14  and  O_16
REMARK   10  A    between atoms: C_18  and  C_19
REMARK   11  A    between atoms: C_19  and  O_20
REMARK   12  A    between atoms: C_19  and  C_21
REMARK   13  A    between atoms: C_21  and  O_22
REMARK   14  A    between atoms: C_21  and  C_23
REMARK   15  A    between atoms: C_23  and  O_24
REMARK                            x       y       z     vdW  Elec       q    Type
REMARK                         _______ _______ _______ _____ _____    ______ ____
ROOT
ATOM      1  C   UNL     1       4.919   5.935  17.701  0.00  0.00    +0.000 C 
ATOM      2  C   UNL     1       4.638   5.329  19.130  0.00  0.00    +0.000 C 
ATOM      3  C   UNL     1       4.176   3.907  19.047  0.00  0.00    +0.000 C 
ATOM      4  C   UNL     1       3.994   3.237  17.903  0.00  0.00    +0.000 C 
ATOM      5  O   UNL     1       4.308   3.754  16.663  0.00  0.00    +0.000 OA
ATOM      6  C   UNL     1       5.316   4.798  16.709  0.00  0.00    +0.000 C 
ENDROOT
BRANCH   1  10
ATOM      7  C   UNL     1       8.009   8.197  17.816  0.00  0.00    +0.000 C 
ATOM      8  C   UNL     1       7.212   6.934  18.017  0.00  0.00    +0.000 C 
ATOM      9  O   UNL     1       7.744   5.859  18.266  0.00  0.00    +0.000 OA
ATOM     10  N   UNL     1       5.870   7.066  17.751  0.00  0.00    +0.000 N 
ATOM     11  H   UNL     1       5.496   7.997  17.606  0.00  0.00    +0.000 HD
ENDBRANCH   1  10
BRANCH   2  12
ATOM     12  N   UNL     1       3.638   6.164  19.850  0.00  0.00    +0.000 NA
ATOM     13  H   UNL     1       4.096   7.016  20.176  0.00  0.00    +0.000 HD
BRANCH  12  14
ATOM     14  C   UNL     1       2.456   6.571  19.068  0.00  0.00    +0.000 C 
BRANCH  14  15
ATOM     15  C   UNL     1       2.126   8.067  19.087  0.00  0.00    +0.000 C 
BRANCH  15  16
ATOM     16  C   UNL     1       1.868   8.599  17.681  0.00  0.00    +0.000 C 
BRANCH  16  17
ATOM     17  N   UNL     1       2.068  10.043  17.632  0.00  0.00    +0.000 NA
ATOM     18  H   UNL     1       2.705  10.329  18.375  0.00  0.00    +0.000 HD
ATOM     19  H   UNL     1       1.183  10.509  17.820  0.00  0.00    +0.000 HD
ENDBRANCH  16  17
ENDBRANCH  15  16
ENDBRANCH  14  15
ENDBRANCH  12  14
ENDBRANCH   2  12
BRANCH   4  20
ATOM     20  C   UNL     1       3.379   1.881  17.983  0.00  0.00    +0.000 C 
ATOM     21  O   UNL     1       3.886   0.906  18.516  0.00  0.00    +0.000 OA
BRANCH  20  22
ATOM     22  O   UNL     1       2.155   1.861  17.414  0.00  0.00    +0.000 OA
ATOM     23  H   UNL     1       2.212   1.637  16.460  0.00  0.00    +0.000 HD
ENDBRANCH  20  22
ENDBRANCH   4  20
BRANCH   6  24
ATOM     24  C   UNL     1       5.493   5.264  15.238  0.00  0.00    +0.000 C 
BRANCH  24  25
ATOM     25  O   UNL     1       5.098   6.618  14.980  0.00  0.00    +0.000 OA
ATOM     26  H   UNL     1       5.891   7.182  15.055  0.00  0.00    +0.000 HD
ENDBRANCH  24  25
BRANCH  24  27
ATOM     27  C   UNL     1       6.941   5.099  14.720  0.00  0.00    +0.000 C 
BRANCH  27  28
ATOM     28  O   UNL     1       7.716   4.414  15.727  0.00  0.00    +0.000 OA
ATOM     29  H   UNL     1       8.493   4.985  15.904  0.00  0.00    +0.000 HD
ENDBRANCH  27  28
BRANCH  27  30
ATOM     30  C   UNL     1       7.060   4.282  13.426  0.00  0.00    +0.000 C 
BRANCH  30  31
ATOM     31  O   UNL     1       6.163   3.174  13.479  0.00  0.00    +0.000 OA
ATOM     32  H   UNL     1       6.101   2.844  12.560  0.00  0.00    +0.000 HD
ENDBRANCH  30  31
ENDBRANCH  27  30
ENDBRANCH  24  27
ENDBRANCH   6  24
TORSDOF 14
ENDMDL
MODEL 5
REMARK VINA RESULT:      -6.5      2.377      5.947
REMARK  Name = 
REMARK  15 active torsions:
REMARK  status: ('A' for Active; 'I' for Inactive)
REMARK    1  A    between atoms: C_1  and  C_2
REMARK    2  A    between atoms: N_4  and  C_5
REMARK    3  A    between atoms: C_6  and  N_7
REMARK    4  A    between atoms: N_7  and  C_8
REMARK    5  A    between atoms: C_8  and  C_9
REMARK    6  A    between atoms: C_9  and  C_10
REMARK    7  A    between atoms: C_10  and  N_11
REMARK    8  A    between atoms: C_13  and  C_14
REMARK    9  A    between atoms: C_14  and  O_16
REMARK   10  A    between atoms: C_18  and  C_19
REMARK   11  A    between atoms: C_19  and  O_20
REMARK   12  A    between atoms: C_19  and  C_21
REMARK   13  A    between atoms: C_21  and  O_22
REMARK   14  A    between atoms: C_21  and  C_23
REMARK   15  A    between atoms: C_23  and  O_24
REMARK                            x       y       z     vdW  Elec       q    Type
REMARK                         _______ _______ _______ _____ _____    ______ ____
ROOT
ATOM      1  C   UNL     1       4.853   5.237  18.179  0.00  0.00    +0.000 C 
ATOM      2  C   UNL     1       4.907   6.416  17.132  0.00  0.00    +0.000 C 
ATOM      3  C   UNL     1       5.344   5.938  15.782  0.00  0.00    +0.000 C 
ATOM      4  C   UNL     1       5.678   4.673  15.500  0.00  0.00    +0.000 C 
ATOM      5  O   UNL     1       5.561   3.638  16.404  0.00  0.00    +0.000 OA
ATOM      6  C   UNL     1       4.581   3.887  17.446  0.00  0.00    +0.000 C 
ENDROOT
BRANCH   1  10
ATOM      7  C   UNL     1       1.822   5.890  20.430  0.00  0.00    +0.000 C 
ATOM      8  C   UNL     1       2.601   5.836  19.141  0.00  0.00    +0.000 C 
ATOM      9  O   UNL     1       2.059   5.930  18.046  0.00  0.00    +0.000 OA
ATOM     10  N   UNL     1       3.931   5.525  19.297  0.00  0.00    +0.000 N 
ATOM     11  H   UNL     1       4.317   5.518  20.235  0.00  0.00    +0.000 HD
ENDBRANCH   1  10
BRANCH   2  12
ATOM     12  N   UNL     1       5.808   7.493  17.625  0.00  0.00    +0.000 NA
ATOM     13  H   UNL     1       5.692   7.581  18.635  0.00  0.00    +0.000 HD
BRANCH  12  14
ATOM     14  C   UNL     1       7.246   7.302  17.359  0.00  0.00    +0.000 C 
BRANCH  14  15
ATOM     15  C   UNL     1       8.121   7.036  18.588  0.00  0.00    +0.000 C 
BRANCH  15  16
ATOM     16  C   UNL     1       8.022   5.581  19.038  0.00  0.00    +0.000 C 
BRANCH  16  17
ATOM     17  N   UNL     1       8.046   5.489  20.493  0.00  0.00    +0.000 NA
ATOM     18  H   UNL     1       8.471   6.329  20.886  0.00  0.00    +0.000 HD
ATOM     19  H   UNL     1       8.642   4.712  20.769  0.00  0.00    +0.000 HD
ENDBRANCH  16  17
ENDBRANCH  15  16
ENDBRANCH  14  15
ENDBRANCH  12  14
ENDBRANCH   2  12
BRANCH   4  20
ATOM     20  C   UNL     1       6.244   4.390  14.149  0.00  0.00    +0.000 C 
ATOM     21  O   UNL     1       5.809   3.565  13.360  0.00  0.00    +0.000 OA
BRANCH  20  22
ATOM     22  O   UNL     1       7.296   5.191  13.880  0.00  0.00    +0.000 OA
ATOM     23  H   UNL     1       7.038   5.928  13.286  0.00  0.00    +0.000 HD
ENDBRANCH  20  22
ENDBRANCH   4  20
BRANCH   6  24
ATOM     24  C   UNL     1       4.634   2.637  18.366  0.00  0.00    +0.000 C 
BRANCH  24  25
ATOM     25  O   UNL     1       5.287   2.840  19.627  0.00  0.00    +0.000 OA
ATOM     26  H   UNL     1       5.726   3.711  19.601  0.00  0.00    +0.000 HD
ENDBRANCH  24  25
BRANCH  24  27
ATOM     27  C   UNL     1       3.237   2.041  18.660  0.00  0.00    +0.000 C 
BRANCH  27  28
ATOM     28  O   UNL     1       2.790   2.524  19.945  0.00  0.00    +0.000 OA
ATOM     29  H   UNL     1       2.088   3.181  19.757  0.00  0.00    +0.000 HD
ENDBRANCH  27  28
BRANCH  27  30
ATOM     30  C   UNL     1       2.159   2.423  17.636  0.00  0.00    +0.000 C 
BRANCH  30  31
ATOM     31  O   UNL     1       0.931   2.685  18.312  0.00  0.00    +0.000 OA
ATOM     32  H   UNL     1       0.233   2.296  17.747  0.00  0.00    +0.000 HD
ENDBRANCH  30  31
ENDBRANCH  27  30
ENDBRANCH  24  27
ENDBRANCH   6  24
TORSDOF 14
ENDMDL
MODEL 6
REMARK VINA RESULT:      -6.5      2.503      4.269
REMARK  Name = 
REMARK  15 active torsions:
REMARK  status: ('A' for Active; 'I' for Inactive)
REMARK    1  A    between atoms: C_1  and  C_2
REMARK    2  A    between atoms: N_4  and  C_5
REMARK    3  A    between atoms: C_6  and  N_7
REMARK    4  A    between atoms: N_7  and  C_8
REMARK    5  A    between atoms: C_8  and  C_9
REMARK    6  A    between atoms: C_9  and  C_10
REMARK    7  A    between atoms: C_10  and  N_11
REMARK    8  A    between atoms: C_13  and  C_14
REMARK    9  A    between atoms: C_14  and  O_16
REMARK   10  A    between atoms: C_18  and  C_19
REMARK   11  A    between atoms: C_19  and  O_20
REMARK   12  A    between atoms: C_19  and  C_21
REMARK   13  A    between atoms: C_21  and  O_22
REMARK   14  A    between atoms: C_21  and  C_23
REMARK   15  A    between atoms: C_23  and  O_24
REMARK                            x       y       z     vdW  Elec       q    Type
REMARK                         _______ _______ _______ _____ _____    ______ ____
ROOT
ATOM      1  C   UNL     1       4.794   5.694  17.722  0.00  0.00    +0.000 C 
ATOM      2  C   UNL     1       4.718   5.133  19.195  0.00  0.00    +0.000 C 
ATOM      3  C   UNL     1       4.274   3.703  19.220  0.00  0.00    +0.000 C 
ATOM      4  C   UNL     1       3.950   2.993  18.133  0.00  0.00    +0.000 C 
ATOM      5  O   UNL     1       4.086   3.472  16.846  0.00  0.00    +0.000 OA
ATOM      6  C   UNL     1       5.072   4.529  16.723  0.00  0.00    +0.000 C 
ENDROOT
BRANCH   1  10
ATOM      7  C   UNL     1       7.841   8.001  17.452  0.00  0.00    +0.000 C 
ATOM      8  C   UNL     1       7.078   6.755  17.824  0.00  0.00    +0.000 C 
ATOM      9  O   UNL     1       7.642   5.721  18.161  0.00  0.00    +0.000 OA
ATOM     10  N   UNL     1       5.723   6.837  17.607  0.00  0.00    +0.000 N 
ATOM     11  H   UNL     1       5.325   7.742  17.381  0.00  0.00    +0.000 HD
ENDBRANCH   1  10
BRANCH   2  12
ATOM     12  N   UNL     1       3.811   5.979  20.016  0.00  0.00    +0.000 NA
ATOM     13  H   UNL     1       4.102   6.954  19.928  0.00  0.00    +0.000 HD
BRANCH  12  14
ATOM     14  C   UNL     1       2.379   5.913  19.670  0.00  0.00    +0.000 C 
BRANCH  14  15
ATOM     15  C   UNL     1       1.440   5.468  20.796  0.00  0.00    +0.000 C 
BRANCH  15  16
ATOM     16  C   UNL     1       1.488   3.956  20.997  0.00  0.00    +0.000 C 
BRANCH  16  17
ATOM     17  N   UNL     1       0.529   3.291  20.122  0.00  0.00    +0.000 NA
ATOM     18  H   UNL     1       0.870   3.305  19.161  0.00  0.00    +0.000 HD
ATOM     19  H   UNL     1      -0.344   3.815  20.124  0.00  0.00    +0.000 HD
ENDBRANCH  16  17
ENDBRANCH  15  16
ENDBRANCH  14  15
ENDBRANCH  12  14
ENDBRANCH   2  12
BRANCH   4  20
ATOM     20  C   UNL     1       3.375   1.632  18.339  0.00  0.00    +0.000 C 
ATOM     21  O   UNL     1       2.192   1.385  18.515  0.00  0.00    +0.000 OA
BRANCH  20  22
ATOM     22  O   UNL     1       4.330   0.681  18.277  0.00  0.00    +0.000 OA
ATOM     23  H   UNL     1       4.295   0.199  17.422  0.00  0.00    +0.000 HD
ENDBRANCH  20  22
ENDBRANCH   4  20
BRANCH   6  24
ATOM     24  C   UNL     1       5.041   4.947  15.227  0.00  0.00    +0.000 C 
BRANCH  24  25
ATOM     25  O   UNL     1       5.334   6.329  14.978  0.00  0.00    +0.000 OA
ATOM     26  H   UNL     1       4.548   6.733  14.564  0.00  0.00    +0.000 HD
ENDBRANCH  24  25
BRANCH  24  27
ATOM     27  C   UNL     1       5.993   4.107  14.343  0.00  0.00    +0.000 C 
BRANCH  27  28
ATOM     28  O   UNL     1       5.268   3.663  13.177  0.00  0.00    +0.000 OA
ATOM     29  H   UNL     1       5.890   3.099  12.672  0.00  0.00    +0.000 HD
ENDBRANCH  27  28
BRANCH  27  30
ATOM     30  C   UNL     1       7.228   4.870  13.843  0.00  0.00    +0.000 C 
BRANCH  30  31
ATOM     31  O   UNL     1       7.897   5.468  14.952  0.00  0.00    +0.000 OA
ATOM     32  H   UNL     1       7.467   6.339  15.078  0.00  0.00    +0.000 HD
ENDBRANCH  30  31
ENDBRANCH  27  30
ENDBRANCH  24  27
ENDBRANCH   6  24
TORSDOF 14
ENDMDL
MODEL 7
REMARK VINA RESULT:      -6.5      2.666      4.798
REMARK  Name = 
REMARK  15 active torsions:
REMARK  status: ('A' for Active; 'I' for Inactive)
REMARK    1  A    between atoms: C_1  and  C_2
REMARK    2  A    between atoms: N_4  and  C_5
REMARK    3  A    between atoms: C_6  and  N_7
REMARK    4  A    between atoms: N_7  and  C_8
REMARK    5  A    between atoms: C_8  and  C_9
REMARK    6  A    between atoms: C_9  and  C_10
REMARK    7  A    between atoms: C_10  and  N_11
REMARK    8  A    between atoms: C_13  and  C_14
REMARK    9  A    between atoms: C_14  and  O_16
REMARK   10  A    between atoms: C_18  and  C_19
REMARK   11  A    between atoms: C_19  and  O_20
REMARK   12  A    between atoms: C_19  and  C_21
REMARK   13  A    between atoms: C_21  and  O_22
REMARK   14  A    between atoms: C_21  and  C_23
REMARK   15  A    between atoms: C_23  and  O_24
REMARK                            x       y       z     vdW  Elec       q    Type
REMARK                         _______ _______ _______ _____ _____    ______ ____
ROOT
ATOM      1  C   UNL     1       4.862   5.953  17.671  0.00  0.00    +0.000 C 
ATOM      2  C   UNL     1       4.675   5.319  19.103  0.00  0.00    +0.000 C 
ATOM      3  C   UNL     1       4.205   3.899  19.022  0.00  0.00    +0.000 C 
ATOM      4  C   UNL     1       3.945   3.253  17.880  0.00  0.00    +0.000 C 
ATOM      5  O   UNL     1       4.179   3.794  16.633  0.00  0.00    +0.000 OA
ATOM      6  C   UNL     1       5.190   4.835  16.633  0.00  0.00    +0.000 C 
ENDROOT
BRANCH   1  10
ATOM      7  C   UNL     1       7.960   8.207  17.665  0.00  0.00    +0.000 C 
ATOM      8  C   UNL     1       7.167   6.948  17.903  0.00  0.00    +0.000 C 
ATOM      9  O   UNL     1       7.704   5.873  18.143  0.00  0.00    +0.000 OA
ATOM     10  N   UNL     1       5.817   7.081  17.680  0.00  0.00    +0.000 N 
ATOM     11  H   UNL     1       5.441   8.012  17.540  0.00  0.00    +0.000 HD
ENDBRANCH   1  10
BRANCH   2  12
ATOM     12  N   UNL     1       3.727   6.141  19.904  0.00  0.00    +0.000 NA
ATOM     13  H   UNL     1       4.172   7.032  20.125  0.00  0.00    +0.000 HD
BRANCH  12  14
ATOM     14  C   UNL     1       2.433   6.440  19.263  0.00  0.00    +0.000 C 
BRANCH  14  15
ATOM     15  C   UNL     1       2.161   7.920  18.969  0.00  0.00    +0.000 C 
BRANCH  15  16
ATOM     16  C   UNL     1       1.445   8.597  20.134  0.00  0.00    +0.000 C 
BRANCH  16  17
ATOM     17  N   UNL     1       1.716   7.895  21.383  0.00  0.00    +0.000 NA
ATOM     18  H   UNL     1       2.230   7.036  21.192  0.00  0.00    +0.000 HD
ATOM     19  H   UNL     1       0.834   7.612  21.805  0.00  0.00    +0.000 HD
ENDBRANCH  16  17
ENDBRANCH  15  16
ENDBRANCH  14  15
ENDBRANCH  12  14
ENDBRANCH   2  12
BRANCH   4  20
ATOM     20  C   UNL     1       3.334   1.895  17.974  0.00  0.00    +0.000 C 
ATOM     21  O   UNL     1       3.871   0.911  18.456  0.00  0.00    +0.000 OA
BRANCH  20  22
ATOM     22  O   UNL     1       2.077   1.888  17.482  0.00  0.00    +0.000 OA
ATOM     23  H   UNL     1       1.989   1.244  16.746  0.00  0.00    +0.000 HD
ENDBRANCH  20  22
ENDBRANCH   4  20
BRANCH   6  24
ATOM     24  C   UNL     1       5.270   5.330  15.163  0.00  0.00    +0.000 C 
BRANCH  24  25
ATOM     25  O   UNL     1       5.148   6.749  14.994  0.00  0.00    +0.000 OA
ATOM     26  H   UNL     1       6.045   7.116  14.874  0.00  0.00    +0.000 HD
ENDBRANCH  24  25
BRANCH  24  27
ATOM     27  C   UNL     1       6.568   4.890  14.445  0.00  0.00    +0.000 C 
BRANCH  27  28
ATOM     28  O   UNL     1       7.552   4.545  15.442  0.00  0.00    +0.000 OA
ATOM     29  H   UNL     1       7.311   3.650  15.761  0.00  0.00    +0.000 HD
ENDBRANCH  27  28
BRANCH  27  30
ATOM     30  C   UNL     1       6.401   3.666  13.533  0.00  0.00    +0.000 C 
BRANCH  30  31
ATOM     31  O   UNL     1       6.862   3.984  12.221  0.00  0.00    +0.000 OA
ATOM     32  H   UNL     1       6.948   3.126  11.759  0.00  0.00    +0.000 HD
ENDBRANCH  30  31
ENDBRANCH  27  30
ENDBRANCH  24  27
ENDBRANCH   6  24
TORSDOF 14
ENDMDL
MODEL 8
REMARK VINA RESULT:      -6.4      0.922      1.162
REMARK  Name = 
REMARK  15 active torsions:
REMARK  status: ('A' for Active; 'I' for Inactive)
REMARK    1  A    between atoms: C_1  and  C_2
REMARK    2  A    between atoms: N_4  and  C_5
REMARK    3  A    between atoms: C_6  and  N_7
REMARK    4  A    between atoms: N_7  and  C_8
REMARK    5  A    between atoms: C_8  and  C_9
REMARK    6  A    between atoms: C_9  and  C_10
REMARK    7  A    between atoms: C_10  and  N_11
REMARK    8  A    between atoms: C_13  and  C_14
REMARK    9  A    between atoms: C_14  and  O_16
REMARK   10  A    between atoms: C_18  and  C_19
REMARK   11  A    between atoms: C_19  and  O_20
REMARK   12  A    between atoms: C_19  and  C_21
REMARK   13  A    between atoms: C_21  and  O_22
REMARK   14  A    between atoms: C_21  and  C_23
REMARK   15  A    between atoms: C_23  and  O_24
REMARK                            x       y       z     vdW  Elec       q    Type
REMARK                         _______ _______ _______ _____ _____    ______ ____
ROOT
ATOM      1  C   UNL     1       4.558   4.026  17.317  0.00  0.00    +0.000 C 
ATOM      2  C   UNL     1       2.991   4.011  17.138  0.00  0.00    +0.000 C 
ATOM      3  C   UNL     1       2.318   4.970  18.072  0.00  0.00    +0.000 C 
ATOM      4  C   UNL     1       2.960   5.725  18.970  0.00  0.00    +0.000 C 
ATOM      5  O   UNL     1       4.335   5.781  19.071  0.00  0.00    +0.000 OA
ATOM      6  C   UNL     1       5.021   5.420  17.844  0.00  0.00    +0.000 C 
ENDROOT
BRANCH   1  10
ATOM      7  C   UNL     1       6.373   3.717  13.957  0.00  0.00    +0.000 C 
ATOM      8  C   UNL     1       5.456   4.333  14.982  0.00  0.00    +0.000 C 
ATOM      9  O   UNL     1       5.033   5.478  14.874  0.00  0.00    +0.000 OA
ATOM     10  N   UNL     1       5.264   3.563  16.104  0.00  0.00    +0.000 N 
ATOM     11  H   UNL     1       5.600   2.607  16.095  0.00  0.00    +0.000 HD
ENDBRANCH   1  10
BRANCH   2  12
ATOM     12  N   UNL     1       2.469   2.631  17.336  0.00  0.00    +0.000 NA
ATOM     13  H   UNL     1       3.019   1.988  16.765  0.00  0.00    +0.000 HD
BRANCH  12  14
ATOM     14  C   UNL     1       2.494   2.125  18.721  0.00  0.00    +0.000 C 
BRANCH  14  15
ATOM     15  C   UNL     1       1.157   2.163  19.469  0.00  0.00    +0.000 C 
BRANCH  15  16
ATOM     16  C   UNL     1       1.334   2.649  20.904  0.00  0.00    +0.000 C 
BRANCH  16  17
ATOM     17  N   UNL     1       2.724   3.013  21.156  0.00  0.00    +0.000 NA
ATOM     18  H   UNL     1       3.298   2.172  21.204  0.00  0.00    +0.000 HD
ATOM     19  H   UNL     1       2.791   3.458  22.070  0.00  0.00    +0.000 HD
ENDBRANCH  16  17
ENDBRANCH  15  16
ENDBRANCH  14  15
ENDBRANCH  12  14
ENDBRANCH   2  12
BRANCH   4  20
ATOM     20  C   UNL     1       2.134   6.510  19.933  0.00  0.00    +0.000 C 
ATOM     21  O   UNL     1       1.555   6.050  20.904  0.00  0.00    +0.000 OA
BRANCH  20  22
ATOM     22  O   UNL     1       2.125   7.822  19.617  0.00  0.00    +0.000 OA
ATOM     23  H   UNL     1       1.325   8.267  19.970  0.00  0.00    +0.000 HD
ENDBRANCH  20  22
ENDBRANCH   4  20
BRANCH   6  24
ATOM     24  C   UNL     1       6.535   5.508  18.178  0.00  0.00    +0.000 C 
BRANCH  24  25
ATOM     25  O   UNL     1       7.253   4.271  18.069  0.00  0.00    +0.000 OA
ATOM     26  H   UNL     1       8.207   4.471  18.124  0.00  0.00    +0.000 HD
ENDBRANCH  24  25
BRANCH  24  27
ATOM     27  C   UNL     1       7.285   6.554  17.321  0.00  0.00    +0.000 C 
BRANCH  27  28
ATOM     28  O   UNL     1       6.317   7.307  16.559  0.00  0.00    +0.000 OA
ATOM     29  H   UNL     1       5.638   6.661  16.273  0.00  0.00    +0.000 HD
ENDBRANCH  27  28
BRANCH  27  30
ATOM     30  C   UNL     1       8.105   7.566  18.133  0.00  0.00    +0.000 C 
BRANCH  30  31
ATOM     31  O   UNL     1       8.568   6.949  19.332  0.00  0.00    +0.000 OA
ATOM     32  H   UNL     1       8.679   6.001  19.113  0.00  0.00    +0.000 HD
ENDBRANCH  30  31
ENDBRANCH  27  30
ENDBRANCH  24  27
ENDBRANCH   6  24
TORSDOF 14
ENDMDL
MODEL 9
REMARK VINA RESULT:      -6.2      2.385      5.835
REMARK  Name = 
REMARK  15 active torsions:
REMARK  status: ('A' for Active; 'I' for Inactive)
REMARK    1  A    between atoms: C_1  and  C_2
REMARK    2  A    between atoms: N_4  and  C_5
REMARK    3  A    between atoms: C_6  and  N_7
REMARK    4  A    between atoms: N_7  and  C_8
REMARK    5  A    between atoms: C_8  and  C_9
REMARK    6  A    between atoms: C_9  and  C_10
REMARK    7  A    between atoms: C_10  and  N_11
REMARK    8  A    between atoms: C_13  and  C_14
REMARK    9  A    between atoms: C_14  and  O_16
REMARK   10  A    between atoms: C_18  and  C_19
REMARK   11  A    between atoms: C_19  and  O_20
REMARK   12  A    between atoms: C_19  and  C_21
REMARK   13  A    between atoms: C_21  and  O_22
REMARK   14  A    between atoms: C_21  and  C_23
REMARK   15  A    between atoms: C_23  and  O_24
REMARK                            x       y       z     vdW  Elec       q    Type
REMARK                         _______ _______ _______ _____ _____    ______ ____
ROOT
ATOM      1  C   UNL     1       4.724   5.469  18.037  0.00  0.00    +0.000 C 
ATOM      2  C   UNL     1       4.963   6.615  16.980  0.00  0.00    +0.000 C 
ATOM      3  C   UNL     1       5.316   6.061  15.634  0.00  0.00    +0.000 C 
ATOM      4  C   UNL     1       5.443   4.757  15.363  0.00  0.00    +0.000 C 
ATOM      5  O   UNL     1       5.164   3.762  16.277  0.00  0.00    +0.000 OA
ATOM      6  C   UNL     1       4.238   4.173  17.316  0.00  0.00    +0.000 C 
ENDROOT
BRANCH   1  10
ATOM      7  C   UNL     1       1.890   6.778  20.258  0.00  0.00    +0.000 C 
ATOM      8  C   UNL     1       2.694   6.618  18.994  0.00  0.00    +0.000 C 
ATOM      9  O   UNL     1       2.270   6.974  17.901  0.00  0.00    +0.000 OA
ATOM     10  N   UNL     1       3.862   5.910  19.153  0.00  0.00    +0.000 N 
ATOM     11  H   UNL     1       4.172   5.698  20.095  0.00  0.00    +0.000 HD
ENDBRANCH   1  10
BRANCH   2  12
ATOM     12  N   UNL     1       6.026   7.539  17.462  0.00  0.00    +0.000 NA
ATOM     13  H   UNL     1       5.854   7.751  18.446  0.00  0.00    +0.000 HD
BRANCH  12  14
ATOM     14  C   UNL     1       7.410   7.042  17.352  0.00  0.00    +0.000 C 
BRANCH  14  15
ATOM     15  C   UNL     1       8.138   6.798  18.679  0.00  0.00    +0.000 C 
BRANCH  15  16
ATOM     16  C   UNL     1       7.814   5.420  19.248  0.00  0.00    +0.000 C 
BRANCH  16  17
ATOM     17  N   UNL     1       7.772   4.421  18.186  0.00  0.00    +0.000 NA
ATOM     18  H   UNL     1       6.998   4.621  17.554  0.00  0.00    +0.000 HD
ATOM     19  H   UNL     1       7.579   3.509  18.595  0.00  0.00    +0.000 HD
ENDBRANCH  16  17
ENDBRANCH  15  16
ENDBRANCH  14  15
ENDBRANCH  12  14
ENDBRANCH   2  12
BRANCH   4  20
ATOM     20  C   UNL     1       5.953   4.375  14.015  0.00  0.00    +0.000 C 
ATOM     21  O   UNL     1       7.092   4.556  13.613  0.00  0.00    +0.000 OA
BRANCH  20  22
ATOM     22  O   UNL     1       4.998   3.764  13.283  0.00  0.00    +0.000 OA
ATOM     23  H   UNL     1       5.383   3.323  12.495  0.00  0.00    +0.000 HD
ENDBRANCH  20  22
ENDBRANCH   4  20
BRANCH   6  24
ATOM     24  C   UNL     1       4.092   2.939  18.248  0.00  0.00    +0.000 C 
BRANCH  24  25
ATOM     25  O   UNL     1       4.981   2.920  19.374  0.00  0.00    +0.000 OA
ATOM     26  H   UNL     1       4.693   2.205  19.972  0.00  0.00    +0.000 HD
ENDBRANCH  24  25
BRANCH  24  27
ATOM     27  C   UNL     1       2.655   2.757  18.792  0.00  0.00    +0.000 C 
BRANCH  27  28
ATOM     28  O   UNL     1       2.037   1.650  18.103  0.00  0.00    +0.000 OA
ATOM     29  H   UNL     1       1.169   1.978  17.789  0.00  0.00    +0.000 HD
ENDBRANCH  27  28
BRANCH  27  30
ATOM     30  C   UNL     1       2.582   2.451  20.295  0.00  0.00    +0.000 C 
BRANCH  30  31
ATOM     31  O   UNL     1       2.703   3.665  21.033  0.00  0.00    +0.000 OA
ATOM     32  H   UNL     1       3.652   3.902  20.994  0.00  0.00    +0.000 HD
ENDBRANCH  30  31
ENDBRANCH  27  30
ENDBRANCH  24  27
ENDBRANCH   6  24
TORSDOF 14
ENDMDL
