MODEL 1
REMARK VINA RESULT:      -6.0      0.000      0.000
REMARK  Name = 
REMARK  7 active torsions:
REMARK  status: ('A' for Active; 'I' for Inactive)
REMARK    1  A    between atoms: C_1  and  C_2
REMARK    2  A    between atoms: C_2  and  N_3
REMARK    3  A    between atoms: N_3  and  C_4
REMARK    4  A    between atoms: C_4  and  C_5
REMARK    5  A    between atoms: C_6  and  C_8
REMARK    6  A    between atoms: C_8  and  O_9
REMARK    7  A    between atoms: O_9  and  C_10
REMARK                            x       y       z     vdW  Elec       q    Type
REMARK                         _______ _______ _______ _____ _____    ______ ____
ROOT
ATOM      1  O   UNL     1       3.406   6.343  17.427  0.00  0.00    +0.000 OA
ENDROOT
BRANCH   1   2
ATOM      2  C   UNL     1       2.988   5.637  18.523  0.00  0.00    +0.000 A 
ATOM      3  C   UNL     1       3.158   4.253  18.354  0.00  0.00    +0.000 A 
ATOM      4  C   UNL     1       2.725   3.340  19.318  0.00  0.00    +0.000 A 
ATOM      5  C   UNL     1       2.102   3.807  20.466  0.00  0.00    +0.000 A 
ATOM      6 BR   UNL     1       1.464   2.586  21.760  0.00  0.00    +0.000 Br
ATOM      7  C   UNL     1       1.920   5.174  20.660  0.00  0.00    +0.000 A 
ATOM      8  C   UNL     1       2.360   6.094  19.695  0.00  0.00    +0.000 A 
ATOM      9 CL   UNL     1       1.997   7.744  20.053  0.00  0.00    +0.000 Cl
ENDBRANCH   1   2
BRANCH   1  10
ATOM     10  C   UNL     1       4.776   6.686  17.310  0.00  0.00    +0.000 C 
BRANCH  10  12
ATOM     11  N   UNL     1       6.220   5.254  15.841  0.00  0.00    +0.000 N 
ATOM     12  C   UNL     1       5.353   6.360  15.914  0.00  0.00    +0.000 C 
ATOM     13  O   UNL     1       5.083   7.051  14.926  0.00  0.00    +0.000 OA
BRANCH  11  15
ATOM     14  C   UNL     1       6.012   3.875  13.783  0.00  0.00    +0.000 C 
ATOM     15  C   UNL     1       6.797   4.945  14.529  0.00  0.00    +0.000 C 
ENDBRANCH  11  15
BRANCH  11  16
ATOM     16  C   UNL     1       6.484   4.398  17.006  0.00  0.00    +0.000 C 
ATOM     17  C   UNL     1       7.705   4.694  17.862  0.00  0.00    +0.000 C 
ENDBRANCH  11  16
ENDBRANCH  10  12
ENDBRANCH   1  10
TORSDOF 5
ENDMDL
MODEL 2
REMARK VINA RESULT:      -6.0      1.794      2.539
REMARK  Name = 
REMARK  7 active torsions:
REMARK  status: ('A' for Active; 'I' for Inactive)
REMARK    1  A    between atoms: C_1  and  C_2
REMARK    2  A    between atoms: C_2  and  N_3
REMARK    3  A    between atoms: N_3  and  C_4
REMARK    4  A    between atoms: C_4  and  C_5
REMARK    5  A    between atoms: C_6  and  C_8
REMARK    6  A    between atoms: C_8  and  O_9
REMARK    7  A    between atoms: O_9  and  C_10
REMARK                            x       y       z     vdW  Elec       q    Type
REMARK                         _______ _______ _______ _____ _____    ______ ____
ROOT
ATOM      1  O   UNL     1       4.434   4.187  16.366  0.00  0.00    +0.000 OA
ENDROOT
BRANCH   1   2
ATOM      2  C   UNL     1       3.806   4.049  17.575  0.00  0.00    +0.000 A 
ATOM      3  C   UNL     1       3.712   2.704  17.968  0.00  0.00    +0.000 A 
ATOM      4  C   UNL     1       3.037   2.329  19.133  0.00  0.00    +0.000 A 
ATOM      5  C   UNL     1       2.437   3.304  19.916  0.00  0.00    +0.000 A 
ATOM      6 BR   UNL     1       1.479   2.812  21.469  0.00  0.00    +0.000 Br
ATOM      7  C   UNL     1       2.516   4.645  19.551  0.00  0.00    +0.000 A 
ATOM      8  C   UNL     1       3.198   5.025  18.383  0.00  0.00    +0.000 A 
ATOM      9 CL   UNL     1       3.143   6.716  18.035  0.00  0.00    +0.000 Cl
ENDBRANCH   1   2
BRANCH   1  10
ATOM     10  C   UNL     1       5.821   4.478  16.339  0.00  0.00    +0.000 C 
BRANCH  10  12
ATOM     11  N   UNL     1       6.920   6.551  17.228  0.00  0.00    +0.000 N 
ATOM     12  C   UNL     1       6.107   5.992  16.223  0.00  0.00    +0.000 C 
ATOM     13  O   UNL     1       5.627   6.672  15.311  0.00  0.00    +0.000 OA
BRANCH  11  15
ATOM     14  C   UNL     1       8.258   8.445  18.125  0.00  0.00    +0.000 C 
ATOM     15  C   UNL     1       7.181   7.992  17.148  0.00  0.00    +0.000 C 
ENDBRANCH  11  15
BRANCH  11  16
ATOM     16  C   UNL     1       7.541   5.724  18.272  0.00  0.00    +0.000 C 
ATOM     17  C   UNL     1       6.707   5.334  19.481  0.00  0.00    +0.000 C 
ENDBRANCH  11  16
ENDBRANCH  10  12
ENDBRANCH   1  10
TORSDOF 5
ENDMDL
MODEL 3
REMARK VINA RESULT:      -6.0      3.654      5.986
REMARK  Name = 
REMARK  7 active torsions:
REMARK  status: ('A' for Active; 'I' for Inactive)
REMARK    1  A    between atoms: C_1  and  C_2
REMARK    2  A    between atoms: C_2  and  N_3
REMARK    3  A    between atoms: N_3  and  C_4
REMARK    4  A    between atoms: C_4  and  C_5
REMARK    5  A    between atoms: C_6  and  C_8
REMARK    6  A    between atoms: C_8  and  O_9
REMARK    7  A    between atoms: O_9  and  C_10
REMARK                            x       y       z     vdW  Elec       q    Type
REMARK                         _______ _______ _______ _____ _____    ______ ____
ROOT
ATOM      1  O   UNL     1       6.109   3.988  17.295  0.00  0.00    +0.000 OA
ENDROOT
BRANCH   1   2
ATOM      2  C   UNL     1       6.637   5.248  17.394  0.00  0.00    +0.000 A 
ATOM      3  C   UNL     1       7.577   5.343  18.434  0.00  0.00    +0.000 A 
ATOM      4  C   UNL     1       8.181   6.559  18.764  0.00  0.00    +0.000 A 
ATOM      5  C   UNL     1       7.840   7.703  18.056  0.00  0.00    +0.000 A 
ATOM      6 BR   UNL     1       8.610   9.365  18.519  0.00  0.00    +0.000 Br
ATOM      7  C   UNL     1       6.912   7.637  17.020  0.00  0.00    +0.000 A 
ATOM      8  C   UNL     1       6.307   6.415  16.684  0.00  0.00    +0.000 A 
ATOM      9 CL   UNL     1       5.129   6.516  15.425  0.00  0.00    +0.000 Cl
ENDBRANCH   1   2
BRANCH   1  10
ATOM     10  C   UNL     1       4.704   3.821  17.388  0.00  0.00    +0.000 C 
BRANCH  10  12
ATOM     11  N   UNL     1       3.147   4.637  19.177  0.00  0.00    +0.000 N 
ATOM     12  C   UNL     1       4.208   3.772  18.850  0.00  0.00    +0.000 C 
ATOM     13  O   UNL     1       4.734   3.030  19.686  0.00  0.00    +0.000 OA
BRANCH  11  15
ATOM     14  C   UNL     1       1.245   4.130  20.695  0.00  0.00    +0.000 C 
ATOM     15  C   UNL     1       2.680   4.622  20.567  0.00  0.00    +0.000 C 
ENDBRANCH  11  15
BRANCH  11  16
ATOM     16  C   UNL     1       2.483   5.467  18.162  0.00  0.00    +0.000 C 
ATOM     17  C   UNL     1       2.739   6.965  18.170  0.00  0.00    +0.000 C 
ENDBRANCH  11  16
ENDBRANCH  10  12
ENDBRANCH   1  10
TORSDOF 5
ENDMDL
MODEL 4
REMARK VINA RESULT:      -6.0      2.494      3.462
REMARK  Name = 
REMARK  7 active torsions:
REMARK  status: ('A' for Active; 'I' for Inactive)
REMARK    1  A    between atoms: C_1  and  C_2
REMARK    2  A    between atoms: C_2  and  N_3
REMARK    3  A    between atoms: N_3  and  C_4
REMARK    4  A    between atoms: C_4  and  C_5
REMARK    5  A    between atoms: C_6  and  C_8
REMARK    6  A    between atoms: C_8  and  O_9
REMARK    7  A    between atoms: O_9  and  C_10
REMARK                            x       y       z     vdW  Elec       q    Type
REMARK                         _______ _______ _______ _____ _____    ______ ____
ROOT
ATOM      1  O   UNL     1       3.111   4.130  17.581  0.00  0.00    +0.000 OA
ENDROOT
BRANCH   1   2
ATOM      2  C   UNL     1       2.588   4.996  18.504  0.00  0.00    +0.000 A 
ATOM      3  C   UNL     1       2.778   6.338  18.134  0.00  0.00    +0.000 A 
ATOM      4  C   UNL     1       2.392   7.388  18.970  0.00  0.00    +0.000 A 
ATOM      5  C   UNL     1       1.816   7.103  20.200  0.00  0.00    +0.000 A 
ATOM      6 BR   UNL     1       1.331   8.509  21.366  0.00  0.00    +0.000 Br
ATOM      7  C   UNL     1       1.615   5.782  20.591  0.00  0.00    +0.000 A 
ATOM      8  C   UNL     1       1.998   4.725  19.750  0.00  0.00    +0.000 A 
ATOM      9 CL   UNL     1       1.745   3.149  20.412  0.00  0.00    +0.000 Cl
ENDBRANCH   1   2
BRANCH   1  10
ATOM     10  C   UNL     1       4.194   3.296  17.955  0.00  0.00    +0.000 C 
BRANCH  10  12
ATOM     11  N   UNL     1       6.350   4.460  17.417  0.00  0.00    +0.000 N 
ATOM     12  C   UNL     1       5.429   4.099  18.419  0.00  0.00    +0.000 C 
ATOM     13  O   UNL     1       5.605   4.384  19.608  0.00  0.00    +0.000 OA
BRANCH  11  15
ATOM     14  C   UNL     1       7.362   6.708  17.736  0.00  0.00    +0.000 C 
ATOM     15  C   UNL     1       7.542   5.200  17.843  0.00  0.00    +0.000 C 
ENDBRANCH  11  15
BRANCH  11  16
ATOM     16  C   UNL     1       6.101   4.175  15.997  0.00  0.00    +0.000 C 
ATOM     17  C   UNL     1       5.534   5.282  15.124  0.00  0.00    +0.000 C 
ENDBRANCH  11  16
ENDBRANCH  10  12
ENDBRANCH   1  10
TORSDOF 5
ENDMDL
MODEL 5
REMARK VINA RESULT:      -5.9      3.707      5.979
REMARK  Name = 
REMARK  7 active torsions:
REMARK  status: ('A' for Active; 'I' for Inactive)
REMARK    1  A    between atoms: C_1  and  C_2
REMARK    2  A    between atoms: C_2  and  N_3
REMARK    3  A    between atoms: N_3  and  C_4
REMARK    4  A    between atoms: C_4  and  C_5
REMARK    5  A    between atoms: C_6  and  C_8
REMARK    6  A    between atoms: C_8  and  O_9
REMARK    7  A    between atoms: O_9  and  C_10
REMARK                            x       y       z     vdW  Elec       q    Type
REMARK                         _______ _______ _______ _____ _____    ______ ____
ROOT
ATOM      1  O   UNL     1       5.814   4.241  17.681  0.00  0.00    +0.000 OA
ENDROOT
BRANCH   1   2
ATOM      2  C   UNL     1       6.446   5.456  17.662  0.00  0.00    +0.000 A 
ATOM      3  C   UNL     1       7.423   5.555  18.667  0.00  0.00    +0.000 A 
ATOM      4  C   UNL     1       8.135   6.739  18.879  0.00  0.00    +0.000 A 
ATOM      5  C   UNL     1       7.866   7.846  18.088  0.00  0.00    +0.000 A 
ATOM      6 BR   UNL     1       8.783   9.470  18.391  0.00  0.00    +0.000 Br
ATOM      7  C   UNL     1       6.903   7.775  17.084  0.00  0.00    +0.000 A 
ATOM      8  C   UNL     1       6.190   6.585  16.866  0.00  0.00    +0.000 A 
ATOM      9 CL   UNL     1       4.984   6.683  15.633  0.00  0.00    +0.000 Cl
ENDBRANCH   1   2
BRANCH   1  10
ATOM     10  C   UNL     1       5.228   3.787  18.889  0.00  0.00    +0.000 C 
BRANCH  10  12
ATOM     11  N   UNL     1       2.764   4.211  19.097  0.00  0.00    +0.000 N 
ATOM     12  C   UNL     1       3.771   3.311  18.700  0.00  0.00    +0.000 C 
ATOM     13  O   UNL     1       3.510   2.192  18.248  0.00  0.00    +0.000 OA
BRANCH  11  15
ATOM     14  C   UNL     1       0.741   3.380  20.279  0.00  0.00    +0.000 C 
ATOM     15  C   UNL     1       1.375   3.766  18.949  0.00  0.00    +0.000 C 
ENDBRANCH  11  15
BRANCH  11  16
ATOM     16  C   UNL     1       3.080   5.566  19.573  0.00  0.00    +0.000 C 
ATOM     17  C   UNL     1       2.891   6.733  18.617  0.00  0.00    +0.000 C 
ENDBRANCH  11  16
ENDBRANCH  10  12
ENDBRANCH   1  10
TORSDOF 5
ENDMDL
MODEL 6
REMARK VINA RESULT:      -5.8      3.583      5.911
REMARK  Name = 
REMARK  7 active torsions:
REMARK  status: ('A' for Active; 'I' for Inactive)
REMARK    1  A    between atoms: C_1  and  C_2
REMARK    2  A    between atoms: C_2  and  N_3
REMARK    3  A    between atoms: N_3  and  C_4
REMARK    4  A    between atoms: C_4  and  C_5
REMARK    5  A    between atoms: C_6  and  C_8
REMARK    6  A    between atoms: C_8  and  O_9
REMARK    7  A    between atoms: O_9  and  C_10
REMARK                            x       y       z     vdW  Elec       q    Type
REMARK                         _______ _______ _______ _____ _____    ______ ____
ROOT
ATOM      1  O   UNL     1       5.495   6.250  18.277  0.00  0.00    +0.000 OA
ENDROOT
BRANCH   1   2
ATOM      2  C   UNL     1       5.878   5.673  17.095  0.00  0.00    +0.000 A 
ATOM      3  C   UNL     1       4.957   5.925  16.065  0.00  0.00    +0.000 A 
ATOM      4  C   UNL     1       5.111   5.363  14.794  0.00  0.00    +0.000 A 
ATOM      5  C   UNL     1       6.192   4.531  14.544  0.00  0.00    +0.000 A 
ATOM      6 BR   UNL     1       6.391   3.724  12.847  0.00  0.00    +0.000 Br
ATOM      7  C   UNL     1       7.120   4.265  15.548  0.00  0.00    +0.000 A 
ATOM      8  C   UNL     1       6.970   4.832  16.824  0.00  0.00    +0.000 A 
ATOM      9 CL   UNL     1       8.166   4.348  17.973  0.00  0.00    +0.000 Cl
ENDBRANCH   1   2
BRANCH   1  10
ATOM     10  C   UNL     1       5.089   5.418  19.350  0.00  0.00    +0.000 C 
BRANCH  10  12
ATOM     11  N   UNL     1       2.988   4.048  19.314  0.00  0.00    +0.000 N 
ATOM     12  C   UNL     1       3.552   5.327  19.482  0.00  0.00    +0.000 C 
ATOM     13  O   UNL     1       2.862   6.328  19.698  0.00  0.00    +0.000 OA
BRANCH  11  15
ATOM     14  C   UNL     1       1.072   3.286  20.704  0.00  0.00    +0.000 C 
ATOM     15  C   UNL     1       1.528   3.947  19.410  0.00  0.00    +0.000 C 
ENDBRANCH  11  15
BRANCH  11  16
ATOM     16  C   UNL     1       3.820   2.852  19.123  0.00  0.00    +0.000 C 
ATOM     17  C   UNL     1       3.431   1.863  18.036  0.00  0.00    +0.000 C 
ENDBRANCH  11  16
ENDBRANCH  10  12
ENDBRANCH   1  10
TORSDOF 5
ENDMDL
MODEL 7
REMARK VINA RESULT:      -5.8      3.728      6.115
REMARK  Name = 
REMARK  7 active torsions:
REMARK  status: ('A' for Active; 'I' for Inactive)
REMARK    1  A    between atoms: C_1  and  C_2
REMARK    2  A    between atoms: C_2  and  N_3
REMARK    3  A    between atoms: N_3  and  C_4
REMARK    4  A    between atoms: C_4  and  C_5
REMARK    5  A    between atoms: C_6  and  C_8
REMARK    6  A    between atoms: C_8  and  O_9
REMARK    7  A    between atoms: O_9  and  C_10
REMARK                            x       y       z     vdW  Elec       q    Type
REMARK                         _______ _______ _______ _____ _____    ______ ____
ROOT
ATOM      1  O   UNL     1       3.930   3.203  17.140  0.00  0.00    +0.000 OA
ENDROOT
BRANCH   1   2
ATOM      2  C   UNL     1       4.890   4.181  17.130  0.00  0.00    +0.000 A 
ATOM      3  C   UNL     1       5.167   4.658  18.421  0.00  0.00    +0.000 A 
ATOM      4  C   UNL     1       6.059   5.712  18.635  0.00  0.00    +0.000 A 
ATOM      5  C   UNL     1       6.678   6.311  17.547  0.00  0.00    +0.000 A 
ATOM      6 BR   UNL     1       7.849   7.770  17.811  0.00  0.00    +0.000 Br
ATOM      7  C   UNL     1       6.421   5.857  16.256  0.00  0.00    +0.000 A 
ATOM      8  C   UNL     1       5.530   4.794  16.040  0.00  0.00    +0.000 A 
ATOM      9 CL   UNL     1       5.268   4.400  14.378  0.00  0.00    +0.000 Cl
ENDBRANCH   1   2
BRANCH   1  10
ATOM     10  C   UNL     1       2.564   3.579  17.197  0.00  0.00    +0.000 C 
BRANCH  10  12
ATOM     11  N   UNL     1       1.737   3.882  19.546  0.00  0.00    +0.000 N 
ATOM     12  C   UNL     1       1.845   3.015  18.442  0.00  0.00    +0.000 C 
ATOM     13  O   UNL     1       1.413   1.858  18.470  0.00  0.00    +0.000 OA
BRANCH  11  15
ATOM     14  C   UNL     1       2.071   2.772  21.746  0.00  0.00    +0.000 C 
ATOM     15  C   UNL     1       1.081   3.354  20.746  0.00  0.00    +0.000 C 
ENDBRANCH  11  15
BRANCH  11  16
ATOM     16  C   UNL     1       2.195   5.277  19.484  0.00  0.00    +0.000 C 
ATOM     17  C   UNL     1       1.695   6.252  20.536  0.00  0.00    +0.000 C 
ENDBRANCH  11  16
ENDBRANCH  10  12
ENDBRANCH   1  10
TORSDOF 5
ENDMDL
MODEL 8
REMARK VINA RESULT:      -5.8      3.315      5.759
REMARK  Name = 
REMARK  7 active torsions:
REMARK  status: ('A' for Active; 'I' for Inactive)
REMARK    1  A    between atoms: C_1  and  C_2
REMARK    2  A    between atoms: C_2  and  N_3
REMARK    3  A    between atoms: N_3  and  C_4
REMARK    4  A    between atoms: C_4  and  C_5
REMARK    5  A    between atoms: C_6  and  C_8
REMARK    6  A    between atoms: C_8  and  O_9
REMARK    7  A    between atoms: O_9  and  C_10
REMARK                            x       y       z     vdW  Elec       q    Type
REMARK                         _______ _______ _______ _____ _____    ______ ____
ROOT
ATOM      1  O   UNL     1       3.714   3.793  16.787  0.00  0.00    +0.000 OA
ENDROOT
BRANCH   1   2
ATOM      2  C   UNL     1       4.516   4.892  16.951  0.00  0.00    +0.000 A 
ATOM      3  C   UNL     1       5.856   4.616  16.635  0.00  0.00    +0.000 A 
ATOM      4  C   UNL     1       6.859   5.574  16.807  0.00  0.00    +0.000 A 
ATOM      5  C   UNL     1       6.528   6.823  17.310  0.00  0.00    +0.000 A 
ATOM      6 BR   UNL     1       7.877   8.116  17.596  0.00  0.00    +0.000 Br
ATOM      7  C   UNL     1       5.206   7.123  17.631  0.00  0.00    +0.000 A 
ATOM      8  C   UNL     1       4.196   6.164  17.454  0.00  0.00    +0.000 A 
ATOM      9 CL   UNL     1       2.625   6.669  17.965  0.00  0.00    +0.000 Cl
ENDBRANCH   1   2
BRANCH   1  10
ATOM     10  C   UNL     1       3.915   2.664  17.620  0.00  0.00    +0.000 C 
BRANCH  10  12
ATOM     11  N   UNL     1       2.590   3.428  19.609  0.00  0.00    +0.000 N 
ATOM     12  C   UNL     1       3.845   3.015  19.123  0.00  0.00    +0.000 C 
ATOM     13  O   UNL     1       4.844   2.958  19.847  0.00  0.00    +0.000 OA
BRANCH  11  15
ATOM     14  C   UNL     1       1.899   2.686  21.879  0.00  0.00    +0.000 C 
ATOM     15  C   UNL     1       2.510   3.790  21.027  0.00  0.00    +0.000 C 
ENDBRANCH  11  15
BRANCH  11  16
ATOM     16  C   UNL     1       1.392   3.430  18.757  0.00  0.00    +0.000 C 
ATOM     17  C   UNL     1       0.520   2.185  18.727  0.00  0.00    +0.000 C 
ENDBRANCH  11  16
ENDBRANCH  10  12
ENDBRANCH   1  10
TORSDOF 5
ENDMDL
MODEL 9
REMARK VINA RESULT:      -5.7      2.435      3.347
REMARK  Name = 
REMARK  7 active torsions:
REMARK  status: ('A' for Active; 'I' for Inactive)
REMARK    1  A    between atoms: C_1  and  C_2
REMARK    2  A    between atoms: C_2  and  N_3
REMARK    3  A    between atoms: N_3  and  C_4
REMARK    4  A    between atoms: C_4  and  C_5
REMARK    5  A    between atoms: C_6  and  C_8
REMARK    6  A    between atoms: C_8  and  O_9
REMARK    7  A    between atoms: O_9  and  C_10
REMARK                            x       y       z     vdW  Elec       q    Type
REMARK                         _______ _______ _______ _____ _____    ______ ____
ROOT
ATOM      1  O   UNL     1       3.029   4.147  17.972  0.00  0.00    +0.000 OA
ENDROOT
BRANCH   1   2
ATOM      2  C   UNL     1       2.716   5.256  18.713  0.00  0.00    +0.000 A 
ATOM      3  C   UNL     1       1.991   4.927  19.870  0.00  0.00    +0.000 A 
ATOM      4  C   UNL     1       1.500   5.914  20.730  0.00  0.00    +0.000 A 
ATOM      5  C   UNL     1       1.725   7.250  20.431  0.00  0.00    +0.000 A 
ATOM      6 BR   UNL     1       1.028   8.600  21.555  0.00  0.00    +0.000 Br
ATOM      7  C   UNL     1       2.441   7.604  19.291  0.00  0.00    +0.000 A 
ATOM      8  C   UNL     1       2.940   6.614  18.429  0.00  0.00    +0.000 A 
ATOM      9 CL   UNL     1       3.744   7.220  17.025  0.00  0.00    +0.000 Cl
ENDBRANCH   1   2
BRANCH   1  10
ATOM     10  C   UNL     1       4.115   3.332  18.378  0.00  0.00    +0.000 C 
BRANCH  10  12
ATOM     11  N   UNL     1       6.099   4.349  17.227  0.00  0.00    +0.000 N 
ATOM     12  C   UNL     1       5.447   4.111  18.452  0.00  0.00    +0.000 C 
ATOM     13  O   UNL     1       5.920   4.481  19.531  0.00  0.00    +0.000 OA
BRANCH  11  15
ATOM     14  C   UNL     1       7.199   6.577  17.307  0.00  0.00    +0.000 C 
ATOM     15  C   UNL     1       7.377   5.065  17.281  0.00  0.00    +0.000 C 
ENDBRANCH  11  15
BRANCH  11  16
ATOM     16  C   UNL     1       5.498   3.965  15.942  0.00  0.00    +0.000 C 
ATOM     17  C   UNL     1       6.215   4.356  14.660  0.00  0.00    +0.000 C 
ENDBRANCH  11  16
ENDBRANCH  10  12
ENDBRANCH   1  10
TORSDOF 5
ENDMDL
