MODEL 1
REMARK VINA RESULT:      -7.2      0.000      0.000
REMARK  Name = 
REMARK  4 active torsions:
REMARK  status: ('A' for Active; 'I' for Inactive)
REMARK    1  A    between atoms: C_1  and  O_2
REMARK    2  A    between atoms: O_2  and  N_3
REMARK    3  A    between atoms: C_14  and  C_15
REMARK    4  A    between atoms: N_17  and  C_18
REMARK                            x       y       z     vdW  Elec       q    Type
REMARK                         _______ _______ _______ _____ _____    ______ ____
ROOT
ATOM      1  N   UNL     1       3.448   6.746  18.407  0.00  0.00    +0.000 N 
ATOM      2  C   UNL     1       4.122   6.040  17.335  0.00  0.00    +0.000 A 
ATOM      3  C   UNL     1       4.926   6.703  16.390  0.00  0.00    +0.000 A 
ATOM      4  C   UNL     1       5.620   5.989  15.396  0.00  0.00    +0.000 A 
ATOM      5  C   UNL     1       5.491   4.608  15.301  0.00  0.00    +0.000 A 
ATOM      6 CL   UNL     1       6.337   3.740  14.081  0.00  0.00    +0.000 Cl
ATOM      7  C   UNL     1       4.684   3.923  16.193  0.00  0.00    +0.000 A 
ATOM      8  C   UNL     1       4.021   4.630  17.207  0.00  0.00    +0.000 A 
ATOM      9  C   UNL     1       3.186   3.848  18.147  0.00  0.00    +0.000 A 
ATOM     10  O   UNL     1       3.077   2.634  18.038  0.00  0.00    +0.000 OA
ATOM     11  C   UNL     1       2.527   4.617  19.163  0.00  0.00    +0.000 A 
ATOM     12  C   UNL     1       1.683   4.233  20.214  0.00  0.00    +0.000 A 
ATOM     13  C   UNL     1       1.238   2.873  20.608  0.00  0.00    +0.000 C 
ATOM     14  N   UNL     1       1.280   5.298  20.919  0.00  0.00    +0.000 NA
ATOM     15  N   UNL     1       1.875   6.359  20.312  0.00  0.00    +0.000 N 
ATOM     16  C   UNL     1       1.641   7.633  20.943  0.00  0.00    +0.000 C 
ATOM     17  C   UNL     1       2.659   5.990  19.245  0.00  0.00    +0.000 A 
ENDROOT
BRANCH   1  19
ATOM     18  C   UNL     1       1.931   8.261  17.539  0.00  0.00    +0.000 C 
ATOM     19  O   UNL     1       3.167   8.113  18.242  0.00  0.00    +0.000 OA
ENDBRANCH   1  19
TORSDOF 1
ENDMDL
MODEL 2
REMARK VINA RESULT:      -6.9      3.093      5.584
REMARK  Name = 
REMARK  4 active torsions:
REMARK  status: ('A' for Active; 'I' for Inactive)
REMARK    1  A    between atoms: C_1  and  O_2
REMARK    2  A    between atoms: O_2  and  N_3
REMARK    3  A    between atoms: C_14  and  C_15
REMARK    4  A    between atoms: N_17  and  C_18
REMARK                            x       y       z     vdW  Elec       q    Type
REMARK                         _______ _______ _______ _____ _____    ______ ____
ROOT
ATOM      1  N   UNL     1       2.734   5.633  20.139  0.00  0.00    +0.000 N 
ATOM      2  C   UNL     1       2.086   6.927  20.037  0.00  0.00    +0.000 A 
ATOM      3  C   UNL     1       1.241   7.424  21.046  0.00  0.00    +0.000 A 
ATOM      4  C   UNL     1       0.675   8.708  20.955  0.00  0.00    +0.000 A 
ATOM      5  C   UNL     1       0.905   9.501  19.836  0.00  0.00    +0.000 A 
ATOM      6 CL   UNL     1       0.205  11.067  19.725  0.00  0.00    +0.000 Cl
ATOM      7  C   UNL     1       1.704   9.034  18.806  0.00  0.00    +0.000 A 
ATOM      8  C   UNL     1       2.300   7.769  18.914  0.00  0.00    +0.000 A 
ATOM      9  C   UNL     1       3.162   7.325  17.795  0.00  0.00    +0.000 A 
ATOM     10  O   UNL     1       3.341   8.034  16.814  0.00  0.00    +0.000 OA
ATOM     11  C   UNL     1       3.745   6.023  17.952  0.00  0.00    +0.000 A 
ATOM     12  C   UNL     1       4.606   5.289  17.127  0.00  0.00    +0.000 A 
ATOM     13  C   UNL     1       5.206   5.671  15.824  0.00  0.00    +0.000 C 
ATOM     14  N   UNL     1       4.889   4.098  17.668  0.00  0.00    +0.000 NA
ATOM     15  N   UNL     1       4.205   4.081  18.844  0.00  0.00    +0.000 N 
ATOM     16  C   UNL     1       4.410   2.906  19.652  0.00  0.00    +0.000 C 
ATOM     17  C   UNL     1       3.505   5.243  19.067  0.00  0.00    +0.000 A 
ENDROOT
BRANCH   1  19
ATOM     18  C   UNL     1       1.008   4.104  20.325  0.00  0.00    +0.000 C 
ATOM     19  O   UNL     1       2.159   4.655  20.968  0.00  0.00    +0.000 OA
ENDBRANCH   1  19
TORSDOF 1
ENDMDL
MODEL 3
REMARK VINA RESULT:      -6.6      3.240      4.805
REMARK  Name = 
REMARK  4 active torsions:
REMARK  status: ('A' for Active; 'I' for Inactive)
REMARK    1  A    between atoms: C_1  and  O_2
REMARK    2  A    between atoms: O_2  and  N_3
REMARK    3  A    between atoms: C_14  and  C_15
REMARK    4  A    between atoms: N_17  and  C_18
REMARK                            x       y       z     vdW  Elec       q    Type
REMARK                         _______ _______ _______ _____ _____    ______ ____
ROOT
ATOM      1  N   UNL     1       3.596   6.356  17.452  0.00  0.00    +0.000 N 
ATOM      2  C   UNL     1       2.830   7.333  18.201  0.00  0.00    +0.000 A 
ATOM      3  C   UNL     1       2.600   8.635  17.720  0.00  0.00    +0.000 A 
ATOM      4  C   UNL     1       1.801   9.545  18.435  0.00  0.00    +0.000 A 
ATOM      5  C   UNL     1       1.253   9.188  19.662  0.00  0.00    +0.000 A 
ATOM      6 CL   UNL     1       0.282  10.306  20.537  0.00  0.00    +0.000 Cl
ATOM      7  C   UNL     1       1.483   7.927  20.185  0.00  0.00    +0.000 A 
ATOM      8  C   UNL     1       2.249   7.006  19.455  0.00  0.00    +0.000 A 
ATOM      9  C   UNL     1       2.449   5.664  20.049  0.00  0.00    +0.000 A 
ATOM     10  O   UNL     1       1.968   5.376  21.136  0.00  0.00    +0.000 OA
ATOM     11  C   UNL     1       3.241   4.761  19.265  0.00  0.00    +0.000 A 
ATOM     12  C   UNL     1       3.626   3.433  19.489  0.00  0.00    +0.000 A 
ATOM     13  C   UNL     1       3.289   2.540  20.626  0.00  0.00    +0.000 C 
ATOM     14  N   UNL     1       4.388   2.978  18.487  0.00  0.00    +0.000 NA
ATOM     15  N   UNL     1       4.482   4.024  17.622  0.00  0.00    +0.000 N 
ATOM     16  C   UNL     1       5.210   3.750  16.410  0.00  0.00    +0.000 C 
ATOM     17  C   UNL     1       3.784   5.130  18.048  0.00  0.00    +0.000 A 
ENDROOT
BRANCH   1  19
ATOM     18  C   UNL     1       5.768   7.098  17.158  0.00  0.00    +0.000 C 
ATOM     19  O   UNL     1       4.529   6.813  16.505  0.00  0.00    +0.000 OA
ENDBRANCH   1  19
TORSDOF 1
ENDMDL
MODEL 4
REMARK VINA RESULT:      -6.6      1.302      3.370
REMARK  Name = 
REMARK  4 active torsions:
REMARK  status: ('A' for Active; 'I' for Inactive)
REMARK    1  A    between atoms: C_1  and  O_2
REMARK    2  A    between atoms: O_2  and  N_3
REMARK    3  A    between atoms: C_14  and  C_15
REMARK    4  A    between atoms: N_17  and  C_18
REMARK                            x       y       z     vdW  Elec       q    Type
REMARK                         _______ _______ _______ _____ _____    ______ ____
ROOT
ATOM      1  N   UNL     1       3.307   3.571  18.427  0.00  0.00    +0.000 N 
ATOM      2  C   UNL     1       4.228   3.995  17.391  0.00  0.00    +0.000 A 
ATOM      3  C   UNL     1       4.930   3.076  16.590  0.00  0.00    +0.000 A 
ATOM      4  C   UNL     1       5.770   3.510  15.549  0.00  0.00    +0.000 A 
ATOM      5  C   UNL     1       5.959   4.868  15.317  0.00  0.00    +0.000 A 
ATOM      6 CL   UNL     1       6.993   5.395  14.048  0.00  0.00    +0.000 Cl
ATOM      7  C   UNL     1       5.312   5.804  16.105  0.00  0.00    +0.000 A 
ATOM      8  C   UNL     1       4.445   5.371  17.119  0.00  0.00    +0.000 A 
ATOM      9  C   UNL     1       3.761   6.413  17.920  0.00  0.00    +0.000 A 
ATOM     10  O   UNL     1       3.952   7.602  17.706  0.00  0.00    +0.000 OA
ATOM     11  C   UNL     1       2.888   5.919  18.945  0.00  0.00    +0.000 A 
ATOM     12  C   UNL     1       2.080   6.587  19.874  0.00  0.00    +0.000 A 
ATOM     13  C   UNL     1       1.865   8.046  20.050  0.00  0.00    +0.000 C 
ATOM     14  N   UNL     1       1.436   5.718  20.663  0.00  0.00    +0.000 NA
ATOM     15  N   UNL     1       1.836   4.494  20.228  0.00  0.00    +0.000 N 
ATOM     16  C   UNL     1       1.215   3.376  20.891  0.00  0.00    +0.000 C 
ATOM     17  C   UNL     1       2.711   4.567  19.169  0.00  0.00    +0.000 A 
ENDROOT
BRANCH   1  19
ATOM     18  C   UNL     1       4.500   2.333  19.976  0.00  0.00    +0.000 C 
ATOM     19  O   UNL     1       3.466   2.293  18.989  0.00  0.00    +0.000 OA
ENDBRANCH   1  19
TORSDOF 1
ENDMDL
MODEL 5
REMARK VINA RESULT:      -6.5      3.024      5.580
REMARK  Name = 
REMARK  4 active torsions:
REMARK  status: ('A' for Active; 'I' for Inactive)
REMARK    1  A    between atoms: C_1  and  O_2
REMARK    2  A    between atoms: O_2  and  N_3
REMARK    3  A    between atoms: C_14  and  C_15
REMARK    4  A    between atoms: N_17  and  C_18
REMARK                            x       y       z     vdW  Elec       q    Type
REMARK                         _______ _______ _______ _____ _____    ______ ____
ROOT
ATOM      1  N   UNL     1       2.489   4.589  19.756  0.00  0.00    +0.000 N 
ATOM      2  C   UNL     1       2.081   5.973  19.900  0.00  0.00    +0.000 A 
ATOM      3  C   UNL     1       1.248   6.403  20.950  0.00  0.00    +0.000 A 
ATOM      4  C   UNL     1       0.916   7.760  21.106  0.00  0.00    +0.000 A 
ATOM      5  C   UNL     1       1.372   8.706  20.194  0.00  0.00    +0.000 A 
ATOM      6 CL   UNL     1       0.958  10.364  20.385  0.00  0.00    +0.000 Cl
ATOM      7  C   UNL     1       2.167   8.318  19.129  0.00  0.00    +0.000 A 
ATOM      8  C   UNL     1       2.529   6.969  18.994  0.00  0.00    +0.000 A 
ATOM      9  C   UNL     1       3.397   6.609  17.850  0.00  0.00    +0.000 A 
ATOM     10  O   UNL     1       3.777   7.456  17.052  0.00  0.00    +0.000 OA
ATOM     11  C   UNL     1       3.736   5.218  17.755  0.00  0.00    +0.000 A 
ATOM     12  C   UNL     1       4.529   4.519  16.835  0.00  0.00    +0.000 A 
ATOM     13  C   UNL     1       5.295   5.039  15.674  0.00  0.00    +0.000 C 
ATOM     14  N   UNL     1       4.559   3.212  17.124  0.00  0.00    +0.000 NA
ATOM     15  N   UNL     1       3.784   3.085  18.234  0.00  0.00    +0.000 N 
ATOM     16  C   UNL     1       3.717   1.755  18.782  0.00  0.00    +0.000 C 
ATOM     17  C   UNL     1       3.273   4.287  18.665  0.00  0.00    +0.000 A 
ENDROOT
BRANCH   1  19
ATOM     18  C   UNL     1       2.219   3.227  21.606  0.00  0.00    +0.000 C 
ATOM     19  O   UNL     1       1.688   3.586  20.329  0.00  0.00    +0.000 OA
ENDBRANCH   1  19
TORSDOF 1
ENDMDL
MODEL 6
REMARK VINA RESULT:      -5.8      3.124      4.558
REMARK  Name = 
REMARK  4 active torsions:
REMARK  status: ('A' for Active; 'I' for Inactive)
REMARK    1  A    between atoms: C_1  and  O_2
REMARK    2  A    between atoms: O_2  and  N_3
REMARK    3  A    between atoms: C_14  and  C_15
REMARK    4  A    between atoms: N_17  and  C_18
REMARK                            x       y       z     vdW  Elec       q    Type
REMARK                         _______ _______ _______ _____ _____    ______ ____
ROOT
ATOM      1  N   UNL     1       3.266   5.280  17.774  0.00  0.00    +0.000 N 
ATOM      2  C   UNL     1       2.784   6.586  18.183  0.00  0.00    +0.000 A 
ATOM      3  C   UNL     1       2.899   7.719  17.357  0.00  0.00    +0.000 A 
ATOM      4  C   UNL     1       2.368   8.961  17.748  0.00  0.00    +0.000 A 
ATOM      5  C   UNL     1       1.753   9.106  18.986  0.00  0.00    +0.000 A 
ATOM      6 CL   UNL     1       1.110  10.628  19.464  0.00  0.00    +0.000 Cl
ATOM      7  C   UNL     1       1.649   8.022  19.841  0.00  0.00    +0.000 A 
ATOM      8  C   UNL     1       2.145   6.774  19.436  0.00  0.00    +0.000 A 
ATOM      9  C   UNL     1       1.992   5.642  20.379  0.00  0.00    +0.000 A 
ATOM     10  O   UNL     1       1.458   5.794  21.469  0.00  0.00    +0.000 OA
ATOM     11  C   UNL     1       2.518   4.389  19.919  0.00  0.00    +0.000 A 
ATOM     12  C   UNL     1       2.545   3.121  20.515  0.00  0.00    +0.000 A 
ATOM     13  C   UNL     1       1.992   2.690  21.824  0.00  0.00    +0.000 C 
ATOM     14  N   UNL     1       3.156   2.232  19.723  0.00  0.00    +0.000 NA
ATOM     15  N   UNL     1       3.515   2.940  18.620  0.00  0.00    +0.000 N 
ATOM     16  C   UNL     1       4.141   2.170  17.576  0.00  0.00    +0.000 C 
ATOM     17  C   UNL     1       3.131   4.259  18.687  0.00  0.00    +0.000 A 
ENDROOT
BRANCH   1  19
ATOM     18  C   UNL     1       5.551   5.393  17.432  0.00  0.00    +0.000 C 
ATOM     19  O   UNL     1       4.280   5.210  16.804  0.00  0.00    +0.000 OA
ENDBRANCH   1  19
TORSDOF 1
ENDMDL
MODEL 7
REMARK VINA RESULT:      -5.7      2.948      4.271
REMARK  Name = 
REMARK  4 active torsions:
REMARK  status: ('A' for Active; 'I' for Inactive)
REMARK    1  A    between atoms: C_1  and  O_2
REMARK    2  A    between atoms: O_2  and  N_3
REMARK    3  A    between atoms: C_14  and  C_15
REMARK    4  A    between atoms: N_17  and  C_18
REMARK                            x       y       z     vdW  Elec       q    Type
REMARK                         _______ _______ _______ _____ _____    ______ ____
ROOT
ATOM      1  N   UNL     1       3.804   4.422  17.909  0.00  0.00    +0.000 N 
ATOM      2  C   UNL     1       3.434   5.822  17.980  0.00  0.00    +0.000 A 
ATOM      3  C   UNL     1       3.898   6.768  17.047  0.00  0.00    +0.000 A 
ATOM      4  C   UNL     1       3.476   8.109  17.099  0.00  0.00    +0.000 A 
ATOM      5  C   UNL     1       2.619   8.539  18.106  0.00  0.00    +0.000 A 
ATOM      6 CL   UNL     1       2.111  10.181  18.170  0.00  0.00    +0.000 Cl
ATOM      7  C   UNL     1       2.167   7.645  19.062  0.00  0.00    +0.000 A 
ATOM      8  C   UNL     1       2.558   6.300  18.989  0.00  0.00    +0.000 A 
ATOM      9  C   UNL     1       2.030   5.381  20.023  0.00  0.00    +0.000 A 
ATOM     10  O   UNL     1       1.287   5.784  20.908  0.00  0.00    +0.000 OA
ATOM     11  C   UNL     1       2.462   4.018  19.906  0.00  0.00    +0.000 A 
ATOM     12  C   UNL     1       2.168   2.884  20.675  0.00  0.00    +0.000 A 
ATOM     13  C   UNL     1       1.272   2.758  21.853  0.00  0.00    +0.000 C 
ATOM     14  N   UNL     1       2.810   1.807  20.207  0.00  0.00    +0.000 NA
ATOM     15  N   UNL     1       3.512   2.262  19.135  0.00  0.00    +0.000 N 
ATOM     16  C   UNL     1       4.244   1.254  18.412  0.00  0.00    +0.000 C 
ATOM     17  C   UNL     1       3.317   3.604  18.903  0.00  0.00    +0.000 A 
ENDROOT
BRANCH   1  19
ATOM     18  C   UNL     1       6.113   4.459  18.047  0.00  0.00    +0.000 C 
ATOM     19  O   UNL     1       4.993   4.071  17.247  0.00  0.00    +0.000 OA
ENDBRANCH   1  19
TORSDOF 1
ENDMDL
MODEL 8
REMARK VINA RESULT:      -5.6      9.871     12.147
REMARK  Name = 
REMARK  4 active torsions:
REMARK  status: ('A' for Active; 'I' for Inactive)
REMARK    1  A    between atoms: C_1  and  O_2
REMARK    2  A    between atoms: O_2  and  N_3
REMARK    3  A    between atoms: C_14  and  C_15
REMARK    4  A    between atoms: N_17  and  C_18
REMARK                            x       y       z     vdW  Elec       q    Type
REMARK                         _______ _______ _______ _____ _____    ______ ____
ROOT
ATOM      1  N   UNL     1      -5.579  11.519  18.862  0.00  0.00    +0.000 N 
ATOM      2  C   UNL     1      -6.072  11.978  20.147  0.00  0.00    +0.000 A 
ATOM      3  C   UNL     1      -7.427  11.870  20.511  0.00  0.00    +0.000 A 
ATOM      4  C   UNL     1      -7.871  12.264  21.786  0.00  0.00    +0.000 A 
ATOM      5  C   UNL     1      -6.982  12.813  22.703  0.00  0.00    +0.000 A 
ATOM      6 CL   UNL     1      -7.530  13.300  24.259  0.00  0.00    +0.000 Cl
ATOM      7  C   UNL     1      -5.647  12.966  22.370  0.00  0.00    +0.000 A 
ATOM      8  C   UNL     1      -5.196  12.539  21.112  0.00  0.00    +0.000 A 
ATOM      9  C   UNL     1      -3.755  12.706  20.813  0.00  0.00    +0.000 A 
ATOM     10  O   UNL     1      -2.993  13.203  21.630  0.00  0.00    +0.000 OA
ATOM     11  C   UNL     1      -3.346  12.257  19.513  0.00  0.00    +0.000 A 
ATOM     12  C   UNL     1      -2.090  12.242  18.892  0.00  0.00    +0.000 A 
ATOM     13  C   UNL     1      -0.775  12.674  19.429  0.00  0.00    +0.000 C 
ATOM     14  N   UNL     1      -2.174  11.741  17.654  0.00  0.00    +0.000 NA
ATOM     15  N   UNL     1      -3.488  11.434  17.493  0.00  0.00    +0.000 N 
ATOM     16  C   UNL     1      -3.820  10.806  16.240  0.00  0.00    +0.000 C 
ATOM     17  C   UNL     1      -4.240  11.717  18.609  0.00  0.00    +0.000 A 
ENDROOT
BRANCH   1  19
ATOM     18  C   UNL     1      -6.751  12.741  17.286  0.00  0.00    +0.000 C 
ATOM     19  O   UNL     1      -6.479  11.430  17.787  0.00  0.00    +0.000 OA
ENDBRANCH   1  19
TORSDOF 1
ENDMDL
MODEL 9
REMARK VINA RESULT:      -5.5      2.946      5.071
REMARK  Name = 
REMARK  4 active torsions:
REMARK  status: ('A' for Active; 'I' for Inactive)
REMARK    1  A    between atoms: C_1  and  O_2
REMARK    2  A    between atoms: O_2  and  N_3
REMARK    3  A    between atoms: C_14  and  C_15
REMARK    4  A    between atoms: N_17  and  C_18
REMARK                            x       y       z     vdW  Elec       q    Type
REMARK                         _______ _______ _______ _____ _____    ______ ____
ROOT
ATOM      1  N   UNL     1       3.008   5.663  17.805  0.00  0.00    +0.000 N 
ATOM      2  C   UNL     1       2.569   4.838  18.913  0.00  0.00    +0.000 A 
ATOM      3  C   UNL     1       1.231   4.822  19.351  0.00  0.00    +0.000 A 
ATOM      4  C   UNL     1       0.815   3.967  20.387  0.00  0.00    +0.000 A 
ATOM      5  C   UNL     1       1.732   3.146  21.034  0.00  0.00    +0.000 A 
ATOM      6 CL   UNL     1       1.220   2.107  22.305  0.00  0.00    +0.000 Cl
ATOM      7  C   UNL     1       3.063   3.157  20.654  0.00  0.00    +0.000 A 
ATOM      8  C   UNL     1       3.472   3.982  19.595  0.00  0.00    +0.000 A 
ATOM      9  C   UNL     1       4.903   3.941  19.214  0.00  0.00    +0.000 A 
ATOM     10  O   UNL     1       5.695   3.220  19.805  0.00  0.00    +0.000 OA
ATOM     11  C   UNL     1       5.270   4.805  18.129  0.00  0.00    +0.000 A 
ATOM     12  C   UNL     1       6.500   5.024  17.496  0.00  0.00    +0.000 A 
ATOM     13  C   UNL     1       7.814   4.382  17.756  0.00  0.00    +0.000 C 
ATOM     14  N   UNL     1       6.385   5.940  16.527  0.00  0.00    +0.000 NA
ATOM     15  N   UNL     1       5.073   6.300  16.546  0.00  0.00    +0.000 N 
ATOM     16  C   UNL     1       4.684   7.242  15.529  0.00  0.00    +0.000 C 
ATOM     17  C   UNL     1       4.350   5.620  17.498  0.00  0.00    +0.000 A 
ENDROOT
BRANCH   1  19
ATOM     18  C   UNL     1       2.550   7.846  18.419  0.00  0.00    +0.000 C 
ATOM     19  O   UNL     1       2.262   6.808  17.479  0.00  0.00    +0.000 OA
ENDBRANCH   1  19
TORSDOF 1
ENDMDL
