MODEL 1
REMARK VINA RESULT:      -8.4      0.000      0.000
REMARK  Name = 
REMARK  11 active torsions:
REMARK  status: ('A' for Active; 'I' for Inactive)
REMARK    1  A    between atoms: C_1  and  C_2
REMARK    2  A    between atoms: C_2  and  C_3
REMARK    3  A    between atoms: C_2  and  C_4
REMARK    4  A    between atoms: C_6  and  C_7
REMARK    5  A    between atoms: C_7  and  N_8
REMARK    6  A    between atoms: C_10  and  C_11
REMARK    7  A    between atoms: C_11  and  O_13
REMARK    8  A    between atoms: C_16  and  C_17
REMARK    9  A    between atoms: C_20  and  C_21
REMARK   10  A    between atoms: C_24  and  O_25
REMARK   11  A    between atoms: O_25  and  C_26
REMARK                            x       y       z     vdW  Elec       q    Type
REMARK                         _______ _______ _______ _____ _____    ______ ____
ROOT
ATOM      1  C   UNL     1       2.530   7.835  18.314  0.00  0.00    +0.000 A 
ATOM      2  N   UNL     1       2.062   8.632  17.340  0.00  0.00    +0.000 NA
ATOM      3  O   UNL     1       1.298   9.583  18.034  0.00  0.00    +0.000 OA
ATOM      4  C   UNL     1       1.346   9.230  19.352  0.00  0.00    +0.000 A 
ATOM      5  N   UNL     1       2.074   8.158  19.565  0.00  0.00    +0.000 NA
ENDROOT
BRANCH   4   6
ATOM      6  C   UNL     1       0.633  10.035  20.328  0.00  0.00    +0.000 A 
ATOM      7  C   UNL     1       0.662  11.435  20.336  0.00  0.00    +0.000 A 
ATOM      8  C   UNL     1      -0.032  12.152  21.321  0.00  0.00    +0.000 A 
ATOM      9  C   UNL     1      -0.767  11.481  22.303  0.00  0.00    +0.000 A 
ATOM     10  C   UNL     1      -0.757  10.086  22.334  0.00  0.00    +0.000 A 
ATOM     11  C   UNL     1      -0.090   9.373  21.337  0.00  0.00    +0.000 A 
BRANCH   9  12
ATOM     12  O   UNL     1      -1.411  12.271  23.227  0.00  0.00    +0.000 OA
BRANCH  12  13
ATOM     13  C   UNL     1      -2.764  12.498  23.112  0.00  0.00    +0.000 A 
ATOM     14  C   UNL     1      -3.250  12.666  21.814  0.00  0.00    +0.000 A 
ATOM     15  C   UNL     1      -4.608  12.905  21.597  0.00  0.00    +0.000 A 
ATOM     16  C   UNL     1      -5.484  12.978  22.680  0.00  0.00    +0.000 A 
ATOM     17  C   UNL     1      -5.009  12.778  23.975  0.00  0.00    +0.000 A 
ATOM     18  C   UNL     1      -3.658  12.505  24.188  0.00  0.00    +0.000 A 
ENDBRANCH  12  13
ENDBRANCH   9  12
ENDBRANCH   4   6
BRANCH   1  23
ATOM     19  C   UNL     1       3.140   5.333  18.241  0.00  0.00    +0.000 A 
ATOM     20  C   UNL     1       4.267   4.501  17.905  0.00  0.00    +0.000 A 
ATOM     21  C   UNL     1       5.388   5.204  17.531  0.00  0.00    +0.000 A 
ATOM     22  S   UNL     1       5.106   6.889  17.637  0.00  0.00    +0.000 S 
ATOM     23  C   UNL     1       3.468   6.676  18.098  0.00  0.00    +0.000 A 
BRANCH  19  25
ATOM     24  C   UNL     1       1.573   3.372  18.068  0.00  0.00    +0.000 C 
ATOM     25  C   UNL     1       1.824   4.737  18.712  0.00  0.00    +0.000 C 
ATOM     26  C   UNL     1       1.774   4.643  20.242  0.00  0.00    +0.000 C 
ENDBRANCH  19  25
BRANCH  21  27
ATOM     27  C   UNL     1       6.740   4.686  17.113  0.00  0.00    +0.000 C 
BRANCH  27  28
ATOM     28  N   UNL     1       6.807   4.283  15.687  0.00  0.00    +0.000 NA
ATOM     29  C   UNL     1       5.705   3.352  15.348  0.00  0.00    +0.000 C 
ATOM     30  C   UNL     1       5.344   4.252  14.151  0.00  0.00    +0.000 C 
ATOM     31  C   UNL     1       6.174   5.338  14.858  0.00  0.00    +0.000 C 
BRANCH  30  32
ATOM     32  C   UNL     1       5.772   3.788  12.743  0.00  0.00    +0.000 C 
ATOM     33  O   UNL     1       6.929   3.802  12.321  0.00  0.00    +0.000 OA
BRANCH  32  34
ATOM     34  O   UNL     1       4.761   3.332  11.957  0.00  0.00    +0.000 OA
ATOM     35  H   UNL     1       3.989   3.034  12.483  0.00  0.00    +0.000 HD
ENDBRANCH  32  34
ENDBRANCH  30  32
ENDBRANCH  27  28
ENDBRANCH  21  27
ENDBRANCH   1  23
TORSDOF 9
ENDMDL
MODEL 2
REMARK VINA RESULT:      -8.3      0.850      1.096
REMARK  Name = 
REMARK  11 active torsions:
REMARK  status: ('A' for Active; 'I' for Inactive)
REMARK    1  A    between atoms: C_1  and  C_2
REMARK    2  A    between atoms: C_2  and  C_3
REMARK    3  A    between atoms: C_2  and  C_4
REMARK    4  A    between atoms: C_6  and  C_7
REMARK    5  A    between atoms: C_7  and  N_8
REMARK    6  A    between atoms: C_10  and  C_11
REMARK    7  A    between atoms: C_11  and  O_13
REMARK    8  A    between atoms: C_16  and  C_17
REMARK    9  A    between atoms: C_20  and  C_21
REMARK   10  A    between atoms: C_24  and  O_25
REMARK   11  A    between atoms: O_25  and  C_26
REMARK                            x       y       z     vdW  Elec       q    Type
REMARK                         _______ _______ _______ _____ _____    ______ ____
ROOT
ATOM      1  C   UNL     1       2.305   7.662  18.545  0.00  0.00    +0.000 A 
ATOM      2  N   UNL     1       1.769   8.419  17.573  0.00  0.00    +0.000 NA
ATOM      3  O   UNL     1       1.061   9.404  18.278  0.00  0.00    +0.000 OA
ATOM      4  C   UNL     1       1.203   9.109  19.604  0.00  0.00    +0.000 A 
ATOM      5  N   UNL     1       1.941   8.043  19.810  0.00  0.00    +0.000 NA
ENDROOT
BRANCH   4   6
ATOM      6  C   UNL     1       0.564   9.959  20.592  0.00  0.00    +0.000 A 
ATOM      7  C   UNL     1       0.575  11.358  20.523  0.00  0.00    +0.000 A 
ATOM      8  C   UNL     1      -0.042  12.121  21.524  0.00  0.00    +0.000 A 
ATOM      9  C   UNL     1      -0.683  11.498  22.598  0.00  0.00    +0.000 A 
ATOM     10  C   UNL     1      -0.652  10.108  22.703  0.00  0.00    +0.000 A 
ATOM     11  C   UNL     1      -0.062   9.347  21.692  0.00  0.00    +0.000 A 
BRANCH   9  12
ATOM     12  O   UNL     1      -1.257  12.332  23.531  0.00  0.00    +0.000 OA
BRANCH  12  13
ATOM     13  C   UNL     1      -2.355  13.090  23.190  0.00  0.00    +0.000 A 
ATOM     14  C   UNL     1      -3.563  12.399  23.066  0.00  0.00    +0.000 A 
ATOM     15  C   UNL     1      -4.730  13.081  22.720  0.00  0.00    +0.000 A 
ATOM     16  C   UNL     1      -4.692  14.458  22.496  0.00  0.00    +0.000 A 
ATOM     17  C   UNL     1      -3.496  15.156  22.651  0.00  0.00    +0.000 A 
ATOM     18  C   UNL     1      -2.338  14.479  23.030  0.00  0.00    +0.000 A 
ENDBRANCH  12  13
ENDBRANCH   9  12
ENDBRANCH   4   6
BRANCH   1  23
ATOM     19  C   UNL     1       2.879   5.153  18.473  0.00  0.00    +0.000 A 
ATOM     20  C   UNL     1       3.986   4.304  18.114  0.00  0.00    +0.000 A 
ATOM     21  C   UNL     1       5.107   4.989  17.706  0.00  0.00    +0.000 A 
ATOM     22  S   UNL     1       4.849   6.679  17.808  0.00  0.00    +0.000 S 
ATOM     23  C   UNL     1       3.222   6.490  18.312  0.00  0.00    +0.000 A 
BRANCH  19  25
ATOM     24  C   UNL     1       1.321   3.179  18.412  0.00  0.00    +0.000 C 
ATOM     25  C   UNL     1       1.568   4.577  18.982  0.00  0.00    +0.000 C 
ATOM     26  C   UNL     1       1.526   4.565  20.515  0.00  0.00    +0.000 C 
ENDBRANCH  19  25
BRANCH  21  27
ATOM     27  C   UNL     1       6.440   4.450  17.258  0.00  0.00    +0.000 C 
BRANCH  27  28
ATOM     28  N   UNL     1       6.423   3.889  15.884  0.00  0.00    +0.000 NA
ATOM     29  C   UNL     1       5.283   4.431  15.107  0.00  0.00    +0.000 C 
ATOM     30  C   UNL     1       6.262   4.808  13.979  0.00  0.00    +0.000 C 
ATOM     31  C   UNL     1       7.368   4.658  15.038  0.00  0.00    +0.000 C 
BRANCH  30  32
ATOM     32  C   UNL     1       6.305   3.907  12.727  0.00  0.00    +0.000 C 
ATOM     33  O   UNL     1       5.531   2.975  12.505  0.00  0.00    +0.000 OA
BRANCH  32  34
ATOM     34  O   UNL     1       7.280   4.215  11.831  0.00  0.00    +0.000 OA
ATOM     35  H   UNL     1       7.715   5.070  12.037  0.00  0.00    +0.000 HD
ENDBRANCH  32  34
ENDBRANCH  30  32
ENDBRANCH  27  28
ENDBRANCH  21  27
ENDBRANCH   1  23
TORSDOF 9
ENDMDL
MODEL 3
REMARK VINA RESULT:      -8.2      0.817      1.421
REMARK  Name = 
REMARK  11 active torsions:
REMARK  status: ('A' for Active; 'I' for Inactive)
REMARK    1  A    between atoms: C_1  and  C_2
REMARK    2  A    between atoms: C_2  and  C_3
REMARK    3  A    between atoms: C_2  and  C_4
REMARK    4  A    between atoms: C_6  and  C_7
REMARK    5  A    between atoms: C_7  and  N_8
REMARK    6  A    between atoms: C_10  and  C_11
REMARK    7  A    between atoms: C_11  and  O_13
REMARK    8  A    between atoms: C_16  and  C_17
REMARK    9  A    between atoms: C_20  and  C_21
REMARK   10  A    between atoms: C_24  and  O_25
REMARK   11  A    between atoms: O_25  and  C_26
REMARK                            x       y       z     vdW  Elec       q    Type
REMARK                         _______ _______ _______ _____ _____    ______ ____
ROOT
ATOM      1  C   UNL     1       2.486   7.625  18.490  0.00  0.00    +0.000 A 
ATOM      2  N   UNL     1       2.055   8.502  17.568  0.00  0.00    +0.000 NA
ATOM      3  O   UNL     1       1.317   9.429  18.319  0.00  0.00    +0.000 OA
ATOM      4  C   UNL     1       1.339   8.987  19.610  0.00  0.00    +0.000 A 
ATOM      5  N   UNL     1       2.028   7.879  19.756  0.00  0.00    +0.000 NA
ENDROOT
BRANCH   4   6
ATOM      6  C   UNL     1       0.644   9.749  20.632  0.00  0.00    +0.000 A 
ATOM      7  C   UNL     1       0.158   9.180  21.816  0.00  0.00    +0.000 A 
ATOM      8  C   UNL     1      -0.526   9.968  22.753  0.00  0.00    +0.000 A 
ATOM      9  C   UNL     1      -0.725  11.331  22.522  0.00  0.00    +0.000 A 
ATOM     10  C   UNL     1      -0.292  11.895  21.322  0.00  0.00    +0.000 A 
ATOM     11  C   UNL     1       0.413  11.117  20.403  0.00  0.00    +0.000 A 
BRANCH   9  12
ATOM     12  O   UNL     1      -1.410  12.020  23.497  0.00  0.00    +0.000 OA
BRANCH  12  13
ATOM     13  C   UNL     1      -2.426  12.881  23.146  0.00  0.00    +0.000 A 
ATOM     14  C   UNL     1      -2.392  14.144  23.740  0.00  0.00    +0.000 A 
ATOM     15  C   UNL     1      -3.382  15.084  23.449  0.00  0.00    +0.000 A 
ATOM     16  C   UNL     1      -4.410  14.761  22.563  0.00  0.00    +0.000 A 
ATOM     17  C   UNL     1      -4.429  13.514  21.942  0.00  0.00    +0.000 A 
ATOM     18  C   UNL     1      -3.421  12.587  22.208  0.00  0.00    +0.000 A 
ENDBRANCH  12  13
ENDBRANCH   9  12
ENDBRANCH   4   6
BRANCH   1  23
ATOM     19  C   UNL     1       3.029   5.114  18.313  0.00  0.00    +0.000 A 
ATOM     20  C   UNL     1       4.122   4.266  17.911  0.00  0.00    +0.000 A 
ATOM     21  C   UNL     1       5.248   4.954  17.522  0.00  0.00    +0.000 A 
ATOM     22  S   UNL     1       5.013   6.641  17.694  0.00  0.00    +0.000 S 
ATOM     23  C   UNL     1       3.386   6.452  18.203  0.00  0.00    +0.000 A 
BRANCH  19  25
ATOM     24  C   UNL     1       1.430   3.177  18.160  0.00  0.00    +0.000 C 
ATOM     25  C   UNL     1       1.715   4.534  18.809  0.00  0.00    +0.000 C 
ATOM     26  C   UNL     1       1.696   4.430  20.338  0.00  0.00    +0.000 C 
ENDBRANCH  19  25
BRANCH  21  27
ATOM     27  C   UNL     1       6.572   4.417  17.042  0.00  0.00    +0.000 C 
BRANCH  27  28
ATOM     28  N   UNL     1       6.519   3.843  15.675  0.00  0.00    +0.000 NA
ATOM     29  C   UNL     1       5.251   4.205  14.998  0.00  0.00    +0.000 C 
ATOM     30  C   UNL     1       6.065   4.705  13.790  0.00  0.00    +0.000 C 
ATOM     31  C   UNL     1       7.268   4.729  14.751  0.00  0.00    +0.000 C 
BRANCH  30  32
ATOM     32  C   UNL     1       6.132   3.803  12.539  0.00  0.00    +0.000 C 
ATOM     33  O   UNL     1       5.284   2.966  12.231  0.00  0.00    +0.000 OA
BRANCH  32  34
ATOM     34  O   UNL     1       7.222   3.997  11.750  0.00  0.00    +0.000 OA
ATOM     35  H   UNL     1       7.995   4.320  12.259  0.00  0.00    +0.000 HD
ENDBRANCH  32  34
ENDBRANCH  30  32
ENDBRANCH  27  28
ENDBRANCH  21  27
ENDBRANCH   1  23
TORSDOF 9
ENDMDL
MODEL 4
REMARK VINA RESULT:      -8.2      0.841      1.114
REMARK  Name = 
REMARK  11 active torsions:
REMARK  status: ('A' for Active; 'I' for Inactive)
REMARK    1  A    between atoms: C_1  and  C_2
REMARK    2  A    between atoms: C_2  and  C_3
REMARK    3  A    between atoms: C_2  and  C_4
REMARK    4  A    between atoms: C_6  and  C_7
REMARK    5  A    between atoms: C_7  and  N_8
REMARK    6  A    between atoms: C_10  and  C_11
REMARK    7  A    between atoms: C_11  and  O_13
REMARK    8  A    between atoms: C_16  and  C_17
REMARK    9  A    between atoms: C_20  and  C_21
REMARK   10  A    between atoms: C_24  and  O_25
REMARK   11  A    between atoms: O_25  and  C_26
REMARK                            x       y       z     vdW  Elec       q    Type
REMARK                         _______ _______ _______ _____ _____    ______ ____
ROOT
ATOM      1  C   UNL     1       2.722   7.652  18.327  0.00  0.00    +0.000 A 
ATOM      2  N   UNL     1       2.262   8.526  17.417  0.00  0.00    +0.000 NA
ATOM      3  O   UNL     1       1.414   9.359  18.164  0.00  0.00    +0.000 OA
ATOM      4  C   UNL     1       1.413   8.869  19.438  0.00  0.00    +0.000 A 
ATOM      5  N   UNL     1       2.186   7.816  19.577  0.00  0.00    +0.000 NA
ENDROOT
BRANCH   4   6
ATOM      6  C   UNL     1       0.609   9.528  20.451  0.00  0.00    +0.000 A 
ATOM      7  C   UNL     1       0.142  10.843  20.325  0.00  0.00    +0.000 A 
ATOM      8  C   UNL     1      -0.611  11.428  21.352  0.00  0.00    +0.000 A 
ATOM      9  C   UNL     1      -0.913  10.707  22.510  0.00  0.00    +0.000 A 
ATOM     10  C   UNL     1      -0.408   9.417  22.668  0.00  0.00    +0.000 A 
ATOM     11  C   UNL     1       0.319   8.824  21.634  0.00  0.00    +0.000 A 
BRANCH   9  12
ATOM     12  O   UNL     1      -1.656  11.368  23.462  0.00  0.00    +0.000 OA
BRANCH  12  13
ATOM     13  C   UNL     1      -2.336  12.518  23.126  0.00  0.00    +0.000 A 
ATOM     14  C   UNL     1      -1.749  13.719  23.529  0.00  0.00    +0.000 A 
ATOM     15  C   UNL     1      -2.366  14.936  23.237  0.00  0.00    +0.000 A 
ATOM     16  C   UNL     1      -3.576  14.955  22.542  0.00  0.00    +0.000 A 
ATOM     17  C   UNL     1      -4.148  13.760  22.108  0.00  0.00    +0.000 A 
ATOM     18  C   UNL     1      -3.513  12.547  22.371  0.00  0.00    +0.000 A 
ENDBRANCH  12  13
ENDBRANCH   9  12
ENDBRANCH   4   6
BRANCH   1  23
ATOM     19  C   UNL     1       3.515   5.205  18.192  0.00  0.00    +0.000 A 
ATOM     20  C   UNL     1       4.679   4.464  17.781  0.00  0.00    +0.000 A 
ATOM     21  C   UNL     1       5.720   5.253  17.348  0.00  0.00    +0.000 A 
ATOM     22  S   UNL     1       5.317   6.911  17.488  0.00  0.00    +0.000 S 
ATOM     23  C   UNL     1       3.731   6.569  18.044  0.00  0.00    +0.000 A 
BRANCH  19  25
ATOM     24  C   UNL     1       1.899   3.305  17.869  0.00  0.00    +0.000 C 
ATOM     25  C   UNL     1       2.279   4.507  18.735  0.00  0.00    +0.000 C 
ATOM     26  C   UNL     1       2.473   4.094  20.199  0.00  0.00    +0.000 C 
ENDBRANCH  19  25
BRANCH  21  27
ATOM     27  C   UNL     1       7.079   4.842  16.846  0.00  0.00    +0.000 C 
BRANCH  27  28
ATOM     28  N   UNL     1       7.089   4.445  15.416  0.00  0.00    +0.000 NA
ATOM     29  C   UNL     1       6.160   3.316  15.174  0.00  0.00    +0.000 C 
ATOM     30  C   UNL     1       5.523   4.117  14.023  0.00  0.00    +0.000 C 
ATOM     31  C   UNL     1       6.191   5.350  14.659  0.00  0.00    +0.000 C 
BRANCH  30  32
ATOM     32  C   UNL     1       5.899   3.730  12.578  0.00  0.00    +0.000 C 
ATOM     33  O   UNL     1       7.029   3.818  12.099  0.00  0.00    +0.000 OA
BRANCH  32  34
ATOM     34  O   UNL     1       4.872   3.254  11.825  0.00  0.00    +0.000 OA
ATOM     35  H   UNL     1       5.151   3.042  10.909  0.00  0.00    +0.000 HD
ENDBRANCH  32  34
ENDBRANCH  30  32
ENDBRANCH  27  28
ENDBRANCH  21  27
ENDBRANCH   1  23
TORSDOF 9
ENDMDL
MODEL 5
REMARK VINA RESULT:      -8.1      2.661     11.908
REMARK  Name = 
REMARK  11 active torsions:
REMARK  status: ('A' for Active; 'I' for Inactive)
REMARK    1  A    between atoms: C_1  and  C_2
REMARK    2  A    between atoms: C_2  and  C_3
REMARK    3  A    between atoms: C_2  and  C_4
REMARK    4  A    between atoms: C_6  and  C_7
REMARK    5  A    between atoms: C_7  and  N_8
REMARK    6  A    between atoms: C_10  and  C_11
REMARK    7  A    between atoms: C_11  and  O_13
REMARK    8  A    between atoms: C_16  and  C_17
REMARK    9  A    between atoms: C_20  and  C_21
REMARK   10  A    between atoms: C_24  and  O_25
REMARK   11  A    between atoms: O_25  and  C_26
REMARK                            x       y       z     vdW  Elec       q    Type
REMARK                         _______ _______ _______ _____ _____    ______ ____
ROOT
ATOM      1  C   UNL     1       1.567   7.674  20.366  0.00  0.00    +0.000 A 
ATOM      2  N   UNL     1       1.461   6.433  20.870  0.00  0.00    +0.000 NA
ATOM      3  O   UNL     1       2.468   5.722  20.200  0.00  0.00    +0.000 OA
ATOM      4  C   UNL     1       3.044   6.597  19.325  0.00  0.00    +0.000 A 
ATOM      5  N   UNL     1       2.512   7.796  19.382  0.00  0.00    +0.000 NA
ENDROOT
BRANCH   4   6
ATOM      6  C   UNL     1       4.128   6.140  18.475  0.00  0.00    +0.000 A 
ATOM      7  C   UNL     1       4.956   5.058  18.802  0.00  0.00    +0.000 A 
ATOM      8  C   UNL     1       6.001   4.682  17.946  0.00  0.00    +0.000 A 
ATOM      9  C   UNL     1       6.226   5.374  16.753  0.00  0.00    +0.000 A 
ATOM     10  C   UNL     1       5.440   6.486  16.446  0.00  0.00    +0.000 A 
ATOM     11  C   UNL     1       4.383   6.843  17.284  0.00  0.00    +0.000 A 
BRANCH   9  12
ATOM     12  O   UNL     1       7.276   4.932  15.981  0.00  0.00    +0.000 OA
BRANCH  12  13
ATOM     13  C   UNL     1       7.081   4.665  14.644  0.00  0.00    +0.000 A 
ATOM     14  C   UNL     1       6.057   3.766  14.341  0.00  0.00    +0.000 A 
ATOM     15  C   UNL     1       5.787   3.430  13.014  0.00  0.00    +0.000 A 
ATOM     16  C   UNL     1       6.543   3.993  11.985  0.00  0.00    +0.000 A 
ATOM     17  C   UNL     1       7.544   4.916  12.281  0.00  0.00    +0.000 A 
ATOM     18  C   UNL     1       7.790   5.277  13.605  0.00  0.00    +0.000 A 
ENDBRANCH  12  13
ENDBRANCH   9  12
ENDBRANCH   4   6
BRANCH   1  23
ATOM     19  C   UNL     1       0.179   9.806  19.967  0.00  0.00    +0.000 A 
ATOM     20  C   UNL     1      -0.590  10.758  20.727  0.00  0.00    +0.000 A 
ATOM     21  C   UNL     1      -0.595  10.518  22.081  0.00  0.00    +0.000 A 
ATOM     22  S   UNL     1       0.383   9.163  22.456  0.00  0.00    +0.000 S 
ATOM     23  C   UNL     1       0.739   8.853  20.808  0.00  0.00    +0.000 A 
BRANCH  19  25
ATOM     24  C   UNL     1      -1.000  10.301  17.800  0.00  0.00    +0.000 C 
ATOM     25  C   UNL     1       0.330   9.930  18.460  0.00  0.00    +0.000 C 
ATOM     26  C   UNL     1       1.428  10.935  18.093  0.00  0.00    +0.000 C 
ENDBRANCH  19  25
BRANCH  21  27
ATOM     27  C   UNL     1      -1.280  11.286  23.181  0.00  0.00    +0.000 C 
BRANCH  27  28
ATOM     28  N   UNL     1      -2.415  12.117  22.708  0.00  0.00    +0.000 NA
ATOM     29  C   UNL     1      -3.432  12.279  23.773  0.00  0.00    +0.000 C 
ATOM     30  C   UNL     1      -3.389  13.802  23.551  0.00  0.00    +0.000 C 
ATOM     31  C   UNL     1      -2.050  13.549  22.835  0.00  0.00    +0.000 C 
BRANCH  30  32
ATOM     32  C   UNL     1      -4.544  14.451  22.759  0.00  0.00    +0.000 C 
ATOM     33  O   UNL     1      -4.972  15.590  22.948  0.00  0.00    +0.000 OA
BRANCH  32  34
ATOM     34  O   UNL     1      -5.084  13.668  21.788  0.00  0.00    +0.000 OA
ATOM     35  H   UNL     1      -4.426  13.054  21.399  0.00  0.00    +0.000 HD
ENDBRANCH  32  34
ENDBRANCH  30  32
ENDBRANCH  27  28
ENDBRANCH  21  27
ENDBRANCH   1  23
TORSDOF 9
ENDMDL
MODEL 6
REMARK VINA RESULT:      -8.1      3.324     12.065
REMARK  Name = 
REMARK  11 active torsions:
REMARK  status: ('A' for Active; 'I' for Inactive)
REMARK    1  A    between atoms: C_1  and  C_2
REMARK    2  A    between atoms: C_2  and  C_3
REMARK    3  A    between atoms: C_2  and  C_4
REMARK    4  A    between atoms: C_6  and  C_7
REMARK    5  A    between atoms: C_7  and  N_8
REMARK    6  A    between atoms: C_10  and  C_11
REMARK    7  A    between atoms: C_11  and  O_13
REMARK    8  A    between atoms: C_16  and  C_17
REMARK    9  A    between atoms: C_20  and  C_21
REMARK   10  A    between atoms: C_24  and  O_25
REMARK   11  A    between atoms: O_25  and  C_26
REMARK                            x       y       z     vdW  Elec       q    Type
REMARK                         _______ _______ _______ _____ _____    ______ ____
ROOT
ATOM      1  C   UNL     1       0.336  10.430  21.233  0.00  0.00    +0.000 A 
ATOM      2  N   UNL     1       0.846   9.968  22.387  0.00  0.00    +0.000 NA
ATOM      3  O   UNL     1       1.546   8.816  21.998  0.00  0.00    +0.000 OA
ATOM      4  C   UNL     1       1.345   8.676  20.655  0.00  0.00    +0.000 A 
ATOM      5  N   UNL     1       0.597   9.631  20.151  0.00  0.00    +0.000 NA
ENDROOT
BRANCH   4   6
ATOM      6  C   UNL     1       1.948   7.553  19.960  0.00  0.00    +0.000 A 
ATOM      7  C   UNL     1       2.594   7.672  18.723  0.00  0.00    +0.000 A 
ATOM      8  C   UNL     1       3.136   6.542  18.095  0.00  0.00    +0.000 A 
ATOM      9  C   UNL     1       3.048   5.285  18.697  0.00  0.00    +0.000 A 
ATOM     10  C   UNL     1       2.360   5.148  19.903  0.00  0.00    +0.000 A 
ATOM     11  C   UNL     1       1.845   6.276  20.542  0.00  0.00    +0.000 A 
BRANCH   9  12
ATOM     12  O   UNL     1       3.608   4.237  18.003  0.00  0.00    +0.000 OA
BRANCH  12  13
ATOM     13  C   UNL     1       4.796   4.416  17.330  0.00  0.00    +0.000 A 
ATOM     14  C   UNL     1       4.699   4.574  15.945  0.00  0.00    +0.000 A 
ATOM     15  C   UNL     1       5.849   4.757  15.177  0.00  0.00    +0.000 A 
ATOM     16  C   UNL     1       7.102   4.783  15.791  0.00  0.00    +0.000 A 
ATOM     17  C   UNL     1       7.200   4.659  17.176  0.00  0.00    +0.000 A 
ATOM     18  C   UNL     1       6.048   4.510  17.947  0.00  0.00    +0.000 A 
ENDBRANCH  12  13
ENDBRANCH   9  12
ENDBRANCH   4   6
BRANCH   1  23
ATOM     19  C   UNL     1      -0.016  12.871  20.491  0.00  0.00    +0.000 A 
ATOM     20  C   UNL     1      -1.058  13.865  20.493  0.00  0.00    +0.000 A 
ATOM     21  C   UNL     1      -2.229  13.445  21.080  0.00  0.00    +0.000 A 
ATOM     22  S   UNL     1      -2.061  11.854  21.689  0.00  0.00    +0.000 S 
ATOM     23  C   UNL     1      -0.460  11.701  21.095  0.00  0.00    +0.000 A 
BRANCH  19  25
ATOM     24  C   UNL     1       1.259  13.938  18.603  0.00  0.00    +0.000 C 
ATOM     25  C   UNL     1       1.361  13.164  19.919  0.00  0.00    +0.000 C 
ATOM     26  C   UNL     1       2.236  13.911  20.933  0.00  0.00    +0.000 C 
ENDBRANCH  19  25
BRANCH  21  27
ATOM     27  C   UNL     1      -3.523  14.196  21.264  0.00  0.00    +0.000 C 
BRANCH  27  28
ATOM     28  N   UNL     1      -4.496  13.497  22.139  0.00  0.00    +0.000 NA
ATOM     29  C   UNL     1      -4.533  14.113  23.487  0.00  0.00    +0.000 C 
ATOM     30  C   UNL     1      -6.065  14.215  23.373  0.00  0.00    +0.000 C 
ATOM     31  C   UNL     1      -5.856  14.018  21.861  0.00  0.00    +0.000 C 
BRANCH  30  32
ATOM     32  C   UNL     1      -6.917  13.185  24.145  0.00  0.00    +0.000 C 
ATOM     33  O   UNL     1      -6.741  11.967  24.119  0.00  0.00    +0.000 OA
BRANCH  32  34
ATOM     34  O   UNL     1      -7.915  13.717  24.900  0.00  0.00    +0.000 OA
ATOM     35  H   UNL     1      -8.274  14.543  24.511  0.00  0.00    +0.000 HD
ENDBRANCH  32  34
ENDBRANCH  30  32
ENDBRANCH  27  28
ENDBRANCH  21  27
ENDBRANCH   1  23
TORSDOF 9
ENDMDL
MODEL 7
REMARK VINA RESULT:      -8.1      3.387     12.069
REMARK  Name = 
REMARK  11 active torsions:
REMARK  status: ('A' for Active; 'I' for Inactive)
REMARK    1  A    between atoms: C_1  and  C_2
REMARK    2  A    between atoms: C_2  and  C_3
REMARK    3  A    between atoms: C_2  and  C_4
REMARK    4  A    between atoms: C_6  and  C_7
REMARK    5  A    between atoms: C_7  and  N_8
REMARK    6  A    between atoms: C_10  and  C_11
REMARK    7  A    between atoms: C_11  and  O_13
REMARK    8  A    between atoms: C_16  and  C_17
REMARK    9  A    between atoms: C_20  and  C_21
REMARK   10  A    between atoms: C_24  and  O_25
REMARK   11  A    between atoms: O_25  and  C_26
REMARK                            x       y       z     vdW  Elec       q    Type
REMARK                         _______ _______ _______ _____ _____    ______ ____
ROOT
ATOM      1  C   UNL     1       0.229  10.571  21.252  0.00  0.00    +0.000 A 
ATOM      2  N   UNL     1       0.819  10.206  22.402  0.00  0.00    +0.000 NA
ATOM      3  O   UNL     1       1.506   9.032  22.059  0.00  0.00    +0.000 OA
ATOM      4  C   UNL     1       1.219   8.784  20.748  0.00  0.00    +0.000 A 
ATOM      5  N   UNL     1       0.428   9.690  20.222  0.00  0.00    +0.000 NA
ENDROOT
BRANCH   4   6
ATOM      6  C   UNL     1       1.789   7.613  20.106  0.00  0.00    +0.000 A 
ATOM      7  C   UNL     1       1.841   6.353  20.714  0.00  0.00    +0.000 A 
ATOM      8  C   UNL     1       2.427   5.268  20.047  0.00  0.00    +0.000 A 
ATOM      9  C   UNL     1       2.960   5.427  18.765  0.00  0.00    +0.000 A 
ATOM     10  C   UNL     1       2.961   6.690  18.174  0.00  0.00    +0.000 A 
ATOM     11  C   UNL     1       2.353   7.764  18.826  0.00  0.00    +0.000 A 
BRANCH   9  12
ATOM     12  O   UNL     1       3.516   4.305  18.194  0.00  0.00    +0.000 OA
BRANCH  12  13
ATOM     13  C   UNL     1       4.755   4.380  17.597  0.00  0.00    +0.000 A 
ATOM     14  C   UNL     1       4.783   4.196  16.213  0.00  0.00    +0.000 A 
ATOM     15  C   UNL     1       5.993   4.250  15.521  0.00  0.00    +0.000 A 
ATOM     16  C   UNL     1       7.181   4.488  16.212  0.00  0.00    +0.000 A 
ATOM     17  C   UNL     1       7.155   4.706  17.588  0.00  0.00    +0.000 A 
ATOM     18  C   UNL     1       5.941   4.685  18.275  0.00  0.00    +0.000 A 
ENDBRANCH  12  13
ENDBRANCH   9  12
ENDBRANCH   4   6
BRANCH   1  23
ATOM     19  C   UNL     1      -0.212  12.933  20.324  0.00  0.00    +0.000 A 
ATOM     20  C   UNL     1      -1.261  13.919  20.324  0.00  0.00    +0.000 A 
ATOM     21  C   UNL     1      -2.374  13.551  21.044  0.00  0.00    +0.000 A 
ATOM     22  S   UNL     1      -2.137  12.023  21.779  0.00  0.00    +0.000 S 
ATOM     23  C   UNL     1      -0.591  11.821  21.067  0.00  0.00    +0.000 A 
BRANCH  19  25
ATOM     24  C   UNL     1       0.992  14.330  18.613  0.00  0.00    +0.000 C 
ATOM     25  C   UNL     1       1.108  13.177  19.612  0.00  0.00    +0.000 C 
ATOM     26  C   UNL     1       2.241  13.427  20.615  0.00  0.00    +0.000 C 
ENDBRANCH  19  25
BRANCH  21  27
ATOM     27  C   UNL     1      -3.656  14.311  21.268  0.00  0.00    +0.000 C 
BRANCH  27  28
ATOM     28  N   UNL     1      -4.593  13.633  22.198  0.00  0.00    +0.000 NA
ATOM     29  C   UNL     1      -5.315  14.621  23.034  0.00  0.00    +0.000 C 
ATOM     30  C   UNL     1      -6.645  13.957  22.631  0.00  0.00    +0.000 C 
ATOM     31  C   UNL     1      -5.850  13.323  21.475  0.00  0.00    +0.000 C 
BRANCH  30  32
ATOM     32  C   UNL     1      -7.330  13.030  23.657  0.00  0.00    +0.000 C 
ATOM     33  O   UNL     1      -7.898  13.413  24.679  0.00  0.00    +0.000 OA
BRANCH  32  34
ATOM     34  O   UNL     1      -7.283  11.705  23.354  0.00  0.00    +0.000 OA
ATOM     35  H   UNL     1      -8.134  11.377  22.993  0.00  0.00    +0.000 HD
ENDBRANCH  32  34
ENDBRANCH  30  32
ENDBRANCH  27  28
ENDBRANCH  21  27
ENDBRANCH   1  23
TORSDOF 9
ENDMDL
MODEL 8
REMARK VINA RESULT:      -8.1      3.868     11.393
REMARK  Name = 
REMARK  11 active torsions:
REMARK  status: ('A' for Active; 'I' for Inactive)
REMARK    1  A    between atoms: C_1  and  C_2
REMARK    2  A    between atoms: C_2  and  C_3
REMARK    3  A    between atoms: C_2  and  C_4
REMARK    4  A    between atoms: C_6  and  C_7
REMARK    5  A    between atoms: C_7  and  N_8
REMARK    6  A    between atoms: C_10  and  C_11
REMARK    7  A    between atoms: C_11  and  O_13
REMARK    8  A    between atoms: C_16  and  C_17
REMARK    9  A    between atoms: C_20  and  C_21
REMARK   10  A    between atoms: C_24  and  O_25
REMARK   11  A    between atoms: O_25  and  C_26
REMARK                            x       y       z     vdW  Elec       q    Type
REMARK                         _______ _______ _______ _____ _____    ______ ____
ROOT
ATOM      1  C   UNL     1       1.361   9.772  18.953  0.00  0.00    +0.000 A 
ATOM      2  N   UNL     1       1.158   8.975  20.015  0.00  0.00    +0.000 NA
ATOM      3  O   UNL     1       1.866   7.808  19.688  0.00  0.00    +0.000 OA
ATOM      4  C   UNL     1       2.382   8.005  18.439  0.00  0.00    +0.000 A 
ATOM      5  N   UNL     1       2.083   9.185  17.947  0.00  0.00    +0.000 NA
ENDROOT
BRANCH   4   6
ATOM      6  C   UNL     1       3.168   6.952  17.823  0.00  0.00    +0.000 A 
ATOM      7  C   UNL     1       2.901   5.589  18.002  0.00  0.00    +0.000 A 
ATOM      8  C   UNL     1       3.715   4.622  17.395  0.00  0.00    +0.000 A 
ATOM      9  C   UNL     1       4.797   5.003  16.598  0.00  0.00    +0.000 A 
ATOM     10  C   UNL     1       5.103   6.357  16.458  0.00  0.00    +0.000 A 
ATOM     11  C   UNL     1       4.276   7.320  17.038  0.00  0.00    +0.000 A 
BRANCH   9  12
ATOM     12  O   UNL     1       5.538   3.981  16.049  0.00  0.00    +0.000 OA
BRANCH  12  13
ATOM     13  C   UNL     1       5.999   4.087  14.755  0.00  0.00    +0.000 A 
ATOM     14  C   UNL     1       7.165   4.835  14.578  0.00  0.00    +0.000 A 
ATOM     15  C   UNL     1       7.706   5.002  13.303  0.00  0.00    +0.000 A 
ATOM     16  C   UNL     1       7.081   4.421  12.199  0.00  0.00    +0.000 A 
ATOM     17  C   UNL     1       5.936   3.646  12.375  0.00  0.00    +0.000 A 
ATOM     18  C   UNL     1       5.415   3.452  13.654  0.00  0.00    +0.000 A 
ENDBRANCH  12  13
ENDBRANCH   9  12
ENDBRANCH   4   6
BRANCH   1  23
ATOM     19  C   UNL     1      -0.472  11.556  18.657  0.00  0.00    +0.000 A 
ATOM     20  C   UNL     1      -0.595  12.991  18.634  0.00  0.00    +0.000 A 
ATOM     21  C   UNL     1       0.600  13.656  18.783  0.00  0.00    +0.000 A 
ATOM     22  S   UNL     1       1.897  12.545  18.897  0.00  0.00    +0.000 S 
ATOM     23  C   UNL     1       0.855  11.186  18.832  0.00  0.00    +0.000 A 
BRANCH  19  25
ATOM     24  C   UNL     1      -2.985  11.435  18.627  0.00  0.00    +0.000 C 
ATOM     25  C   UNL     1      -1.680  10.652  18.470  0.00  0.00    +0.000 C 
ATOM     26  C   UNL     1      -1.627   9.929  17.120  0.00  0.00    +0.000 C 
ENDBRANCH  19  25
BRANCH  21  27
ATOM     27  C   UNL     1       0.865  15.139  18.812  0.00  0.00    +0.000 C 
BRANCH  27  28
ATOM     28  N   UNL     1       2.217  15.491  19.313  0.00  0.00    +0.000 NA
ATOM     29  C   UNL     1       2.758  16.668  18.593  0.00  0.00    +0.000 C 
ATOM     30  C   UNL     1       3.060  17.331  19.950  0.00  0.00    +0.000 C 
ATOM     31  C   UNL     1       2.077  16.306  20.544  0.00  0.00    +0.000 C 
BRANCH  30  32
ATOM     32  C   UNL     1       4.521  17.333  20.445  0.00  0.00    +0.000 C 
ATOM     33  O   UNL     1       5.002  16.503  21.216  0.00  0.00    +0.000 OA
BRANCH  32  34
ATOM     34  O   UNL     1       5.291  18.341  19.955  0.00  0.00    +0.000 OA
ATOM     35  H   UNL     1       4.947  19.225  20.203  0.00  0.00    +0.000 HD
ENDBRANCH  32  34
ENDBRANCH  30  32
ENDBRANCH  27  28
ENDBRANCH  21  27
ENDBRANCH   1  23
TORSDOF 9
ENDMDL
MODEL 9
REMARK VINA RESULT:      -8.1      0.525      1.376
REMARK  Name = 
REMARK  11 active torsions:
REMARK  status: ('A' for Active; 'I' for Inactive)
REMARK    1  A    between atoms: C_1  and  C_2
REMARK    2  A    between atoms: C_2  and  C_3
REMARK    3  A    between atoms: C_2  and  C_4
REMARK    4  A    between atoms: C_6  and  C_7
REMARK    5  A    between atoms: C_7  and  N_8
REMARK    6  A    between atoms: C_10  and  C_11
REMARK    7  A    between atoms: C_11  and  O_13
REMARK    8  A    between atoms: C_16  and  C_17
REMARK    9  A    between atoms: C_20  and  C_21
REMARK   10  A    between atoms: C_24  and  O_25
REMARK   11  A    between atoms: O_25  and  C_26
REMARK                            x       y       z     vdW  Elec       q    Type
REMARK                         _______ _______ _______ _____ _____    ______ ____
ROOT
ATOM      1  C   UNL     1       2.385   7.902  18.517  0.00  0.00    +0.000 A 
ATOM      2  N   UNL     1       1.849   8.641  17.532  0.00  0.00    +0.000 NA
ATOM      3  O   UNL     1       1.056   9.574  18.217  0.00  0.00    +0.000 OA
ATOM      4  C   UNL     1       1.158   9.269  19.544  0.00  0.00    +0.000 A 
ATOM      5  N   UNL     1       1.947   8.243  19.770  0.00  0.00    +0.000 NA
ENDROOT
BRANCH   4   6
ATOM      6  C   UNL     1       0.431  10.068  20.514  0.00  0.00    +0.000 A 
ATOM      7  C   UNL     1      -0.144   9.532  21.674  0.00  0.00    +0.000 A 
ATOM      8  C   UNL     1      -0.853  10.357  22.558  0.00  0.00    +0.000 A 
ATOM      9  C   UNL     1      -0.991  11.723  22.300  0.00  0.00    +0.000 A 
ATOM     10  C   UNL     1      -0.468  12.255  21.121  0.00  0.00    +0.000 A 
ATOM     11  C   UNL     1       0.262  11.440  20.255  0.00  0.00    +0.000 A 
BRANCH   9  12
ATOM     12  O   UNL     1      -1.706  12.448  23.225  0.00  0.00    +0.000 OA
BRANCH  12  13
ATOM     13  C   UNL     1      -3.065  12.609  23.069  0.00  0.00    +0.000 A 
ATOM     14  C   UNL     1      -3.828  12.559  24.238  0.00  0.00    +0.000 A 
ATOM     15  C   UNL     1      -5.214  12.707  24.179  0.00  0.00    +0.000 A 
ATOM     16  C   UNL     1      -5.843  12.907  22.950  0.00  0.00    +0.000 A 
ATOM     17  C   UNL     1      -5.082  12.992  21.785  0.00  0.00    +0.000 A 
ATOM     18  C   UNL     1      -3.694  12.876  21.848  0.00  0.00    +0.000 A 
ENDBRANCH  12  13
ENDBRANCH   9  12
ENDBRANCH   4   6
BRANCH   1  23
ATOM     19  C   UNL     1       3.077   5.429  18.318  0.00  0.00    +0.000 A 
ATOM     20  C   UNL     1       4.257   4.653  18.037  0.00  0.00    +0.000 A 
ATOM     21  C   UNL     1       5.388   5.409  17.833  0.00  0.00    +0.000 A 
ATOM     22  S   UNL     1       5.043   7.074  18.036  0.00  0.00    +0.000 S 
ATOM     23  C   UNL     1       3.375   6.786  18.311  0.00  0.00    +0.000 A 
BRANCH  19  25
ATOM     24  C   UNL     1       1.619   3.427  17.879  0.00  0.00    +0.000 C 
ATOM     25  C   UNL     1       1.740   4.767  18.607  0.00  0.00    +0.000 C 
ATOM     26  C   UNL     1       1.519   4.598  20.115  0.00  0.00    +0.000 C 
ENDBRANCH  19  25
BRANCH  21  27
ATOM     27  C   UNL     1       6.790   4.958  17.517  0.00  0.00    +0.000 C 
BRANCH  27  28
ATOM     28  N   UNL     1       7.068   4.855  16.063  0.00  0.00    +0.000 NA
ATOM     29  C   UNL     1       6.671   3.526  15.542  0.00  0.00    +0.000 C 
ATOM     30  C   UNL     1       5.868   4.227  14.430  0.00  0.00    +0.000 C 
ATOM     31  C   UNL     1       5.954   5.484  15.314  0.00  0.00    +0.000 C 
BRANCH  30  32
ATOM     32  C   UNL     1       6.480   4.272  13.014  0.00  0.00    +0.000 C 
ATOM     33  O   UNL     1       6.098   3.592  12.062  0.00  0.00    +0.000 OA
BRANCH  32  34
ATOM     34  O   UNL     1       7.506   5.150  12.860  0.00  0.00    +0.000 OA
ATOM     35  H   UNL     1       7.262   6.058  13.139  0.00  0.00    +0.000 HD
ENDBRANCH  32  34
ENDBRANCH  30  32
ENDBRANCH  27  28
ENDBRANCH  21  27
ENDBRANCH   1  23
TORSDOF 9
ENDMDL
