MODEL 1
REMARK VINA RESULT:      -9.4      0.000      0.000
REMARK  Name = 
REMARK  4 active torsions:
REMARK  status: ('A' for Active; 'I' for Inactive)
REMARK    1  A    between atoms: C_4  and  C_5
REMARK    2  A    between atoms: C_10  and  O_11
REMARK    3  A    between atoms: O_11  and  C_12
REMARK    4  A    between atoms: C_15  and  N_16
REMARK                            x       y       z     vdW  Elec       q    Type
REMARK                         _______ _______ _______ _____ _____    ______ ____
ROOT
ATOM      1  C   UNL     1       2.221   7.493  19.335  0.00  0.00    +0.000 A 
ATOM      2  C   UNL     1       1.542   8.192  20.330  0.00  0.00    +0.000 A 
ATOM      3  C   UNL     1       0.916   9.415  20.038  0.00  0.00    +0.000 A 
ATOM      4  C   UNL     1       0.975   9.992  18.754  0.00  0.00    +0.000 A 
ATOM      5  C   UNL     1       1.600   9.240  17.758  0.00  0.00    +0.000 A 
ATOM      6  C   UNL     1       2.241   8.024  18.046  0.00  0.00    +0.000 A 
ENDROOT
BRANCH   4   7
ATOM      7  N   UNL     1       0.392  11.268  18.572  0.00  0.00    +0.000 N 
ATOM      8  C   UNL     1       0.937  12.514  18.651  0.00  0.00    +0.000 A 
ATOM      9  N   UNL     1       0.202  13.519  19.087  0.00  0.00    +0.000 NA
ATOM     10  C   UNL     1       0.921  14.704  19.098  0.00  0.00    +0.000 A 
ATOM     11  C   UNL     1       0.452  15.962  19.533  0.00  0.00    +0.000 A 
ATOM     12  C   UNL     1       1.293  17.079  19.468  0.00  0.00    +0.000 A 
ATOM     13  C   UNL     1       2.590  16.959  18.979  0.00  0.00    +0.000 A 
ATOM     14  C   UNL     1       3.079  15.721  18.550  0.00  0.00    +0.000 A 
ATOM     15  C   UNL     1       2.225  14.607  18.622  0.00  0.00    +0.000 A 
ATOM     16  S   UNL     1       2.526  12.981  18.179  0.00  0.00    +0.000 S 
ATOM     17  H   UNL     1      -0.577  11.283  18.877  0.00  0.00    +0.000 HD
ENDBRANCH   4   7
BRANCH   1  18
ATOM     18  O   UNL     1       2.904   6.359  19.731  0.00  0.00    +0.000 OA
BRANCH  18  24
ATOM     19  C   UNL     1       3.951   4.829  18.183  0.00  0.00    +0.000 A 
ATOM     20  C   UNL     1       3.766   3.665  17.405  0.00  0.00    +0.000 A 
ATOM     21  C   UNL     1       2.578   2.940  17.445  0.00  0.00    +0.000 A 
ATOM     22  C   UNL     1       1.571   3.391  18.269  0.00  0.00    +0.000 A 
ATOM     23  N   UNL     1       1.672   4.506  19.012  0.00  0.00    +0.000 NA
ATOM     24  C   UNL     1       2.828   5.221  18.938  0.00  0.00    +0.000 A 
BRANCH  19  28
ATOM     25  F   UNL     1       8.526   5.503  19.754  0.00  0.00    +0.000 F 
ATOM     26  C   UNL     1       7.528   5.865  18.937  0.00  0.00    +0.000 A 
ATOM     27  C   UNL     1       6.326   5.169  19.019  0.00  0.00    +0.000 A 
ATOM     28  C   UNL     1       5.274   5.513  18.167  0.00  0.00    +0.000 A 
ATOM     29  C   UNL     1       5.520   6.580  17.278  0.00  0.00    +0.000 A 
ATOM     30  C   UNL     1       6.750   7.226  17.282  0.00  0.00    +0.000 A 
ATOM     31  N   UNL     1       7.761   6.889  18.094  0.00  0.00    +0.000 NA
ENDBRANCH  19  28
ENDBRANCH  18  24
ENDBRANCH   1  18
TORSDOF 4
ENDMDL
MODEL 2
REMARK VINA RESULT:      -9.3      1.185      1.537
REMARK  Name = 
REMARK  4 active torsions:
REMARK  status: ('A' for Active; 'I' for Inactive)
REMARK    1  A    between atoms: C_4  and  C_5
REMARK    2  A    between atoms: C_10  and  O_11
REMARK    3  A    between atoms: O_11  and  C_12
REMARK    4  A    between atoms: C_15  and  N_16
REMARK                            x       y       z     vdW  Elec       q    Type
REMARK                         _______ _______ _______ _____ _____    ______ ____
ROOT
ATOM      1  C   UNL     1       2.687   7.100  19.442  0.00  0.00    +0.000 A 
ATOM      2  C   UNL     1       2.806   7.673  18.178  0.00  0.00    +0.000 A 
ATOM      3  C   UNL     1       2.105   8.848  17.863  0.00  0.00    +0.000 A 
ATOM      4  C   UNL     1       1.242   9.469  18.787  0.00  0.00    +0.000 A 
ATOM      5  C   UNL     1       1.194   8.917  20.068  0.00  0.00    +0.000 A 
ATOM      6  C   UNL     1       1.880   7.733  20.387  0.00  0.00    +0.000 A 
ENDROOT
BRANCH   4   7
ATOM      7  N   UNL     1       0.508  10.599  18.355  0.00  0.00    +0.000 N 
ATOM      8  C   UNL     1       0.767  11.930  18.482  0.00  0.00    +0.000 A 
ATOM      9  N   UNL     1      -0.234  12.777  18.623  0.00  0.00    +0.000 NA
ATOM     10  C   UNL     1       0.220  14.082  18.736  0.00  0.00    +0.000 A 
ATOM     11  C   UNL     1      -0.576  15.231  18.928  0.00  0.00    +0.000 A 
ATOM     12  C   UNL     1       0.026  16.492  19.006  0.00  0.00    +0.000 A 
ATOM     13  C   UNL     1       1.407  16.622  18.898  0.00  0.00    +0.000 A 
ATOM     14  C   UNL     1       2.218  15.497  18.715  0.00  0.00    +0.000 A 
ATOM     15  C   UNL     1       1.600  14.237  18.639  0.00  0.00    +0.000 A 
ATOM     16  S   UNL     1       2.309  12.694  18.422  0.00  0.00    +0.000 S 
ATOM     17  H   UNL     1      -0.493  10.427  18.384  0.00  0.00    +0.000 HD
ENDBRANCH   4   7
BRANCH   1  18
ATOM     18  O   UNL     1       3.318   5.885  19.632  0.00  0.00    +0.000 OA
BRANCH  18  24
ATOM     19  C   UNL     1       3.394   4.068  18.042  0.00  0.00    +0.000 A 
ATOM     20  C   UNL     1       2.722   2.923  17.562  0.00  0.00    +0.000 A 
ATOM     21  C   UNL     1       1.538   2.474  18.142  0.00  0.00    +0.000 A 
ATOM     22  C   UNL     1       1.027   3.183  19.206  0.00  0.00    +0.000 A 
ATOM     23  N   UNL     1       1.602   4.296  19.692  0.00  0.00    +0.000 NA
ATOM     24  C   UNL     1       2.743   4.740  19.095  0.00  0.00    +0.000 A 
BRANCH  19  28
ATOM     25  F   UNL     1       8.268   4.395  18.059  0.00  0.00    +0.000 F 
ATOM     26  C   UNL     1       7.103   4.628  17.437  0.00  0.00    +0.000 A 
ATOM     27  C   UNL     1       5.930   4.236  18.073  0.00  0.00    +0.000 A 
ATOM     28  C   UNL     1       4.702   4.450  17.440  0.00  0.00    +0.000 A 
ATOM     29  C   UNL     1       4.756   5.079  16.179  0.00  0.00    +0.000 A 
ATOM     30  C   UNL     1       5.978   5.449  15.632  0.00  0.00    +0.000 A 
ATOM     31  N   UNL     1       7.156   5.235  16.236  0.00  0.00    +0.000 NA
ENDBRANCH  19  28
ENDBRANCH  18  24
ENDBRANCH   1  18
TORSDOF 4
ENDMDL
MODEL 3
REMARK VINA RESULT:      -9.2      0.506      1.028
REMARK  Name = 
REMARK  4 active torsions:
REMARK  status: ('A' for Active; 'I' for Inactive)
REMARK    1  A    between atoms: C_4  and  C_5
REMARK    2  A    between atoms: C_10  and  O_11
REMARK    3  A    between atoms: O_11  and  C_12
REMARK    4  A    between atoms: C_15  and  N_16
REMARK                            x       y       z     vdW  Elec       q    Type
REMARK                         _______ _______ _______ _____ _____    ______ ____
ROOT
ATOM      1  C   UNL     1       2.337   7.386  19.693  0.00  0.00    +0.000 A 
ATOM      2  C   UNL     1       2.483   7.905  18.410  0.00  0.00    +0.000 A 
ATOM      3  C   UNL     1       1.839   9.100  18.050  0.00  0.00    +0.000 A 
ATOM      4  C   UNL     1       1.006   9.795  18.949  0.00  0.00    +0.000 A 
ATOM      5  C   UNL     1       0.932   9.293  20.249  0.00  0.00    +0.000 A 
ATOM      6  C   UNL     1       1.561   8.091  20.612  0.00  0.00    +0.000 A 
ENDROOT
BRANCH   4   7
ATOM      7  N   UNL     1       0.327  10.941  18.475  0.00  0.00    +0.000 N 
ATOM      8  C   UNL     1       0.643  12.264  18.563  0.00  0.00    +0.000 A 
ATOM      9  N   UNL     1      -0.321  13.158  18.667  0.00  0.00    +0.000 NA
ATOM     10  C   UNL     1       0.188  14.444  18.745  0.00  0.00    +0.000 A 
ATOM     11  C   UNL     1      -0.559  15.632  18.894  0.00  0.00    +0.000 A 
ATOM     12  C   UNL     1       0.097  16.867  18.940  0.00  0.00    +0.000 A 
ATOM     13  C   UNL     1       1.484  16.934  18.844  0.00  0.00    +0.000 A 
ATOM     14  C   UNL     1       2.246  15.770  18.705  0.00  0.00    +0.000 A 
ATOM     15  C   UNL     1       1.574  14.536  18.660  0.00  0.00    +0.000 A 
ATOM     16  S   UNL     1       2.218  12.957  18.499  0.00  0.00    +0.000 S 
ATOM     17  H   UNL     1      -0.681  10.815  18.497  0.00  0.00    +0.000 HD
ENDBRANCH   4   7
BRANCH   1  18
ATOM     18  O   UNL     1       2.910   6.150  19.929  0.00  0.00    +0.000 OA
BRANCH  18  24
ATOM     19  C   UNL     1       3.850   4.842  18.128  0.00  0.00    +0.000 A 
ATOM     20  C   UNL     1       3.596   3.820  17.188  0.00  0.00    +0.000 A 
ATOM     21  C   UNL     1       2.381   3.140  17.157  0.00  0.00    +0.000 A 
ATOM     22  C   UNL     1       1.416   3.493  18.074  0.00  0.00    +0.000 A 
ATOM     23  N   UNL     1       1.584   4.475  18.976  0.00  0.00    +0.000 NA
ATOM     24  C   UNL     1       2.766   5.152  18.974  0.00  0.00    +0.000 A 
BRANCH  19  28
ATOM     25  F   UNL     1       8.320   5.441  20.004  0.00  0.00    +0.000 F 
ATOM     26  C   UNL     1       7.401   5.787  19.091  0.00  0.00    +0.000 A 
ATOM     27  C   UNL     1       6.169   5.144  19.123  0.00  0.00    +0.000 A 
ATOM     28  C   UNL     1       5.198   5.472  18.173  0.00  0.00    +0.000 A 
ATOM     29  C   UNL     1       5.555   6.470  17.242  0.00  0.00    +0.000 A 
ATOM     30  C   UNL     1       6.808   7.068  17.301  0.00  0.00    +0.000 A 
ATOM     31  N   UNL     1       7.741   6.745  18.207  0.00  0.00    +0.000 NA
ENDBRANCH  19  28
ENDBRANCH  18  24
ENDBRANCH   1  18
TORSDOF 4
ENDMDL
MODEL 4
REMARK VINA RESULT:      -9.2      0.968      1.074
REMARK  Name = 
REMARK  4 active torsions:
REMARK  status: ('A' for Active; 'I' for Inactive)
REMARK    1  A    between atoms: C_4  and  C_5
REMARK    2  A    between atoms: C_10  and  O_11
REMARK    3  A    between atoms: O_11  and  C_12
REMARK    4  A    between atoms: C_15  and  N_16
REMARK                            x       y       z     vdW  Elec       q    Type
REMARK                         _______ _______ _______ _____ _____    ______ ____
ROOT
ATOM      1  C   UNL     1       2.484   7.107  19.320  0.00  0.00    +0.000 A 
ATOM      2  C   UNL     1       1.762   7.771  20.308  0.00  0.00    +0.000 A 
ATOM      3  C   UNL     1       1.113   8.982  20.020  0.00  0.00    +0.000 A 
ATOM      4  C   UNL     1       1.189   9.582  18.748  0.00  0.00    +0.000 A 
ATOM      5  C   UNL     1       1.859   8.864  17.756  0.00  0.00    +0.000 A 
ATOM      6  C   UNL     1       2.524   7.659  18.040  0.00  0.00    +0.000 A 
ENDROOT
BRANCH   4   7
ATOM      7  N   UNL     1       0.579  10.846  18.571  0.00  0.00    +0.000 N 
ATOM      8  C   UNL     1       1.108  12.101  18.597  0.00  0.00    +0.000 A 
ATOM      9  N   UNL     1       0.382  13.104  19.051  0.00  0.00    +0.000 NA
ATOM     10  C   UNL     1       1.082  14.299  19.001  0.00  0.00    +0.000 A 
ATOM     11  C   UNL     1       0.618  15.559  19.435  0.00  0.00    +0.000 A 
ATOM     12  C   UNL     1       1.437  16.687  19.304  0.00  0.00    +0.000 A 
ATOM     13  C   UNL     1       2.709  16.574  18.751  0.00  0.00    +0.000 A 
ATOM     14  C   UNL     1       3.194  15.335  18.321  0.00  0.00    +0.000 A 
ATOM     15  C   UNL     1       2.361  14.211  18.459  0.00  0.00    +0.000 A 
ATOM     16  S   UNL     1       2.663  12.580  18.033  0.00  0.00    +0.000 S 
ATOM     17  H   UNL     1      -0.373  10.854  18.926  0.00  0.00    +0.000 HD
ENDBRANCH   4   7
BRANCH   1  18
ATOM     18  O   UNL     1       3.186   5.984  19.715  0.00  0.00    +0.000 OA
BRANCH  18  24
ATOM     19  C   UNL     1       3.556   3.956  18.455  0.00  0.00    +0.000 A 
ATOM     20  C   UNL     1       3.007   2.709  18.084  0.00  0.00    +0.000 A 
ATOM     21  C   UNL     1       1.779   2.275  18.577  0.00  0.00    +0.000 A 
ATOM     22  C   UNL     1       1.099   3.102  19.444  0.00  0.00    +0.000 A 
ATOM     23  N   UNL     1       1.553   4.312  19.814  0.00  0.00    +0.000 NA
ATOM     24  C   UNL     1       2.740   4.735  19.299  0.00  0.00    +0.000 A 
BRANCH  19  28
ATOM     25  F   UNL     1       8.113   5.599  19.082  0.00  0.00    +0.000 F 
ATOM     26  C   UNL     1       7.159   5.146  18.257  0.00  0.00    +0.000 A 
ATOM     27  C   UNL     1       5.921   4.820  18.801  0.00  0.00    +0.000 A 
ATOM     28  C   UNL     1       4.913   4.328  17.967  0.00  0.00    +0.000 A 
ATOM     29  C   UNL     1       5.240   4.214  16.600  0.00  0.00    +0.000 A 
ATOM     30  C   UNL     1       6.502   4.581  16.148  0.00  0.00    +0.000 A 
ATOM     31  N   UNL     1       7.470   5.044  16.951  0.00  0.00    +0.000 NA
ENDBRANCH  19  28
ENDBRANCH  18  24
ENDBRANCH   1  18
TORSDOF 4
ENDMDL
MODEL 5
REMARK VINA RESULT:      -9.2      1.542      2.007
REMARK  Name = 
REMARK  4 active torsions:
REMARK  status: ('A' for Active; 'I' for Inactive)
REMARK    1  A    between atoms: C_4  and  C_5
REMARK    2  A    between atoms: C_10  and  O_11
REMARK    3  A    between atoms: O_11  and  C_12
REMARK    4  A    between atoms: C_15  and  N_16
REMARK                            x       y       z     vdW  Elec       q    Type
REMARK                         _______ _______ _______ _____ _____    ______ ____
ROOT
ATOM      1  C   UNL     1       2.635   7.052  19.503  0.00  0.00    +0.000 A 
ATOM      2  C   UNL     1       2.733   7.600  18.227  0.00  0.00    +0.000 A 
ATOM      3  C   UNL     1       2.038   8.777  17.905  0.00  0.00    +0.000 A 
ATOM      4  C   UNL     1       1.202   9.425  18.835  0.00  0.00    +0.000 A 
ATOM      5  C   UNL     1       1.175   8.897  20.127  0.00  0.00    +0.000 A 
ATOM      6  C   UNL     1       1.855   7.711  20.453  0.00  0.00    +0.000 A 
ENDROOT
BRANCH   4   7
ATOM      7  N   UNL     1       0.472  10.555  18.398  0.00  0.00    +0.000 N 
ATOM      8  C   UNL     1       0.752  11.886  18.490  0.00  0.00    +0.000 A 
ATOM      9  N   UNL     1      -0.234  12.749  18.639  0.00  0.00    +0.000 NA
ATOM     10  C   UNL     1       0.239  14.049  18.712  0.00  0.00    +0.000 A 
ATOM     11  C   UNL     1      -0.538  15.212  18.900  0.00  0.00    +0.000 A 
ATOM     12  C   UNL     1       0.082  16.467  18.936  0.00  0.00    +0.000 A 
ATOM     13  C   UNL     1       1.462  16.576  18.790  0.00  0.00    +0.000 A 
ATOM     14  C   UNL     1       2.254  15.437  18.611  0.00  0.00    +0.000 A 
ATOM     15  C   UNL     1       1.618  14.184  18.577  0.00  0.00    +0.000 A 
ATOM     16  S   UNL     1       2.302  12.627  18.375  0.00  0.00    +0.000 S 
ATOM     17  H   UNL     1      -0.530  10.398  18.456  0.00  0.00    +0.000 HD
ENDBRANCH   4   7
BRANCH   1  18
ATOM     18  O   UNL     1       3.256   5.834  19.702  0.00  0.00    +0.000 OA
BRANCH  18  24
ATOM     19  C   UNL     1       3.338   3.984  18.150  0.00  0.00    +0.000 A 
ATOM     20  C   UNL     1       2.655   2.843  17.674  0.00  0.00    +0.000 A 
ATOM     21  C   UNL     1       1.448   2.428  18.231  0.00  0.00    +0.000 A 
ATOM     22  C   UNL     1       0.924   3.169  19.268  0.00  0.00    +0.000 A 
ATOM     23  N   UNL     1       1.508   4.280  19.747  0.00  0.00    +0.000 NA
ATOM     24  C   UNL     1       2.672   4.690  19.172  0.00  0.00    +0.000 A 
BRANCH  19  28
ATOM     25  F   UNL     1       6.332   5.100  14.455  0.00  0.00    +0.000 F 
ATOM     26  C   UNL     1       6.160   4.869  15.764  0.00  0.00    +0.000 A 
ATOM     27  C   UNL     1       4.881   4.556  16.213  0.00  0.00    +0.000 A 
ATOM     28  C   UNL     1       4.668   4.329  17.576  0.00  0.00    +0.000 A 
ATOM     29  C   UNL     1       5.805   4.423  18.405  0.00  0.00    +0.000 A 
ATOM     30  C   UNL     1       7.047   4.725  17.860  0.00  0.00    +0.000 A 
ATOM     31  N   UNL     1       7.248   4.952  16.554  0.00  0.00    +0.000 NA
ENDBRANCH  19  28
ENDBRANCH  18  24
ENDBRANCH   1  18
TORSDOF 4
ENDMDL
MODEL 6
REMARK VINA RESULT:      -9.2      0.775      1.149
REMARK  Name = 
REMARK  4 active torsions:
REMARK  status: ('A' for Active; 'I' for Inactive)
REMARK    1  A    between atoms: C_4  and  C_5
REMARK    2  A    between atoms: C_10  and  O_11
REMARK    3  A    between atoms: O_11  and  C_12
REMARK    4  A    between atoms: C_15  and  N_16
REMARK                            x       y       z     vdW  Elec       q    Type
REMARK                         _______ _______ _______ _____ _____    ______ ____
ROOT
ATOM      1  C   UNL     1       2.271   7.516  19.308  0.00  0.00    +0.000 A 
ATOM      2  C   UNL     1       1.543   8.169  20.298  0.00  0.00    +0.000 A 
ATOM      3  C   UNL     1       0.906   9.390  20.022  0.00  0.00    +0.000 A 
ATOM      4  C   UNL     1       1.002  10.009  18.760  0.00  0.00    +0.000 A 
ATOM      5  C   UNL     1       1.677   9.302  17.765  0.00  0.00    +0.000 A 
ATOM      6  C   UNL     1       2.330   8.087  18.038  0.00  0.00    +0.000 A 
ENDROOT
BRANCH   4   7
ATOM      7  N   UNL     1       0.403  11.280  18.596  0.00  0.00    +0.000 N 
ATOM      8  C   UNL     1       0.936  12.532  18.669  0.00  0.00    +0.000 A 
ATOM      9  N   UNL     1       0.201  13.527  19.126  0.00  0.00    +0.000 NA
ATOM     10  C   UNL     1       0.908  14.719  19.127  0.00  0.00    +0.000 A 
ATOM     11  C   UNL     1       0.437  15.970  19.577  0.00  0.00    +0.000 A 
ATOM     12  C   UNL     1       1.264  17.097  19.499  0.00  0.00    +0.000 A 
ATOM     13  C   UNL     1       2.552  16.991  18.982  0.00  0.00    +0.000 A 
ATOM     14  C   UNL     1       3.044  15.760  18.536  0.00  0.00    +0.000 A 
ATOM     15  C   UNL     1       2.202  14.638  18.621  0.00  0.00    +0.000 A 
ATOM     16  S   UNL     1       2.510  13.016  18.165  0.00  0.00    +0.000 S 
ATOM     17  H   UNL     1      -0.560  11.285  18.922  0.00  0.00    +0.000 HD
ENDBRANCH   4   7
BRANCH   1  18
ATOM     18  O   UNL     1       2.960   6.382  19.694  0.00  0.00    +0.000 OA
BRANCH  18  24
ATOM     19  C   UNL     1       4.116   4.883  18.192  0.00  0.00    +0.000 A 
ATOM     20  C   UNL     1       3.984   3.746  17.364  0.00  0.00    +0.000 A 
ATOM     21  C   UNL     1       2.787   3.039  17.280  0.00  0.00    +0.000 A 
ATOM     22  C   UNL     1       1.719   3.481  18.029  0.00  0.00    +0.000 A 
ATOM     23  N   UNL     1       1.771   4.570  18.813  0.00  0.00    +0.000 NA
ATOM     24  C   UNL     1       2.938   5.269  18.861  0.00  0.00    +0.000 A 
BRANCH  19  28
ATOM     25  F   UNL     1       7.476   8.173  16.873  0.00  0.00    +0.000 F 
ATOM     26  C   UNL     1       7.116   7.155  17.666  0.00  0.00    +0.000 A 
ATOM     27  C   UNL     1       5.854   6.597  17.486  0.00  0.00    +0.000 A 
ATOM     28  C   UNL     1       5.444   5.546  18.311  0.00  0.00    +0.000 A 
ATOM     29  C   UNL     1       6.378   5.115  19.275  0.00  0.00    +0.000 A 
ATOM     30  C   UNL     1       7.623   5.726  19.368  0.00  0.00    +0.000 A 
ATOM     31  N   UNL     1       8.011   6.740  18.582  0.00  0.00    +0.000 NA
ENDBRANCH  19  28
ENDBRANCH  18  24
ENDBRANCH   1  18
TORSDOF 4
ENDMDL
MODEL 7
REMARK VINA RESULT:      -9.2      1.426      1.746
REMARK  Name = 
REMARK  4 active torsions:
REMARK  status: ('A' for Active; 'I' for Inactive)
REMARK    1  A    between atoms: C_4  and  C_5
REMARK    2  A    between atoms: C_10  and  O_11
REMARK    3  A    between atoms: O_11  and  C_12
REMARK    4  A    between atoms: C_15  and  N_16
REMARK                            x       y       z     vdW  Elec       q    Type
REMARK                         _______ _______ _______ _____ _____    ______ ____
ROOT
ATOM      1  C   UNL     1       2.253   7.394  19.468  0.00  0.00    +0.000 A 
ATOM      2  C   UNL     1       1.542   8.143  20.401  0.00  0.00    +0.000 A 
ATOM      3  C   UNL     1       0.903   9.333  20.019  0.00  0.00    +0.000 A 
ATOM      4  C   UNL     1       0.979   9.827  18.701  0.00  0.00    +0.000 A 
ATOM      5  C   UNL     1       1.637   9.024  17.768  0.00  0.00    +0.000 A 
ATOM      6  C   UNL     1       2.292   7.840  18.147  0.00  0.00    +0.000 A 
ENDROOT
BRANCH   4   7
ATOM      7  N   UNL     1       0.380  11.079  18.425  0.00  0.00    +0.000 N 
ATOM      8  C   UNL     1       0.869  12.345  18.544  0.00  0.00    +0.000 A 
ATOM      9  N   UNL     1       0.054  13.329  18.869  0.00  0.00    +0.000 NA
ATOM     10  C   UNL     1       0.725  14.539  18.942  0.00  0.00    +0.000 A 
ATOM     11  C   UNL     1       0.165  15.786  19.292  0.00  0.00    +0.000 A 
ATOM     12  C   UNL     1       0.969  16.932  19.306  0.00  0.00    +0.000 A 
ATOM     13  C   UNL     1       2.319  16.850  18.979  0.00  0.00    +0.000 A 
ATOM     14  C   UNL     1       2.898  15.625  18.636  0.00  0.00    +0.000 A 
ATOM     15  C   UNL     1       2.079  14.482  18.627  0.00  0.00    +0.000 A 
ATOM     16  S   UNL     1       2.486  12.861  18.256  0.00  0.00    +0.000 S 
ATOM     17  H   UNL     1      -0.618  11.064  18.611  0.00  0.00    +0.000 HD
ENDBRANCH   4   7
BRANCH   1  18
ATOM     18  O   UNL     1       2.946   6.300  19.950  0.00  0.00    +0.000 OA
BRANCH  18  24
ATOM     19  C   UNL     1       3.139   4.217  18.741  0.00  0.00    +0.000 A 
ATOM     20  C   UNL     1       2.561   2.946  18.528  0.00  0.00    +0.000 A 
ATOM     21  C   UNL     1       1.444   2.522  19.243  0.00  0.00    +0.000 A 
ATOM     22  C   UNL     1       0.905   3.383  20.174  0.00  0.00    +0.000 A 
ATOM     23  N   UNL     1       1.389   4.614  20.404  0.00  0.00    +0.000 NA
ATOM     24  C   UNL     1       2.463   5.027  19.675  0.00  0.00    +0.000 A 
BRANCH  19  28
ATOM     25  F   UNL     1       5.582   5.879  14.851  0.00  0.00    +0.000 F 
ATOM     26  C   UNL     1       5.605   5.389  16.099  0.00  0.00    +0.000 A 
ATOM     27  C   UNL     1       4.392   5.077  16.705  0.00  0.00    +0.000 A 
ATOM     28  C   UNL     1       4.385   4.581  18.011  0.00  0.00    +0.000 A 
ATOM     29  C   UNL     1       5.647   4.418  18.619  0.00  0.00    +0.000 A 
ATOM     30  C   UNL     1       6.806   4.742  17.925  0.00  0.00    +0.000 A 
ATOM     31  N   UNL     1       6.811   5.226  16.675  0.00  0.00    +0.000 NA
ENDBRANCH  19  28
ENDBRANCH  18  24
ENDBRANCH   1  18
TORSDOF 4
ENDMDL
MODEL 8
REMARK VINA RESULT:      -9.1      2.840      3.366
REMARK  Name = 
REMARK  4 active torsions:
REMARK  status: ('A' for Active; 'I' for Inactive)
REMARK    1  A    between atoms: C_4  and  C_5
REMARK    2  A    between atoms: C_10  and  O_11
REMARK    3  A    between atoms: O_11  and  C_12
REMARK    4  A    between atoms: C_15  and  N_16
REMARK                            x       y       z     vdW  Elec       q    Type
REMARK                         _______ _______ _______ _____ _____    ______ ____
ROOT
ATOM      1  C   UNL     1       2.551   7.015  19.208  0.00  0.00    +0.000 A 
ATOM      2  C   UNL     1       1.932   7.501  20.356  0.00  0.00    +0.000 A 
ATOM      3  C   UNL     1       1.216   8.709  20.320  0.00  0.00    +0.000 A 
ATOM      4  C   UNL     1       1.120   9.481  19.145  0.00  0.00    +0.000 A 
ATOM      5  C   UNL     1       1.688   8.939  17.991  0.00  0.00    +0.000 A 
ATOM      6  C   UNL     1       2.419   7.739  18.023  0.00  0.00    +0.000 A 
ENDROOT
BRANCH   4   7
ATOM      7  N   UNL     1       0.454  10.727  19.221  0.00  0.00    +0.000 N 
ATOM      8  C   UNL     1      -0.432  11.208  20.138  0.00  0.00    +0.000 A 
ATOM      9  N   UNL     1      -1.387  12.029  19.750  0.00  0.00    +0.000 NA
ATOM     10  C   UNL     1      -2.188  12.412  20.814  0.00  0.00    +0.000 A 
ATOM     11  C   UNL     1      -3.316  13.257  20.750  0.00  0.00    +0.000 A 
ATOM     12  C   UNL     1      -4.019  13.572  21.919  0.00  0.00    +0.000 A 
ATOM     13  C   UNL     1      -3.615  13.054  23.146  0.00  0.00    +0.000 A 
ATOM     14  C   UNL     1      -2.505  12.208  23.234  0.00  0.00    +0.000 A 
ATOM     15  C   UNL     1      -1.809  11.901  22.052  0.00  0.00    +0.000 A 
ATOM     16  S   UNL     1      -0.430  10.909  21.834  0.00  0.00    +0.000 S 
ATOM     17  H   UNL     1       0.247  11.096  18.298  0.00  0.00    +0.000 HD
ENDBRANCH   4   7
BRANCH   1  18
ATOM     18  O   UNL     1       3.329   5.883  19.356  0.00  0.00    +0.000 OA
BRANCH  18  24
ATOM     19  C   UNL     1       3.568   3.836  18.096  0.00  0.00    +0.000 A 
ATOM     20  C   UNL     1       2.949   2.617  17.742  0.00  0.00    +0.000 A 
ATOM     21  C   UNL     1       1.712   2.247  18.264  0.00  0.00    +0.000 A 
ATOM     22  C   UNL     1       1.095   3.110  19.143  0.00  0.00    +0.000 A 
ATOM     23  N   UNL     1       1.617   4.296  19.498  0.00  0.00    +0.000 NA
ATOM     24  C   UNL     1       2.812   4.657  18.955  0.00  0.00    +0.000 A 
BRANCH  19  28
ATOM     25  F   UNL     1       8.242   5.154  18.627  0.00  0.00    +0.000 F 
ATOM     26  C   UNL     1       7.234   4.796  17.819  0.00  0.00    +0.000 A 
ATOM     27  C   UNL     1       5.995   4.530  18.392  0.00  0.00    +0.000 A 
ATOM     28  C   UNL     1       4.931   4.137  17.575  0.00  0.00    +0.000 A 
ATOM     29  C   UNL     1       5.207   4.056  16.195  0.00  0.00    +0.000 A 
ATOM     30  C   UNL     1       6.475   4.357  15.714  0.00  0.00    +0.000 A 
ATOM     31  N   UNL     1       7.497   4.725  16.500  0.00  0.00    +0.000 NA
ENDBRANCH  19  28
ENDBRANCH  18  24
ENDBRANCH   1  18
TORSDOF 4
ENDMDL
MODEL 9
REMARK VINA RESULT:      -9.1      3.025      3.599
REMARK  Name = 
REMARK  4 active torsions:
REMARK  status: ('A' for Active; 'I' for Inactive)
REMARK    1  A    between atoms: C_4  and  C_5
REMARK    2  A    between atoms: C_10  and  O_11
REMARK    3  A    between atoms: O_11  and  C_12
REMARK    4  A    between atoms: C_15  and  N_16
REMARK                            x       y       z     vdW  Elec       q    Type
REMARK                         _______ _______ _______ _____ _____    ______ ____
ROOT
ATOM      1  C   UNL     1       2.571   7.094  19.141  0.00  0.00    +0.000 A 
ATOM      2  C   UNL     1       1.949   7.561  20.295  0.00  0.00    +0.000 A 
ATOM      3  C   UNL     1       1.212   8.756  20.272  0.00  0.00    +0.000 A 
ATOM      4  C   UNL     1       1.099   9.536  19.104  0.00  0.00    +0.000 A 
ATOM      5  C   UNL     1       1.671   9.013  17.943  0.00  0.00    +0.000 A 
ATOM      6  C   UNL     1       2.423   7.826  17.963  0.00  0.00    +0.000 A 
ENDROOT
BRANCH   4   7
ATOM      7  N   UNL     1       0.413  10.770  19.193  0.00  0.00    +0.000 N 
ATOM      8  C   UNL     1      -0.470  11.232  20.122  0.00  0.00    +0.000 A 
ATOM      9  N   UNL     1      -1.445  12.038  19.749  0.00  0.00    +0.000 NA
ATOM     10  C   UNL     1      -2.239  12.403  20.824  0.00  0.00    +0.000 A 
ATOM     11  C   UNL     1      -3.382  13.229  20.776  0.00  0.00    +0.000 A 
ATOM     12  C   UNL     1      -4.077  13.526  21.954  0.00  0.00    +0.000 A 
ATOM     13  C   UNL     1      -3.650  13.011  23.175  0.00  0.00    +0.000 A 
ATOM     14  C   UNL     1      -2.525  12.184  23.246  0.00  0.00    +0.000 A 
ATOM     15  C   UNL     1      -1.837  11.893  22.055  0.00  0.00    +0.000 A 
ATOM     16  S   UNL     1      -0.444  10.926  21.816  0.00  0.00    +0.000 S 
ATOM     17  H   UNL     1       0.188  11.139  18.274  0.00  0.00    +0.000 HD
ENDBRANCH   4   7
BRANCH   1  18
ATOM     18  O   UNL     1       3.369   5.974  19.277  0.00  0.00    +0.000 OA
BRANCH  18  24
ATOM     19  C   UNL     1       3.612   3.968  17.953  0.00  0.00    +0.000 A 
ATOM     20  C   UNL     1       3.014   2.740  17.594  0.00  0.00    +0.000 A 
ATOM     21  C   UNL     1       1.814   2.318  18.161  0.00  0.00    +0.000 A 
ATOM     22  C   UNL     1       1.211   3.139  19.089  0.00  0.00    +0.000 A 
ATOM     23  N   UNL     1       1.713   4.331  19.452  0.00  0.00    +0.000 NA
ATOM     24  C   UNL     1       2.871   4.743  18.867  0.00  0.00    +0.000 A 
BRANCH  19  28
ATOM     25  F   UNL     1       6.604   5.107  14.264  0.00  0.00    +0.000 F 
ATOM     26  C   UNL     1       6.431   4.877  15.573  0.00  0.00    +0.000 A 
ATOM     27  C   UNL     1       5.154   4.552  16.019  0.00  0.00    +0.000 A 
ATOM     28  C   UNL     1       4.941   4.325  17.381  0.00  0.00    +0.000 A 
ATOM     29  C   UNL     1       6.074   4.433  18.213  0.00  0.00    +0.000 A 
ATOM     30  C   UNL     1       7.314   4.748  17.671  0.00  0.00    +0.000 A 
ATOM     31  N   UNL     1       7.516   4.974  16.365  0.00  0.00    +0.000 NA
ENDBRANCH  19  28
ENDBRANCH  18  24
ENDBRANCH   1  18
TORSDOF 4
ENDMDL
