MODEL 1
REMARK VINA RESULT:      -7.8      0.000      0.000
REMARK  Name = 
REMARK  9 active torsions:
REMARK  status: ('A' for Active; 'I' for Inactive)
REMARK    1  A    between atoms: N_3  and  C_4
REMARK    2  A    between atoms: C_4  and  C_5
REMARK    3  A    between atoms: C_5  and  C_6
REMARK    4  A    between atoms: C_6  and  C_7
REMARK    5  A    between atoms: C_7  and  C_8
REMARK    6  A    between atoms: C_8  and  O_9
REMARK    7  A    between atoms: O_9  and  C_10
REMARK    8  A    between atoms: C_13  and  C_14
REMARK    9  A    between atoms: N_25  and  C_26
REMARK                            x       y       z     vdW  Elec       q    Type
REMARK                         _______ _______ _______ _____ _____    ______ ____
ROOT
ATOM      1  C   UNL     1       2.059   5.903  20.782  0.00  0.00    +0.000 C 
ENDROOT
BRANCH   1   2
ATOM      2  C   UNL     1       1.224   4.710  20.312  0.00  0.00    +0.000 C 
BRANCH   2   3
ATOM      3  C   UNL     1       1.483   3.449  21.140  0.00  0.00    +0.000 C 
BRANCH   3   4
ATOM      4  C   UNL     1       2.490   2.529  20.462  0.00  0.00    +0.000 C 
BRANCH   4   7
ATOM      5  O   UNL     1       5.119   3.524  19.696  0.00  0.00    +0.000 OA
ATOM      6  C   UNL     1       4.214   3.464  18.878  0.00  0.00    +0.000 C 
ATOM      7  N   UNL     1       2.906   3.037  19.170  0.00  0.00    +0.000 N 
ATOM      8  C   UNL     1       2.185   2.787  17.948  0.00  0.00    +0.000 C 
ATOM      9  C   UNL     1       2.895   3.697  16.959  0.00  0.00    +0.000 C 
ATOM     10  N   UNL     1       4.232   3.815  17.505  0.00  0.00    +0.000 N 
BRANCH  10  11
ATOM     11  C   UNL     1       5.318   4.399  16.808  0.00  0.00    +0.000 A 
ATOM     12  C   UNL     1       5.853   3.804  15.665  0.00  0.00    +0.000 A 
ATOM     13  C   UNL     1       6.926   4.409  15.030  0.00  0.00    +0.000 A 
ATOM     14  N   UNL     1       7.503   5.552  15.451  0.00  0.00    +0.000 NA
ATOM     15  C   UNL     1       6.974   6.117  16.554  0.00  0.00    +0.000 A 
ATOM     16  C   UNL     1       5.891   5.596  17.248  0.00  0.00    +0.000 A 
ENDBRANCH  10  11
ENDBRANCH   4   7
ENDBRANCH   3   4
ENDBRANCH   2   3
ENDBRANCH   1   2
BRANCH   1  17
ATOM     17  C   UNL     1       2.467   6.813  19.628  0.00  0.00    +0.000 C 
BRANCH  17  18
ATOM     18  O   UNL     1       2.312   8.170  20.032  0.00  0.00    +0.000 OA
BRANCH  18  19
ATOM     19  C   UNL     1       1.213   8.798  19.509  0.00  0.00    +0.000 A 
ATOM     20  C   UNL     1       0.291   9.243  20.449  0.00  0.00    +0.000 A 
ATOM     21  C   UNL     1      -0.881   9.881  20.041  0.00  0.00    +0.000 A 
ATOM     22  C   UNL     1      -1.149  10.126  18.680  0.00  0.00    +0.000 A 
ATOM     23  C   UNL     1      -0.185   9.698  17.749  0.00  0.00    +0.000 A 
ATOM     24  C   UNL     1       0.978   9.035  18.156  0.00  0.00    +0.000 A 
BRANCH  22  25
ATOM     25  C   UNL     1      -2.395  10.809  18.253  0.00  0.00    +0.000 A 
ATOM     26  C   UNL     1      -3.123  11.615  19.148  0.00  0.00    +0.000 A 
ATOM     27  C   UNL     1      -4.324  12.225  18.776  0.00  0.00    +0.000 A 
ATOM     28  C   UNL     1      -4.812  12.052  17.486  0.00  0.00    +0.000 A 
ATOM     29 CL   UNL     1      -6.291  12.796  17.026  0.00  0.00    +0.000 Cl
ATOM     30  C   UNL     1      -4.103  11.283  16.568  0.00  0.00    +0.000 A 
ATOM     31  C   UNL     1      -2.909  10.664  16.952  0.00  0.00    +0.000 A 
ENDBRANCH  22  25
ENDBRANCH  18  19
ENDBRANCH  17  18
ENDBRANCH   1  17
TORSDOF 9
ENDMDL
MODEL 2
REMARK VINA RESULT:      -7.8      2.701      5.099
REMARK  Name = 
REMARK  9 active torsions:
REMARK  status: ('A' for Active; 'I' for Inactive)
REMARK    1  A    between atoms: N_3  and  C_4
REMARK    2  A    between atoms: C_4  and  C_5
REMARK    3  A    between atoms: C_5  and  C_6
REMARK    4  A    between atoms: C_6  and  C_7
REMARK    5  A    between atoms: C_7  and  C_8
REMARK    6  A    between atoms: C_8  and  O_9
REMARK    7  A    between atoms: O_9  and  C_10
REMARK    8  A    between atoms: C_13  and  C_14
REMARK    9  A    between atoms: N_25  and  C_26
REMARK                            x       y       z     vdW  Elec       q    Type
REMARK                         _______ _______ _______ _____ _____    ______ ____
ROOT
ATOM      1  C   UNL     1       5.977   7.633  17.686  0.00  0.00    +0.000 C 
ENDROOT
BRANCH   1   2
ATOM      2  C   UNL     1       7.324   7.073  17.224  0.00  0.00    +0.000 C 
BRANCH   2   3
ATOM      3  C   UNL     1       7.171   5.942  16.204  0.00  0.00    +0.000 C 
BRANCH   3   4
ATOM      4  C   UNL     1       7.197   4.574  16.873  0.00  0.00    +0.000 C 
BRANCH   4   7
ATOM      5  O   UNL     1       5.815   4.507  19.437  0.00  0.00    +0.000 OA
ATOM      6  C   UNL     1       5.259   4.123  18.420  0.00  0.00    +0.000 C 
ATOM      7  N   UNL     1       5.862   4.081  17.151  0.00  0.00    +0.000 N 
ATOM      8  C   UNL     1       4.861   3.883  16.135  0.00  0.00    +0.000 C 
ATOM      9  C   UNL     1       3.759   3.167  16.899  0.00  0.00    +0.000 C 
ATOM     10  N   UNL     1       3.943   3.618  18.264  0.00  0.00    +0.000 N 
BRANCH  10  11
ATOM     11  C   UNL     1       3.012   3.379  19.304  0.00  0.00    +0.000 A 
ATOM     12  C   UNL     1       1.637   3.432  19.075  0.00  0.00    +0.000 A 
ATOM     13  C   UNL     1       0.769   3.205  20.132  0.00  0.00    +0.000 A 
ATOM     14  N   UNL     1       1.170   2.937  21.391  0.00  0.00    +0.000 NA
ATOM     15  C   UNL     1       2.500   2.887  21.596  0.00  0.00    +0.000 A 
ATOM     16  C   UNL     1       3.446   3.083  20.599  0.00  0.00    +0.000 A 
ENDBRANCH  10  11
ENDBRANCH   4   7
ENDBRANCH   3   4
ENDBRANCH   2   3
ENDBRANCH   1   2
BRANCH   1  17
ATOM     17  C   UNL     1       4.916   7.562  16.593  0.00  0.00    +0.000 C 
BRANCH  17  18
ATOM     18  O   UNL     1       3.825   6.775  17.058  0.00  0.00    +0.000 OA
BRANCH  18  19
ATOM     19  C   UNL     1       3.033   7.392  17.989  0.00  0.00    +0.000 A 
ATOM     20  C   UNL     1       2.442   8.576  17.564  0.00  0.00    +0.000 A 
ATOM     21  C   UNL     1       1.629   9.310  18.428  0.00  0.00    +0.000 A 
ATOM     22  C   UNL     1       1.351   8.862  19.734  0.00  0.00    +0.000 A 
ATOM     23  C   UNL     1       1.932   7.644  20.131  0.00  0.00    +0.000 A 
ATOM     24  C   UNL     1       2.769   6.920  19.274  0.00  0.00    +0.000 A 
BRANCH  22  25
ATOM     25  C   UNL     1       0.483   9.644  20.646  0.00  0.00    +0.000 A 
ATOM     26  C   UNL     1      -0.169  10.811  20.204  0.00  0.00    +0.000 A 
ATOM     27  C   UNL     1      -0.951  11.586  21.065  0.00  0.00    +0.000 A 
ATOM     28  C   UNL     1      -1.111  11.194  22.388  0.00  0.00    +0.000 A 
ATOM     29 CL   UNL     1      -2.069  12.146  23.451  0.00  0.00    +0.000 Cl
ATOM     30  C   UNL     1      -0.503  10.032  22.852  0.00  0.00    +0.000 A 
ATOM     31  C   UNL     1       0.290   9.268  21.989  0.00  0.00    +0.000 A 
ENDBRANCH  22  25
ENDBRANCH  18  19
ENDBRANCH  17  18
ENDBRANCH   1  17
TORSDOF 9
ENDMDL
MODEL 3
REMARK VINA RESULT:      -7.7      2.415      3.225
REMARK  Name = 
REMARK  9 active torsions:
REMARK  status: ('A' for Active; 'I' for Inactive)
REMARK    1  A    between atoms: N_3  and  C_4
REMARK    2  A    between atoms: C_4  and  C_5
REMARK    3  A    between atoms: C_5  and  C_6
REMARK    4  A    between atoms: C_6  and  C_7
REMARK    5  A    between atoms: C_7  and  C_8
REMARK    6  A    between atoms: C_8  and  O_9
REMARK    7  A    between atoms: O_9  and  C_10
REMARK    8  A    between atoms: C_13  and  C_14
REMARK    9  A    between atoms: N_25  and  C_26
REMARK                            x       y       z     vdW  Elec       q    Type
REMARK                         _______ _______ _______ _____ _____    ______ ____
ROOT
ATOM      1  C   UNL     1       1.547   4.442  20.915  0.00  0.00    +0.000 C 
ENDROOT
BRANCH   1   2
ATOM      2  C   UNL     1       1.379   3.495  19.725  0.00  0.00    +0.000 C 
BRANCH   2   3
ATOM      3  C   UNL     1       2.257   2.247  19.838  0.00  0.00    +0.000 C 
BRANCH   3   4
ATOM      4  C   UNL     1       3.010   1.969  18.544  0.00  0.00    +0.000 C 
BRANCH   4   7
ATOM      5  O   UNL     1       5.396   3.261  19.607  0.00  0.00    +0.000 OA
ATOM      6  C   UNL     1       4.854   3.686  18.599  0.00  0.00    +0.000 C 
ATOM      7  N   UNL     1       3.680   3.153  18.041  0.00  0.00    +0.000 N 
ATOM      8  C   UNL     1       3.487   3.669  16.710  0.00  0.00    +0.000 C 
ATOM      9  C   UNL     1       4.221   4.998  16.767  0.00  0.00    +0.000 C 
ATOM     10  N   UNL     1       5.229   4.786  17.787  0.00  0.00    +0.000 N 
BRANCH  10  11
ATOM     11  C   UNL     1       6.294   5.686  18.039  0.00  0.00    +0.000 A 
ATOM     12  C   UNL     1       7.188   5.477  19.090  0.00  0.00    +0.000 A 
ATOM     13  C   UNL     1       8.203   6.396  19.304  0.00  0.00    +0.000 A 
ATOM     14  N   UNL     1       8.388   7.501  18.554  0.00  0.00    +0.000 NA
ATOM     15  C   UNL     1       7.519   7.687  17.541  0.00  0.00    +0.000 A 
ATOM     16  C   UNL     1       6.482   6.816  17.239  0.00  0.00    +0.000 A 
ENDBRANCH  10  11
ENDBRANCH   4   7
ENDBRANCH   3   4
ENDBRANCH   2   3
ENDBRANCH   1   2
BRANCH   1  17
ATOM     17  C   UNL     1       2.537   5.565  20.624  0.00  0.00    +0.000 C 
BRANCH  17  18
ATOM     18  O   UNL     1       2.274   6.088  19.326  0.00  0.00    +0.000 OA
BRANCH  18  19
ATOM     19  C   UNL     1       1.899   7.405  19.308  0.00  0.00    +0.000 A 
ATOM     20  C   UNL     1       2.053   8.041  18.082  0.00  0.00    +0.000 A 
ATOM     21  C   UNL     1       1.725   9.390  17.940  0.00  0.00    +0.000 A 
ATOM     22  C   UNL     1       1.198  10.135  19.012  0.00  0.00    +0.000 A 
ATOM     23  C   UNL     1       1.018   9.462  20.234  0.00  0.00    +0.000 A 
ATOM     24  C   UNL     1       1.371   8.116  20.385  0.00  0.00    +0.000 A 
BRANCH  22  25
ATOM     25  C   UNL     1       0.847  11.567  18.854  0.00  0.00    +0.000 A 
ATOM     26  C   UNL     1       1.821  12.573  19.001  0.00  0.00    +0.000 A 
ATOM     27  C   UNL     1       1.497  13.929  18.903  0.00  0.00    +0.000 A 
ATOM     28  C   UNL     1       0.186  14.305  18.636  0.00  0.00    +0.000 A 
ATOM     29 CL   UNL     1      -0.218  15.971  18.520  0.00  0.00    +0.000 Cl
ATOM     30  C   UNL     1      -0.796  13.336  18.459  0.00  0.00    +0.000 A 
ATOM     31  C   UNL     1      -0.468  11.981  18.572  0.00  0.00    +0.000 A 
ENDBRANCH  22  25
ENDBRANCH  18  19
ENDBRANCH  17  18
ENDBRANCH   1  17
TORSDOF 9
ENDMDL
MODEL 4
REMARK VINA RESULT:      -7.6      2.511      3.227
REMARK  Name = 
REMARK  9 active torsions:
REMARK  status: ('A' for Active; 'I' for Inactive)
REMARK    1  A    between atoms: N_3  and  C_4
REMARK    2  A    between atoms: C_4  and  C_5
REMARK    3  A    between atoms: C_5  and  C_6
REMARK    4  A    between atoms: C_6  and  C_7
REMARK    5  A    between atoms: C_7  and  C_8
REMARK    6  A    between atoms: C_8  and  O_9
REMARK    7  A    between atoms: O_9  and  C_10
REMARK    8  A    between atoms: C_13  and  C_14
REMARK    9  A    between atoms: N_25  and  C_26
REMARK                            x       y       z     vdW  Elec       q    Type
REMARK                         _______ _______ _______ _____ _____    ______ ____
ROOT
ATOM      1  C   UNL     1       2.081   5.812  20.742  0.00  0.00    +0.000 C 
ENDROOT
BRANCH   1   2
ATOM      2  C   UNL     1       1.309   4.551  20.347  0.00  0.00    +0.000 C 
BRANCH   2   3
ATOM      3  C   UNL     1       1.656   3.350  21.230  0.00  0.00    +0.000 C 
BRANCH   3   4
ATOM      4  C   UNL     1       2.829   2.558  20.667  0.00  0.00    +0.000 C 
BRANCH   4   7
ATOM      5  O   UNL     1       5.341   3.690  19.721  0.00  0.00    +0.000 OA
ATOM      6  C   UNL     1       4.424   3.475  18.944  0.00  0.00    +0.000 C 
ATOM      7  N   UNL     1       3.166   2.972  19.319  0.00  0.00    +0.000 N 
ATOM      8  C   UNL     1       2.438   2.545  18.152  0.00  0.00    +0.000 C 
ATOM      9  C   UNL     1       3.041   3.411  17.058  0.00  0.00    +0.000 C 
ATOM     10  N   UNL     1       4.377   3.692  17.544  0.00  0.00    +0.000 N 
BRANCH  10  11
ATOM     11  C   UNL     1       5.390   4.294  16.759  0.00  0.00    +0.000 A 
ATOM     12  C   UNL     1       6.022   5.471  17.164  0.00  0.00    +0.000 A 
ATOM     13  C   UNL     1       6.996   6.027  16.351  0.00  0.00    +0.000 A 
ATOM     14  N   UNL     1       7.380   5.502  15.170  0.00  0.00    +0.000 NA
ATOM     15  C   UNL     1       6.763   4.365  14.793  0.00  0.00    +0.000 A 
ATOM     16  C   UNL     1       5.789   3.726  15.546  0.00  0.00    +0.000 A 
ENDBRANCH  10  11
ENDBRANCH   4   7
ENDBRANCH   3   4
ENDBRANCH   2   3
ENDBRANCH   1   2
BRANCH   1  17
ATOM     17  C   UNL     1       1.236   7.074  20.603  0.00  0.00    +0.000 C 
BRANCH  17  18
ATOM     18  O   UNL     1       1.698   8.045  21.537  0.00  0.00    +0.000 OA
BRANCH  18  19
ATOM     19  C   UNL     1       0.797   9.036  21.820  0.00  0.00    +0.000 A 
ATOM     20  C   UNL     1       0.419   9.811  20.730  0.00  0.00    +0.000 A 
ATOM     21  C   UNL     1      -0.479  10.867  20.892  0.00  0.00    +0.000 A 
ATOM     22  C   UNL     1      -1.055  11.157  22.144  0.00  0.00    +0.000 A 
ATOM     23  C   UNL     1      -0.684  10.337  23.226  0.00  0.00    +0.000 A 
ATOM     24  C   UNL     1       0.236   9.295  23.070  0.00  0.00    +0.000 A 
BRANCH  22  25
ATOM     25  C   UNL     1      -2.012  12.278  22.309  0.00  0.00    +0.000 A 
ATOM     26  C   UNL     1      -1.918  13.435  21.514  0.00  0.00    +0.000 A 
ATOM     27  C   UNL     1      -2.781  14.520  21.690  0.00  0.00    +0.000 A 
ATOM     28  C   UNL     1      -3.773  14.457  22.661  0.00  0.00    +0.000 A 
ATOM     29 CL   UNL     1      -4.834  15.791  22.885  0.00  0.00    +0.000 Cl
ATOM     30  C   UNL     1      -3.912  13.318  23.447  0.00  0.00    +0.000 A 
ATOM     31  C   UNL     1      -3.036  12.242  23.275  0.00  0.00    +0.000 A 
ENDBRANCH  22  25
ENDBRANCH  18  19
ENDBRANCH  17  18
ENDBRANCH   1  17
TORSDOF 9
ENDMDL
MODEL 5
REMARK VINA RESULT:      -7.6      0.589      1.298
REMARK  Name = 
REMARK  9 active torsions:
REMARK  status: ('A' for Active; 'I' for Inactive)
REMARK    1  A    between atoms: N_3  and  C_4
REMARK    2  A    between atoms: C_4  and  C_5
REMARK    3  A    between atoms: C_5  and  C_6
REMARK    4  A    between atoms: C_6  and  C_7
REMARK    5  A    between atoms: C_7  and  C_8
REMARK    6  A    between atoms: C_8  and  O_9
REMARK    7  A    between atoms: O_9  and  C_10
REMARK    8  A    between atoms: C_13  and  C_14
REMARK    9  A    between atoms: N_25  and  C_26
REMARK                            x       y       z     vdW  Elec       q    Type
REMARK                         _______ _______ _______ _____ _____    ______ ____
ROOT
ATOM      1  C   UNL     1       1.768   6.414  20.783  0.00  0.00    +0.000 C 
ENDROOT
BRANCH   1   2
ATOM      2  C   UNL     1       1.422   4.940  20.562  0.00  0.00    +0.000 C 
BRANCH   2   3
ATOM      3  C   UNL     1       2.205   4.007  21.489  0.00  0.00    +0.000 C 
BRANCH   3   4
ATOM      4  C   UNL     1       2.780   2.817  20.734  0.00  0.00    +0.000 C 
BRANCH   4   7
ATOM      5  O   UNL     1       5.119   4.025  19.485  0.00  0.00    +0.000 OA
ATOM      6  C   UNL     1       4.168   3.665  18.808  0.00  0.00    +0.000 C 
ATOM      7  N   UNL     1       2.986   3.112  19.329  0.00  0.00    +0.000 N 
ATOM      8  C   UNL     1       2.212   2.514  18.271  0.00  0.00    +0.000 C 
ATOM      9  C   UNL     1       2.663   3.304  17.053  0.00  0.00    +0.000 C 
ATOM     10  N   UNL     1       4.003   3.732  17.402  0.00  0.00    +0.000 N 
BRANCH  10  11
ATOM     11  C   UNL     1       4.905   4.322  16.483  0.00  0.00    +0.000 A 
ATOM     12  C   UNL     1       4.959   5.704  16.303  0.00  0.00    +0.000 A 
ATOM     13  C   UNL     1       5.849   6.229  15.379  0.00  0.00    +0.000 A 
ATOM     14  N   UNL     1       6.680   5.482  14.626  0.00  0.00    +0.000 NA
ATOM     15  C   UNL     1       6.619   4.149  14.813  0.00  0.00    +0.000 A 
ATOM     16  C   UNL     1       5.773   3.532  15.724  0.00  0.00    +0.000 A 
ENDBRANCH  10  11
ENDBRANCH   4   7
ENDBRANCH   3   4
ENDBRANCH   2   3
ENDBRANCH   1   2
BRANCH   1  17
ATOM     17  C   UNL     1       2.340   7.067  19.529  0.00  0.00    +0.000 C 
BRANCH  17  18
ATOM     18  O   UNL     1       2.264   8.482  19.669  0.00  0.00    +0.000 OA
BRANCH  18  19
ATOM     19  C   UNL     1       1.098   9.037  19.215  0.00  0.00    +0.000 A 
ATOM     20  C   UNL     1       0.298   9.607  20.199  0.00  0.00    +0.000 A 
ATOM     21  C   UNL     1      -0.927  10.187  19.865  0.00  0.00    +0.000 A 
ATOM     22  C   UNL     1      -1.372  10.248  18.531  0.00  0.00    +0.000 A 
ATOM     23  C   UNL     1      -0.530   9.697  17.548  0.00  0.00    +0.000 A 
ATOM     24  C   UNL     1       0.686   9.091  17.884  0.00  0.00    +0.000 A 
BRANCH  22  25
ATOM     25  C   UNL     1      -2.672  10.870  18.182  0.00  0.00    +0.000 A 
ATOM     26  C   UNL     1      -3.228  10.717  16.898  0.00  0.00    +0.000 A 
ATOM     27  C   UNL     1      -4.428  11.337  16.539  0.00  0.00    +0.000 A 
ATOM     28  C   UNL     1      -5.107  12.112  17.471  0.00  0.00    +0.000 A 
ATOM     29 CL   UNL     1      -6.580  12.880  17.032  0.00  0.00    +0.000 Cl
ATOM     30  C   UNL     1      -4.599  12.263  18.757  0.00  0.00    +0.000 A 
ATOM     31  C   UNL     1      -3.391  11.651  19.106  0.00  0.00    +0.000 A 
ENDBRANCH  22  25
ENDBRANCH  18  19
ENDBRANCH  17  18
ENDBRANCH   1  17
TORSDOF 9
ENDMDL
MODEL 6
REMARK VINA RESULT:      -7.6      2.338      2.943
REMARK  Name = 
REMARK  9 active torsions:
REMARK  status: ('A' for Active; 'I' for Inactive)
REMARK    1  A    between atoms: N_3  and  C_4
REMARK    2  A    between atoms: C_4  and  C_5
REMARK    3  A    between atoms: C_5  and  C_6
REMARK    4  A    between atoms: C_6  and  C_7
REMARK    5  A    between atoms: C_7  and  C_8
REMARK    6  A    between atoms: C_8  and  O_9
REMARK    7  A    between atoms: O_9  and  C_10
REMARK    8  A    between atoms: C_13  and  C_14
REMARK    9  A    between atoms: N_25  and  C_26
REMARK                            x       y       z     vdW  Elec       q    Type
REMARK                         _______ _______ _______ _____ _____    ______ ____
ROOT
ATOM      1  C   UNL     1       2.560   4.490  21.596  0.00  0.00    +0.000 C 
ENDROOT
BRANCH   1   2
ATOM      2  C   UNL     1       2.106   3.029  21.595  0.00  0.00    +0.000 C 
BRANCH   2   3
ATOM      3  C   UNL     1       0.881   2.794  20.708  0.00  0.00    +0.000 C 
BRANCH   3   4
ATOM      4  C   UNL     1       1.262   2.147  19.383  0.00  0.00    +0.000 C 
BRANCH   4   7
ATOM      5  O   UNL     1       4.111   1.969  18.803  0.00  0.00    +0.000 OA
ATOM      6  C   UNL     1       3.427   2.846  18.299  0.00  0.00    +0.000 C 
ATOM      7  N   UNL     1       2.057   3.032  18.555  0.00  0.00    +0.000 N 
ATOM      8  C   UNL     1       1.492   3.932  17.583  0.00  0.00    +0.000 C 
ATOM      9  C   UNL     1       2.697   4.759  17.166  0.00  0.00    +0.000 C 
ATOM     10  N   UNL     1       3.816   3.869  17.398  0.00  0.00    +0.000 N 
BRANCH  10  11
ATOM     11  C   UNL     1       5.135   4.130  16.952  0.00  0.00    +0.000 A 
ATOM     12  C   UNL     1       5.480   4.033  15.603  0.00  0.00    +0.000 A 
ATOM     13  C   UNL     1       6.789   4.284  15.223  0.00  0.00    +0.000 A 
ATOM     14  N   UNL     1       7.771   4.619  16.082  0.00  0.00    +0.000 NA
ATOM     15  C   UNL     1       7.423   4.712  17.381  0.00  0.00    +0.000 A 
ATOM     16  C   UNL     1       6.137   4.495  17.855  0.00  0.00    +0.000 A 
ENDBRANCH  10  11
ENDBRANCH   4   7
ENDBRANCH   3   4
ENDBRANCH   2   3
ENDBRANCH   1   2
BRANCH   1  17
ATOM     17  C   UNL     1       1.554   5.407  20.908  0.00  0.00    +0.000 C 
BRANCH  17  18
ATOM     18  O   UNL     1       2.251   6.266  20.010  0.00  0.00    +0.000 OA
BRANCH  18  19
ATOM     19  C   UNL     1       1.817   7.565  20.014  0.00  0.00    +0.000 A 
ATOM     20  C   UNL     1       1.908   8.215  18.789  0.00  0.00    +0.000 A 
ATOM     21  C   UNL     1       1.516   9.549  18.667  0.00  0.00    +0.000 A 
ATOM     22  C   UNL     1       0.986  10.262  19.759  0.00  0.00    +0.000 A 
ATOM     23  C   UNL     1       0.871   9.574  20.980  0.00  0.00    +0.000 A 
ATOM     24  C   UNL     1       1.288   8.244  21.110  0.00  0.00    +0.000 A 
BRANCH  22  25
ATOM     25  C   UNL     1       0.567  11.679  19.622  0.00  0.00    +0.000 A 
ATOM     26  C   UNL     1      -0.230  12.098  18.541  0.00  0.00    +0.000 A 
ATOM     27  C   UNL     1      -0.593  13.437  18.371  0.00  0.00    +0.000 A 
ATOM     28  C   UNL     1      -0.174  14.384  19.297  0.00  0.00    +0.000 A 
ATOM     29 CL   UNL     1      -0.613  16.033  19.089  0.00  0.00    +0.000 Cl
ATOM     30  C   UNL     1       0.593  14.001  20.392  0.00  0.00    +0.000 A 
ATOM     31  C   UNL     1       0.964  12.661  20.549  0.00  0.00    +0.000 A 
ENDBRANCH  22  25
ENDBRANCH  18  19
ENDBRANCH  17  18
ENDBRANCH   1  17
TORSDOF 9
ENDMDL
MODEL 7
REMARK VINA RESULT:      -7.5      5.757      8.418
REMARK  Name = 
REMARK  9 active torsions:
REMARK  status: ('A' for Active; 'I' for Inactive)
REMARK    1  A    between atoms: N_3  and  C_4
REMARK    2  A    between atoms: C_4  and  C_5
REMARK    3  A    between atoms: C_5  and  C_6
REMARK    4  A    between atoms: C_6  and  C_7
REMARK    5  A    between atoms: C_7  and  C_8
REMARK    6  A    between atoms: C_8  and  O_9
REMARK    7  A    between atoms: O_9  and  C_10
REMARK    8  A    between atoms: C_13  and  C_14
REMARK    9  A    between atoms: N_25  and  C_26
REMARK                            x       y       z     vdW  Elec       q    Type
REMARK                         _______ _______ _______ _____ _____    ______ ____
ROOT
ATOM      1  C   UNL     1       7.327   5.987  18.435  0.00  0.00    +0.000 C 
ENDROOT
BRANCH   1   2
ATOM      2  C   UNL     1       7.836   7.159  17.592  0.00  0.00    +0.000 C 
BRANCH   2   3
ATOM      3  C   UNL     1       8.373   8.308  18.448  0.00  0.00    +0.000 C 
BRANCH   3   4
ATOM      4  C   UNL     1       7.961   9.664  17.891  0.00  0.00    +0.000 C 
BRANCH   4   7
ATOM      5  O   UNL     1       7.921  12.463  17.084  0.00  0.00    +0.000 OA
ATOM      6  C   UNL     1       8.786  12.046  17.837  0.00  0.00    +0.000 C 
ATOM      7  N   UNL     1       8.906  10.706  18.245  0.00  0.00    +0.000 N 
ATOM      8  C   UNL     1       9.816  10.608  19.358  0.00  0.00    +0.000 C 
ATOM      9  C   UNL     1      10.705  11.825  19.158  0.00  0.00    +0.000 C 
ATOM     10  N   UNL     1       9.854  12.754  18.443  0.00  0.00    +0.000 N 
BRANCH  10  11
ATOM     11  C   UNL     1      10.185  14.114  18.222  0.00  0.00    +0.000 A 
ATOM     12  C   UNL     1       9.664  15.129  19.025  0.00  0.00    +0.000 A 
ATOM     13  C   UNL     1      10.008  16.444  18.756  0.00  0.00    +0.000 A 
ATOM     14  N   UNL     1      10.823  16.818  17.749  0.00  0.00    +0.000 NA
ATOM     15  C   UNL     1      11.320  15.827  16.984  0.00  0.00    +0.000 A 
ATOM     16  C   UNL     1      11.048  14.481  17.186  0.00  0.00    +0.000 A 
ENDBRANCH  10  11
ENDBRANCH   4   7
ENDBRANCH   3   4
ENDBRANCH   2   3
ENDBRANCH   1   2
BRANCH   1  17
ATOM     17  C   UNL     1       7.338   4.672  17.662  0.00  0.00    +0.000 C 
BRANCH  17  18
ATOM     18  O   UNL     1       5.997   4.221  17.498  0.00  0.00    +0.000 OA
BRANCH  18  19
ATOM     19  C   UNL     1       5.043   5.103  17.931  0.00  0.00    +0.000 A 
ATOM     20  C   UNL     1       4.709   6.098  17.020  0.00  0.00    +0.000 A 
ATOM     21  C   UNL     1       3.763   7.070  17.351  0.00  0.00    +0.000 A 
ATOM     22  C   UNL     1       3.095   7.053  18.591  0.00  0.00    +0.000 A 
ATOM     23  C   UNL     1       3.423   6.016  19.483  0.00  0.00    +0.000 A 
ATOM     24  C   UNL     1       4.390   5.057  19.162  0.00  0.00    +0.000 A 
BRANCH  22  25
ATOM     25  C   UNL     1       2.087   8.086  18.935  0.00  0.00    +0.000 A 
ATOM     26  C   UNL     1       1.594   8.208  20.247  0.00  0.00    +0.000 A 
ATOM     27  C   UNL     1       0.609   9.143  20.577  0.00  0.00    +0.000 A 
ATOM     28  C   UNL     1       0.110   9.991  19.595  0.00  0.00    +0.000 A 
ATOM     29 CL   UNL     1      -1.104  11.139  19.995  0.00  0.00    +0.000 Cl
ATOM     30  C   UNL     1       0.595   9.915  18.294  0.00  0.00    +0.000 A 
ATOM     31  C   UNL     1       1.570   8.967  17.967  0.00  0.00    +0.000 A 
ENDBRANCH  22  25
ENDBRANCH  18  19
ENDBRANCH  17  18
ENDBRANCH   1  17
TORSDOF 9
ENDMDL
MODEL 8
REMARK VINA RESULT:      -7.5      5.991      8.220
REMARK  Name = 
REMARK  9 active torsions:
REMARK  status: ('A' for Active; 'I' for Inactive)
REMARK    1  A    between atoms: N_3  and  C_4
REMARK    2  A    between atoms: C_4  and  C_5
REMARK    3  A    between atoms: C_5  and  C_6
REMARK    4  A    between atoms: C_6  and  C_7
REMARK    5  A    between atoms: C_7  and  C_8
REMARK    6  A    between atoms: C_8  and  O_9
REMARK    7  A    between atoms: O_9  and  C_10
REMARK    8  A    between atoms: C_13  and  C_14
REMARK    9  A    between atoms: N_25  and  C_26
REMARK                            x       y       z     vdW  Elec       q    Type
REMARK                         _______ _______ _______ _____ _____    ______ ____
ROOT
ATOM      1  C   UNL     1       6.763   6.518  17.079  0.00  0.00    +0.000 C 
ENDROOT
BRANCH   1   2
ATOM      2  C   UNL     1       7.745   7.217  18.021  0.00  0.00    +0.000 C 
BRANCH   2   3
ATOM      3  C   UNL     1       7.945   8.694  17.670  0.00  0.00    +0.000 C 
BRANCH   3   4
ATOM      4  C   UNL     1       8.829   9.399  18.689  0.00  0.00    +0.000 C 
BRANCH   4   7
ATOM      5  O   UNL     1      11.087  11.150  19.261  0.00  0.00    +0.000 OA
ATOM      6  C   UNL     1      10.094  11.580  18.695  0.00  0.00    +0.000 C 
ATOM      7  N   UNL     1       8.945  10.819  18.417  0.00  0.00    +0.000 N 
ATOM      8  C   UNL     1       8.105  11.519  17.480  0.00  0.00    +0.000 C 
ATOM      9  C   UNL     1       8.479  12.971  17.729  0.00  0.00    +0.000 C 
ATOM     10  N   UNL     1       9.840  12.891  18.221  0.00  0.00    +0.000 N 
BRANCH  10  11
ATOM     11  C   UNL     1      10.683  14.017  18.388  0.00  0.00    +0.000 A 
ATOM     12  C   UNL     1      11.031  14.483  19.657  0.00  0.00    +0.000 A 
ATOM     13  C   UNL     1      11.846  15.598  19.765  0.00  0.00    +0.000 A 
ATOM     14  N   UNL     1      12.333  16.279  18.709  0.00  0.00    +0.000 NA
ATOM     15  C   UNL     1      11.991  15.816  17.490  0.00  0.00    +0.000 A 
ATOM     16  C   UNL     1      11.194  14.700  17.281  0.00  0.00    +0.000 A 
ENDBRANCH  10  11
ENDBRANCH   4   7
ENDBRANCH   3   4
ENDBRANCH   2   3
ENDBRANCH   1   2
BRANCH   1  17
ATOM     17  C   UNL     1       5.731   5.687  17.834  0.00  0.00    +0.000 C 
BRANCH  17  18
ATOM     18  O   UNL     1       4.454   5.880  17.235  0.00  0.00    +0.000 OA
BRANCH  18  19
ATOM     19  C   UNL     1       3.609   6.692  17.943  0.00  0.00    +0.000 A 
ATOM     20  C   UNL     1       3.275   6.227  19.210  0.00  0.00    +0.000 A 
ATOM     21  C   UNL     1       2.405   6.955  20.023  0.00  0.00    +0.000 A 
ATOM     22  C   UNL     1       1.873   8.191  19.608  0.00  0.00    +0.000 A 
ATOM     23  C   UNL     1       2.252   8.659  18.337  0.00  0.00    +0.000 A 
ATOM     24  C   UNL     1       3.103   7.917  17.510  0.00  0.00    +0.000 A 
BRANCH  22  25
ATOM     25  C   UNL     1       0.952   8.962  20.479  0.00  0.00    +0.000 A 
ATOM     26  C   UNL     1       0.204  10.039  19.969  0.00  0.00    +0.000 A 
ATOM     27  C   UNL     1      -0.631  10.806  20.786  0.00  0.00    +0.000 A 
ATOM     28  C   UNL     1      -0.745  10.495  22.136  0.00  0.00    +0.000 A 
ATOM     29 CL   UNL     1      -1.766  11.439  23.146  0.00  0.00    +0.000 Cl
ATOM     30  C   UNL     1      -0.040   9.420  22.668  0.00  0.00    +0.000 A 
ATOM     31  C   UNL     1       0.804   8.665  21.847  0.00  0.00    +0.000 A 
ENDBRANCH  22  25
ENDBRANCH  18  19
ENDBRANCH  17  18
ENDBRANCH   1  17
TORSDOF 9
ENDMDL
MODEL 9
REMARK VINA RESULT:      -7.4      2.529      4.895
REMARK  Name = 
REMARK  9 active torsions:
REMARK  status: ('A' for Active; 'I' for Inactive)
REMARK    1  A    between atoms: N_3  and  C_4
REMARK    2  A    between atoms: C_4  and  C_5
REMARK    3  A    between atoms: C_5  and  C_6
REMARK    4  A    between atoms: C_6  and  C_7
REMARK    5  A    between atoms: C_7  and  C_8
REMARK    6  A    between atoms: C_8  and  O_9
REMARK    7  A    between atoms: O_9  and  C_10
REMARK    8  A    between atoms: C_13  and  C_14
REMARK    9  A    between atoms: N_25  and  C_26
REMARK                            x       y       z     vdW  Elec       q    Type
REMARK                         _______ _______ _______ _____ _____    ______ ____
ROOT
ATOM      1  C   UNL     1       4.949   6.829  16.245  0.00  0.00    +0.000 C 
ENDROOT
BRANCH   1   2
ATOM      2  C   UNL     1       6.469   6.997  16.303  0.00  0.00    +0.000 C 
BRANCH   2   3
ATOM      3  C   UNL     1       7.095   6.269  17.496  0.00  0.00    +0.000 C 
BRANCH   3   4
ATOM      4  C   UNL     1       7.180   4.768  17.257  0.00  0.00    +0.000 C 
BRANCH   4   7
ATOM      5  O   UNL     1       5.574   4.935  19.682  0.00  0.00    +0.000 OA
ATOM      6  C   UNL     1       5.196   4.271  18.730  0.00  0.00    +0.000 C 
ATOM      7  N   UNL     1       5.924   4.101  17.539  0.00  0.00    +0.000 N 
ATOM      8  C   UNL     1       5.077   3.537  16.520  0.00  0.00    +0.000 C 
ATOM      9  C   UNL     1       4.037   2.789  17.337  0.00  0.00    +0.000 C 
ATOM     10  N   UNL     1       4.004   3.515  18.591  0.00  0.00    +0.000 N 
BRANCH  10  11
ATOM     11  C   UNL     1       3.025   3.311  19.594  0.00  0.00    +0.000 A 
ATOM     12  C   UNL     1       3.316   2.608  20.763  0.00  0.00    +0.000 A 
ATOM     13  C   UNL     1       2.317   2.423  21.705  0.00  0.00    +0.000 A 
ATOM     14  N   UNL     1       1.057   2.880  21.565  0.00  0.00    +0.000 NA
ATOM     15  C   UNL     1       0.791   3.560  20.432  0.00  0.00    +0.000 A 
ATOM     16  C   UNL     1       1.728   3.810  19.440  0.00  0.00    +0.000 A 
ENDBRANCH  10  11
ENDBRANCH   4   7
ENDBRANCH   3   4
ENDBRANCH   2   3
ENDBRANCH   1   2
BRANCH   1  17
ATOM     17  C   UNL     1       4.230   7.732  17.241  0.00  0.00    +0.000 C 
BRANCH  17  18
ATOM     18  O   UNL     1       3.239   6.970  17.924  0.00  0.00    +0.000 OA
BRANCH  18  19
ATOM     19  C   UNL     1       2.424   7.702  18.745  0.00  0.00    +0.000 A 
ATOM     20  C   UNL     1       1.912   8.864  18.178  0.00  0.00    +0.000 A 
ATOM     21  C   UNL     1       1.084   9.706  18.921  0.00  0.00    +0.000 A 
ATOM     22  C   UNL     1       0.712   9.393  20.242  0.00  0.00    +0.000 A 
ATOM     23  C   UNL     1       1.213   8.196  20.783  0.00  0.00    +0.000 A 
ATOM     24  C   UNL     1       2.065   7.363  20.049  0.00  0.00    +0.000 A 
BRANCH  22  25
ATOM     25  C   UNL     1      -0.172  10.291  21.025  0.00  0.00    +0.000 A 
ATOM     26  C   UNL     1      -0.320  10.131  22.415  0.00  0.00    +0.000 A 
ATOM     27  C   UNL     1      -1.186  10.937  23.160  0.00  0.00    +0.000 A 
ATOM     28  C   UNL     1      -1.912  11.937  22.522  0.00  0.00    +0.000 A 
ATOM     29 CL   UNL     1      -2.982  12.926  23.432  0.00  0.00    +0.000 Cl
ATOM     30  C   UNL     1      -1.770  12.139  21.153  0.00  0.00    +0.000 A 
ATOM     31  C   UNL     1      -0.912  11.320  20.413  0.00  0.00    +0.000 A 
ENDBRANCH  22  25
ENDBRANCH  18  19
ENDBRANCH  17  18
ENDBRANCH   1  17
TORSDOF 9
ENDMDL
