MODEL 1
REMARK VINA RESULT:      -8.2      0.000      0.000
REMARK  Name = 
REMARK  2 active torsions:
REMARK  status: ('A' for Active; 'I' for Inactive)
REMARK    1  A    between atoms: C_2  and  C_16
REMARK    2  A    between atoms: N_3  and  N_4
REMARK                            x       y       z     vdW  Elec       q    Type
REMARK                         _______ _______ _______ _____ _____    ______ ____
ROOT
ATOM      1  N   UNL     1       4.067   3.928  17.536  0.00  0.00    +0.000 N 
ATOM      2  C   UNL     1       4.621   3.939  18.790  0.00  0.00    +0.000 C 
ATOM      3  O   UNL     1       5.800   3.763  19.072  0.00  0.00    +0.000 OA
ATOM      4  C   UNL     1       3.508   4.162  19.783  0.00  0.00    +0.000 C 
ATOM      5  C   UNL     1       3.288   2.971  20.716  0.00  0.00    +0.000 C 
ATOM      6  C   UNL     1       2.140   3.255  21.647  0.00  0.00    +0.000 C 
ATOM      7  C   UNL     1       1.027   3.230  20.898  0.00  0.00    +0.000 C 
ATOM      8  C   UNL     1       1.473   2.927  19.500  0.00  0.00    +0.000 C 
ATOM      9  O   UNL     1       2.603   2.058  19.814  0.00  0.00    +0.000 OA
ATOM     10  C   UNL     1       2.223   4.122  18.921  0.00  0.00    +0.000 C 
ATOM     11  C   UNL     1       2.700   3.780  17.543  0.00  0.00    +0.000 C 
ATOM     12  O   UNL     1       1.971   3.373  16.655  0.00  0.00    +0.000 OA
ENDROOT
BRANCH   1  15
ATOM     13  O   UNL     1       4.917   5.965  15.994  0.00  0.00    +0.000 OA
ATOM     14  C   UNL     1       5.218   4.820  15.658  0.00  0.00    +0.000 C 
ATOM     15  N   UNL     1       4.834   3.704  16.384  0.00  0.00    +0.000 N 
ATOM     16  H   UNL     1       5.301   2.806  16.330  0.00  0.00    +0.000 HD
BRANCH  14  17
ATOM     17  C   UNL     1       6.048   4.634  14.435  0.00  0.00    +0.000 A 
ATOM     18  C   UNL     1       5.568   3.724  13.483  0.00  0.00    +0.000 A 
ATOM     19  C   UNL     1       6.279   3.547  12.311  0.00  0.00    +0.000 A 
ATOM     20  N   UNL     1       7.422   4.203  12.035  0.00  0.00    +0.000 NA
ATOM     21  C   UNL     1       7.878   5.060  12.974  0.00  0.00    +0.000 A 
ATOM     22  C   UNL     1       7.242   5.308  14.182  0.00  0.00    +0.000 A 
ENDBRANCH  14  17
ENDBRANCH   1  15
TORSDOF 2
ENDMDL
MODEL 2
REMARK VINA RESULT:      -7.9      0.118      1.032
REMARK  Name = 
REMARK  2 active torsions:
REMARK  status: ('A' for Active; 'I' for Inactive)
REMARK    1  A    between atoms: C_2  and  C_16
REMARK    2  A    between atoms: N_3  and  N_4
REMARK                            x       y       z     vdW  Elec       q    Type
REMARK                         _______ _______ _______ _____ _____    ______ ____
ROOT
ATOM      1  N   UNL     1       4.014   3.919  17.550  0.00  0.00    +0.000 N 
ATOM      2  C   UNL     1       4.610   3.886  18.784  0.00  0.00    +0.000 C 
ATOM      3  O   UNL     1       5.789   3.653  19.022  0.00  0.00    +0.000 OA
ATOM      4  C   UNL     1       3.543   4.143  19.818  0.00  0.00    +0.000 C 
ATOM      5  C   UNL     1       3.301   2.948  20.742  0.00  0.00    +0.000 C 
ATOM      6  C   UNL     1       2.200   3.269  21.715  0.00  0.00    +0.000 C 
ATOM      7  C   UNL     1       1.062   3.305  21.005  0.00  0.00    +0.000 C 
ATOM      8  C   UNL     1       1.446   3.004  19.589  0.00  0.00    +0.000 C 
ATOM      9  O   UNL     1       2.545   2.081  19.851  0.00  0.00    +0.000 OA
ATOM     10  C   UNL     1       2.229   4.173  19.001  0.00  0.00    +0.000 C 
ATOM     11  C   UNL     1       2.643   3.831  17.602  0.00  0.00    +0.000 C 
ATOM     12  O   UNL     1       1.866   3.471  16.735  0.00  0.00    +0.000 OA
ENDROOT
BRANCH   1  15
ATOM     13  O   UNL     1       4.922   5.940  16.021  0.00  0.00    +0.000 OA
ATOM     14  C   UNL     1       5.150   4.788  15.653  0.00  0.00    +0.000 C 
ATOM     15  N   UNL     1       4.731   3.679  16.369  0.00  0.00    +0.000 N 
ATOM     16  H   UNL     1       5.146   2.759  16.283  0.00  0.00    +0.000 HD
BRANCH  14  17
ATOM     17  C   UNL     1       5.930   4.584  14.399  0.00  0.00    +0.000 A 
ATOM     18  C   UNL     1       7.114   5.322  14.269  0.00  0.00    +0.000 A 
ATOM     19  C   UNL     1       7.895   5.138  13.145  0.00  0.00    +0.000 A 
ATOM     20  N   UNL     1       7.574   4.283  12.155  0.00  0.00    +0.000 NA
ATOM     21  C   UNL     1       6.419   3.596  12.289  0.00  0.00    +0.000 A 
ATOM     22  C   UNL     1       5.564   3.710  13.376  0.00  0.00    +0.000 A 
ENDBRANCH  14  17
ENDBRANCH   1  15
TORSDOF 2
ENDMDL
MODEL 3
REMARK VINA RESULT:      -7.6      1.308      1.889
REMARK  Name = 
REMARK  2 active torsions:
REMARK  status: ('A' for Active; 'I' for Inactive)
REMARK    1  A    between atoms: C_2  and  C_16
REMARK    2  A    between atoms: N_3  and  N_4
REMARK                            x       y       z     vdW  Elec       q    Type
REMARK                         _______ _______ _______ _____ _____    ______ ____
ROOT
ATOM      1  N   UNL     1       4.143   3.893  17.460  0.00  0.00    +0.000 N 
ATOM      2  C   UNL     1       3.837   2.712  18.083  0.00  0.00    +0.000 C 
ATOM      3  O   UNL     1       3.851   1.594  17.583  0.00  0.00    +0.000 OA
ATOM      4  C   UNL     1       3.427   3.031  19.499  0.00  0.00    +0.000 C 
ATOM      5  C   UNL     1       1.965   2.690  19.793  0.00  0.00    +0.000 C 
ATOM      6  C   UNL     1       1.625   3.073  21.208  0.00  0.00    +0.000 C 
ATOM      7  C   UNL     1       1.610   4.414  21.247  0.00  0.00    +0.000 C 
ATOM      8  C   UNL     1       1.936   4.874  19.859  0.00  0.00    +0.000 C 
ATOM      9  O   UNL     1       1.300   3.792  19.114  0.00  0.00    +0.000 OA
ATOM     10  C   UNL     1       3.398   4.578  19.541  0.00  0.00    +0.000 C 
ATOM     11  C   UNL     1       3.689   5.002  18.134  0.00  0.00    +0.000 C 
ATOM     12  O   UNL     1       3.467   6.120  17.704  0.00  0.00    +0.000 OA
ENDROOT
BRANCH   1  15
ATOM     13  O   UNL     1       6.702   4.330  16.745  0.00  0.00    +0.000 OA
ATOM     14  C   UNL     1       5.869   4.181  15.852  0.00  0.00    +0.000 C 
ATOM     15  N   UNL     1       4.529   3.947  16.113  0.00  0.00    +0.000 N 
ATOM     16  H   UNL     1       3.889   3.521  15.452  0.00  0.00    +0.000 HD
BRANCH  14  17
ATOM     17  C   UNL     1       6.329   4.231  14.435  0.00  0.00    +0.000 A 
ATOM     18  C   UNL     1       7.363   5.131  14.142  0.00  0.00    +0.000 A 
ATOM     19  C   UNL     1       7.855   5.186  12.853  0.00  0.00    +0.000 A 
ATOM     20  N   UNL     1       7.387   4.417  11.851  0.00  0.00    +0.000 NA
ATOM     21  C   UNL     1       6.378   3.570  12.149  0.00  0.00    +0.000 A 
ATOM     22  C   UNL     1       5.813   3.441  13.409  0.00  0.00    +0.000 A 
ENDBRANCH  14  17
ENDBRANCH   1  15
TORSDOF 2
ENDMDL
MODEL 4
REMARK VINA RESULT:      -7.6      1.304      1.598
REMARK  Name = 
REMARK  2 active torsions:
REMARK  status: ('A' for Active; 'I' for Inactive)
REMARK    1  A    between atoms: C_2  and  C_16
REMARK    2  A    between atoms: N_3  and  N_4
REMARK                            x       y       z     vdW  Elec       q    Type
REMARK                         _______ _______ _______ _____ _____    ______ ____
ROOT
ATOM      1  N   UNL     1       4.158   3.871  17.466  0.00  0.00    +0.000 N 
ATOM      2  C   UNL     1       3.821   2.678  18.052  0.00  0.00    +0.000 C 
ATOM      3  O   UNL     1       3.851   1.571  17.531  0.00  0.00    +0.000 OA
ATOM      4  C   UNL     1       3.355   2.971  19.457  0.00  0.00    +0.000 C 
ATOM      5  C   UNL     1       1.881   2.631  19.684  0.00  0.00    +0.000 C 
ATOM      6  C   UNL     1       1.485   2.987  21.091  0.00  0.00    +0.000 C 
ATOM      7  C   UNL     1       1.474   4.327  21.157  0.00  0.00    +0.000 C 
ATOM      8  C   UNL     1       1.858   4.813  19.793  0.00  0.00    +0.000 C 
ATOM      9  O   UNL     1       1.249   3.749  19.001  0.00  0.00    +0.000 OA
ATOM     10  C   UNL     1       3.330   4.517  19.529  0.00  0.00    +0.000 C 
ATOM     11  C   UNL     1       3.680   4.968  18.144  0.00  0.00    +0.000 C 
ATOM     12  O   UNL     1       3.480   6.096  17.728  0.00  0.00    +0.000 OA
ENDROOT
BRANCH   1  15
ATOM     13  O   UNL     1       6.733   4.376  16.865  0.00  0.00    +0.000 OA
ATOM     14  C   UNL     1       5.942   4.219  15.936  0.00  0.00    +0.000 C 
ATOM     15  N   UNL     1       4.598   3.950  16.138  0.00  0.00    +0.000 N 
ATOM     16  H   UNL     1       3.997   3.518  15.446  0.00  0.00    +0.000 HD
BRANCH  14  17
ATOM     17  C   UNL     1       6.460   4.296  14.541  0.00  0.00    +0.000 A 
ATOM     18  C   UNL     1       5.854   3.454  13.599  0.00  0.00    +0.000 A 
ATOM     19  C   UNL     1       6.270   3.518  12.282  0.00  0.00    +0.000 A 
ATOM     20  N   UNL     1       7.238   4.350  11.853  0.00  0.00    +0.000 NA
ATOM     21  C   UNL     1       7.823   5.139  12.780  0.00  0.00    +0.000 A 
ATOM     22  C   UNL     1       7.481   5.150  14.125  0.00  0.00    +0.000 A 
ENDBRANCH  14  17
ENDBRANCH   1  15
TORSDOF 2
ENDMDL
MODEL 5
REMARK VINA RESULT:      -7.4      1.011      2.099
REMARK  Name = 
REMARK  2 active torsions:
REMARK  status: ('A' for Active; 'I' for Inactive)
REMARK    1  A    between atoms: C_2  and  C_16
REMARK    2  A    between atoms: N_3  and  N_4
REMARK                            x       y       z     vdW  Elec       q    Type
REMARK                         _______ _______ _______ _____ _____    ______ ____
ROOT
ATOM      1  N   UNL     1       4.346   3.124  17.557  0.00  0.00    +0.000 N 
ATOM      2  C   UNL     1       2.988   2.950  17.497  0.00  0.00    +0.000 C 
ATOM      3  O   UNL     1       2.313   2.793  16.487  0.00  0.00    +0.000 OA
ATOM      4  C   UNL     1       2.451   3.030  18.904  0.00  0.00    +0.000 C 
ATOM      5  C   UNL     1       1.525   4.227  19.126  0.00  0.00    +0.000 C 
ATOM      6  C   UNL     1       1.064   4.259  20.558  0.00  0.00    +0.000 C 
ATOM      7  C   UNL     1       2.134   4.595  21.295  0.00  0.00    +0.000 C 
ATOM      8  C   UNL     1       3.264   4.778  20.329  0.00  0.00    +0.000 C 
ATOM      9  O   UNL     1       2.504   5.301  19.199  0.00  0.00    +0.000 OA
ATOM     10  C   UNL     1       3.682   3.429  19.753  0.00  0.00    +0.000 C 
ATOM     11  C   UNL     1       4.779   3.641  18.756  0.00  0.00    +0.000 C 
ATOM     12  O   UNL     1       5.811   4.240  19.001  0.00  0.00    +0.000 OA
ENDROOT
BRANCH   1  15
ATOM     13  O   UNL     1       4.662   5.361  16.093  0.00  0.00    +0.000 OA
ATOM     14  C   UNL     1       5.240   4.340  15.722  0.00  0.00    +0.000 C 
ATOM     15  N   UNL     1       5.147   3.140  16.407  0.00  0.00    +0.000 N 
ATOM     16  H   UNL     1       5.823   2.389  16.327  0.00  0.00    +0.000 HD
BRANCH  14  17
ATOM     17  C   UNL     1       6.093   4.410  14.501  0.00  0.00    +0.000 A 
ATOM     18  C   UNL     1       5.709   3.604  13.421  0.00  0.00    +0.000 A 
ATOM     19  C   UNL     1       6.441   3.664  12.251  0.00  0.00    +0.000 A 
ATOM     20  N   UNL     1       7.517   4.458  12.093  0.00  0.00    +0.000 NA
ATOM     21  C   UNL     1       7.882   5.212  13.152  0.00  0.00    +0.000 A 
ATOM     22  C   UNL     1       7.217   5.223  14.370  0.00  0.00    +0.000 A 
ENDBRANCH  14  17
ENDBRANCH   1  15
TORSDOF 2
ENDMDL
MODEL 6
REMARK VINA RESULT:      -7.2      1.037      1.039
REMARK  Name = 
REMARK  2 active torsions:
REMARK  status: ('A' for Active; 'I' for Inactive)
REMARK    1  A    between atoms: C_2  and  C_16
REMARK    2  A    between atoms: N_3  and  N_4
REMARK                            x       y       z     vdW  Elec       q    Type
REMARK                         _______ _______ _______ _____ _____    ______ ____
ROOT
ATOM      1  N   UNL     1       3.571   4.980  17.822  0.00  0.00    +0.000 N 
ATOM      2  C   UNL     1       4.122   5.006  19.078  0.00  0.00    +0.000 C 
ATOM      3  O   UNL     1       5.300   5.193  19.358  0.00  0.00    +0.000 OA
ATOM      4  C   UNL     1       3.023   4.714  20.069  0.00  0.00    +0.000 C 
ATOM      5  C   UNL     1       3.232   3.403  20.829  0.00  0.00    +0.000 C 
ATOM      6  C   UNL     1       2.079   3.166  21.765  0.00  0.00    +0.000 C 
ATOM      7  C   UNL     1       1.017   2.875  20.998  0.00  0.00    +0.000 C 
ATOM      8  C   UNL     1       1.503   2.926  19.581  0.00  0.00    +0.000 C 
ATOM      9  O   UNL     1       2.863   2.445  19.798  0.00  0.00    +0.000 OA
ATOM     10  C   UNL     1       1.802   4.367  19.183  0.00  0.00    +0.000 C 
ATOM     11  C   UNL     1       2.330   4.389  17.782  0.00  0.00    +0.000 C 
ATOM     12  O   UNL     1       1.754   3.887  16.833  0.00  0.00    +0.000 OA
ENDROOT
BRANCH   1  15
ATOM     13  O   UNL     1       5.016   2.986  16.734  0.00  0.00    +0.000 OA
ATOM     14  C   UNL     1       5.050   4.089  16.190  0.00  0.00    +0.000 C 
ATOM     15  N   UNL     1       4.340   5.178  16.668  0.00  0.00    +0.000 N 
ATOM     16  H   UNL     1       4.094   5.984  16.104  0.00  0.00    +0.000 HD
BRANCH  14  17
ATOM     17  C   UNL     1       5.870   4.247  14.955  0.00  0.00    +0.000 A 
ATOM     18  C   UNL     1       5.441   3.543  13.823  0.00  0.00    +0.000 A 
ATOM     19  C   UNL     1       6.142   3.688  12.641  0.00  0.00    +0.000 A 
ATOM     20  N   UNL     1       7.229   4.474  12.520  0.00  0.00    +0.000 NA
ATOM     21  C   UNL     1       7.638   5.129  13.627  0.00  0.00    +0.000 A 
ATOM     22  C   UNL     1       7.006   5.049  14.861  0.00  0.00    +0.000 A 
ENDBRANCH  14  17
ENDBRANCH   1  15
TORSDOF 2
ENDMDL
MODEL 7
REMARK VINA RESULT:      -7.2      1.041      1.458
REMARK  Name = 
REMARK  2 active torsions:
REMARK  status: ('A' for Active; 'I' for Inactive)
REMARK    1  A    between atoms: C_2  and  C_16
REMARK    2  A    between atoms: N_3  and  N_4
REMARK                            x       y       z     vdW  Elec       q    Type
REMARK                         _______ _______ _______ _____ _____    ______ ____
ROOT
ATOM      1  N   UNL     1       3.529   4.962  17.842  0.00  0.00    +0.000 N 
ATOM      2  C   UNL     1       4.125   4.943  19.076  0.00  0.00    +0.000 C 
ATOM      3  O   UNL     1       5.317   5.087  19.317  0.00  0.00    +0.000 OA
ATOM      4  C   UNL     1       3.053   4.663  20.100  0.00  0.00    +0.000 C 
ATOM      5  C   UNL     1       3.248   3.330  20.824  0.00  0.00    +0.000 C 
ATOM      6  C   UNL     1       2.122   3.108  21.797  0.00  0.00    +0.000 C 
ATOM      7  C   UNL     1       1.025   2.867  21.062  0.00  0.00    +0.000 C 
ATOM      8  C   UNL     1       1.461   2.934  19.630  0.00  0.00    +0.000 C 
ATOM      9  O   UNL     1       2.812   2.407  19.788  0.00  0.00    +0.000 OA
ATOM     10  C   UNL     1       1.791   4.374  19.252  0.00  0.00    +0.000 C 
ATOM     11  C   UNL     1       2.270   4.411  17.834  0.00  0.00    +0.000 C 
ATOM     12  O   UNL     1       1.644   3.948  16.896  0.00  0.00    +0.000 OA
ENDROOT
BRANCH   1  15
ATOM     13  O   UNL     1       4.940   2.970  16.706  0.00  0.00    +0.000 OA
ATOM     14  C   UNL     1       4.957   4.075  16.163  0.00  0.00    +0.000 C 
ATOM     15  N   UNL     1       4.262   5.163  16.664  0.00  0.00    +0.000 N 
ATOM     16  H   UNL     1       3.998   5.970  16.110  0.00  0.00    +0.000 HD
BRANCH  14  17
ATOM     17  C   UNL     1       5.739   4.235  14.904  0.00  0.00    +0.000 A 
ATOM     18  C   UNL     1       6.863   5.069  14.965  0.00  0.00    +0.000 A 
ATOM     19  C   UNL     1       7.645   5.218  13.837  0.00  0.00    +0.000 A 
ATOM     20  N   UNL     1       7.380   4.603  12.668  0.00  0.00    +0.000 NA
ATOM     21  C   UNL     1       6.282   3.818  12.624  0.00  0.00    +0.000 A 
ATOM     22  C   UNL     1       5.431   3.605  13.699  0.00  0.00    +0.000 A 
ENDBRANCH  14  17
ENDBRANCH   1  15
TORSDOF 2
ENDMDL
MODEL 8
REMARK VINA RESULT:      -7.1      1.019      2.319
REMARK  Name = 
REMARK  2 active torsions:
REMARK  status: ('A' for Active; 'I' for Inactive)
REMARK    1  A    between atoms: C_2  and  C_16
REMARK    2  A    between atoms: N_3  and  N_4
REMARK                            x       y       z     vdW  Elec       q    Type
REMARK                         _______ _______ _______ _____ _____    ______ ____
ROOT
ATOM      1  N   UNL     1       4.350   3.037  17.619  0.00  0.00    +0.000 N 
ATOM      2  C   UNL     1       3.004   2.780  17.610  0.00  0.00    +0.000 C 
ATOM      3  O   UNL     1       2.309   2.543  16.630  0.00  0.00    +0.000 OA
ATOM      4  C   UNL     1       2.506   2.885  19.030  0.00  0.00    +0.000 C 
ATOM      5  C   UNL     1       1.516   4.033  19.236  0.00  0.00    +0.000 C 
ATOM      6  C   UNL     1       1.098   4.095  20.680  0.00  0.00    +0.000 C 
ATOM      7  C   UNL     1       2.167   4.524  21.368  0.00  0.00    +0.000 C 
ATOM      8  C   UNL     1       3.255   4.734  20.359  0.00  0.00    +0.000 C 
ATOM      9  O   UNL     1       2.430   5.166  19.235  0.00  0.00    +0.000 OA
ATOM     10  C   UNL     1       3.735   3.391  19.822  0.00  0.00    +0.000 C 
ATOM     11  C   UNL     1       4.787   3.626  18.782  0.00  0.00    +0.000 C 
ATOM     12  O   UNL     1       5.788   4.295  18.970  0.00  0.00    +0.000 OA
ENDROOT
BRANCH   1  15
ATOM     13  O   UNL     1       4.525   5.243  16.087  0.00  0.00    +0.000 OA
ATOM     14  C   UNL     1       5.134   4.237  15.725  0.00  0.00    +0.000 C 
ATOM     15  N   UNL     1       5.113   3.053  16.444  0.00  0.00    +0.000 N 
ATOM     16  H   UNL     1       5.818   2.329  16.362  0.00  0.00    +0.000 HD
BRANCH  14  17
ATOM     17  C   UNL     1       5.944   4.308  14.475  0.00  0.00    +0.000 A 
ATOM     18  C   UNL     1       7.058   5.157  14.498  0.00  0.00    +0.000 A 
ATOM     19  C   UNL     1       7.867   5.227  13.379  0.00  0.00    +0.000 A 
ATOM     20  N   UNL     1       7.635   4.520  12.256  0.00  0.00    +0.000 NA
ATOM     21  C   UNL     1       6.546   3.723  12.248  0.00  0.00    +0.000 A 
ATOM     22  C   UNL     1       5.671   3.584  13.316  0.00  0.00    +0.000 A 
ENDBRANCH  14  17
ENDBRANCH   1  15
TORSDOF 2
ENDMDL
MODEL 9
REMARK VINA RESULT:      -6.7      1.306      1.633
REMARK  Name = 
REMARK  2 active torsions:
REMARK  status: ('A' for Active; 'I' for Inactive)
REMARK    1  A    between atoms: C_2  and  C_16
REMARK    2  A    between atoms: N_3  and  N_4
REMARK                            x       y       z     vdW  Elec       q    Type
REMARK                         _______ _______ _______ _____ _____    ______ ____
ROOT
ATOM      1  N   UNL     1       3.163   3.775  17.110  0.00  0.00    +0.000 N 
ATOM      2  C   UNL     1       2.787   4.864  17.853  0.00  0.00    +0.000 C 
ATOM      3  O   UNL     1       3.007   6.041  17.593  0.00  0.00    +0.000 OA
ATOM      4  C   UNL     1       2.086   4.358  19.089  0.00  0.00    +0.000 C 
ATOM      5  C   UNL     1       2.835   4.685  20.382  0.00  0.00    +0.000 C 
ATOM      6  C   UNL     1       2.094   4.115  21.560  0.00  0.00    +0.000 C 
ATOM      7  C   UNL     1       2.232   2.782  21.489  0.00  0.00    +0.000 C 
ATOM      8  C   UNL     1       3.061   2.514  20.270  0.00  0.00    +0.000 C 
ATOM      9  O   UNL     1       3.906   3.703  20.315  0.00  0.00    +0.000 OA
ATOM     10  C   UNL     1       2.255   2.821  19.013  0.00  0.00    +0.000 C 
ATOM     11  C   UNL     1       3.117   2.593  17.810  0.00  0.00    +0.000 C 
ATOM     12  O   UNL     1       3.709   1.551  17.588  0.00  0.00    +0.000 OA
ENDROOT
BRANCH   1  15
ATOM     13  O   UNL     1       5.816   4.230  17.088  0.00  0.00    +0.000 OA
ATOM     14  C   UNL     1       5.235   4.140  16.007  0.00  0.00    +0.000 C 
ATOM     15  N   UNL     1       3.874   3.903  15.909  0.00  0.00    +0.000 N 
ATOM     16  H   UNL     1       3.423   3.523  15.084  0.00  0.00    +0.000 HD
BRANCH  14  17
ATOM     17  C   UNL     1       6.037   4.268  14.757  0.00  0.00    +0.000 A 
ATOM     18  C   UNL     1       5.586   3.543  13.645  0.00  0.00    +0.000 A 
ATOM     19  C   UNL     1       6.269   3.660  12.450  0.00  0.00    +0.000 A 
ATOM     20  N   UNL     1       7.359   4.437  12.296  0.00  0.00    +0.000 NA
ATOM     21  C   UNL     1       7.789   5.112  13.384  0.00  0.00    +0.000 A 
ATOM     22  C   UNL     1       7.176   5.061  14.628  0.00  0.00    +0.000 A 
ENDBRANCH  14  17
ENDBRANCH   1  15
TORSDOF 2
ENDMDL
