MODEL 1
REMARK VINA RESULT:      -7.5      0.000      0.000
REMARK  Name = 
REMARK  8 active torsions:
REMARK  status: ('A' for Active; 'I' for Inactive)
REMARK    1  A    between atoms: C_1  and  C_2
REMARK    2  A    between atoms: C_5  and  N_6
REMARK    3  A    between atoms: N_6  and  C_7
REMARK    4  A    between atoms: N_6  and  S_8
REMARK    5  A    between atoms: S_8  and  C_11
REMARK    6  A    between atoms: C_12  and  C_13
REMARK    7  A    between atoms: C_21  and  C_22
REMARK    8  A    between atoms: C_22  and  O_24
REMARK                            x       y       z     vdW  Elec       q    Type
REMARK                         _______ _______ _______ _____ _____    ______ ____
ROOT
ATOM      1  C   UNL     1       3.641   4.786  18.719  0.00  0.00    +0.000 A 
ATOM      2  C   UNL     1       2.382   5.527  18.861  0.00  0.00    +0.000 A 
ATOM      3  C   UNL     1       1.317   4.653  19.032  0.00  0.00    +0.000 A 
ATOM      4  S   UNL     1       1.774   3.024  19.065  0.00  0.00    +0.000 S 
ATOM      5  C   UNL     1       3.444   3.425  18.984  0.00  0.00    +0.000 A 
ENDROOT
BRANCH   2   6
ATOM      6  C   UNL     1       2.088   6.966  18.897  0.00  0.00    +0.000 A 
ATOM      7  C   UNL     1       1.834   7.617  20.098  0.00  0.00    +0.000 A 
ATOM      8  C   UNL     1       1.484   8.966  20.146  0.00  0.00    +0.000 A 
ATOM      9  C   UNL     1       1.475   9.721  18.983  0.00  0.00    +0.000 A 
ATOM     10  C   UNL     1       1.824   9.123  17.777  0.00  0.00    +0.000 A 
ATOM     11  C   UNL     1       2.108   7.752  17.729  0.00  0.00    +0.000 A 
ENDBRANCH   2   6
BRANCH   1  12
ATOM     12  S   UNL     1       5.269   5.444  18.521  0.00  0.00    +0.000 S 
ATOM     13  O   UNL     1       5.736   5.569  19.888  0.00  0.00    +0.000 OA
ATOM     14  O   UNL     1       4.996   6.629  17.739  0.00  0.00    +0.000 OA
BRANCH  12  15
ATOM     15  N   UNL     1       6.400   4.444  17.724  0.00  0.00    +0.000 N 
ATOM     16  C   UNL     1       7.805   4.548  18.203  0.00  0.00    +0.000 C 
BRANCH  15  21
ATOM     17  C   UNL     1       6.183   3.690  12.000  0.00  0.00    +0.000 C 
ATOM     18  C   UNL     1       6.217   3.972  13.478  0.00  0.00    +0.000 A 
ATOM     19  C   UNL     1       7.233   4.748  14.051  0.00  0.00    +0.000 A 
ATOM     20  C   UNL     1       7.275   4.970  15.437  0.00  0.00    +0.000 A 
ATOM     21  C   UNL     1       6.306   4.402  16.272  0.00  0.00    +0.000 A 
ATOM     22  C   UNL     1       5.272   3.657  15.698  0.00  0.00    +0.000 A 
ATOM     23  C   UNL     1       5.228   3.441  14.314  0.00  0.00    +0.000 A 
ENDBRANCH  15  21
ENDBRANCH  12  15
ENDBRANCH   1  12
BRANCH   5  24
ATOM     24  C   UNL     1       4.348   2.306  19.215  0.00  0.00    +0.000 C 
ATOM     25  O   UNL     1       5.206   2.260  20.088  0.00  0.00    +0.000 OA
BRANCH  24  26
ATOM     26  O   UNL     1       4.289   1.352  18.252  0.00  0.00    +0.000 OA
ATOM     27  H   UNL     1       4.881   0.586  18.361  0.00  0.00    +0.000 HD
ENDBRANCH  24  26
ENDBRANCH   5  24
TORSDOF 6
ENDMDL
MODEL 2
REMARK VINA RESULT:      -7.3      0.141      1.132
REMARK  Name = 
REMARK  8 active torsions:
REMARK  status: ('A' for Active; 'I' for Inactive)
REMARK    1  A    between atoms: C_1  and  C_2
REMARK    2  A    between atoms: C_5  and  N_6
REMARK    3  A    between atoms: N_6  and  C_7
REMARK    4  A    between atoms: N_6  and  S_8
REMARK    5  A    between atoms: S_8  and  C_11
REMARK    6  A    between atoms: C_12  and  C_13
REMARK    7  A    between atoms: C_21  and  C_22
REMARK    8  A    between atoms: C_22  and  O_24
REMARK                            x       y       z     vdW  Elec       q    Type
REMARK                         _______ _______ _______ _____ _____    ______ ____
ROOT
ATOM      1  C   UNL     1       3.622   4.755  18.576  0.00  0.00    +0.000 A 
ATOM      2  C   UNL     1       2.361   5.490  18.736  0.00  0.00    +0.000 A 
ATOM      3  C   UNL     1       1.291   4.610  18.835  0.00  0.00    +0.000 A 
ATOM      4  S   UNL     1       1.746   2.981  18.784  0.00  0.00    +0.000 S 
ATOM      5  C   UNL     1       3.417   3.382  18.759  0.00  0.00    +0.000 A 
ENDROOT
BRANCH   2   6
ATOM      6  C   UNL     1       2.067   6.925  18.848  0.00  0.00    +0.000 A 
ATOM      7  C   UNL     1       2.015   7.736  17.721  0.00  0.00    +0.000 A 
ATOM      8  C   UNL     1       1.808   9.113  17.812  0.00  0.00    +0.000 A 
ATOM      9  C   UNL     1       1.550   9.694  19.044  0.00  0.00    +0.000 A 
ATOM     10  C   UNL     1       1.494   8.893  20.179  0.00  0.00    +0.000 A 
ATOM     11  C   UNL     1       1.770   7.523  20.087  0.00  0.00    +0.000 A 
ENDBRANCH   2   6
BRANCH   1  12
ATOM     12  S   UNL     1       5.254   5.420  18.449  0.00  0.00    +0.000 S 
ATOM     13  O   UNL     1       5.678   5.504  19.833  0.00  0.00    +0.000 OA
ATOM     14  O   UNL     1       5.003   6.628  17.696  0.00  0.00    +0.000 OA
BRANCH  12  15
ATOM     15  N   UNL     1       6.411   4.446  17.657  0.00  0.00    +0.000 N 
ATOM     16  C   UNL     1       7.808   4.572  18.151  0.00  0.00    +0.000 C 
BRANCH  15  21
ATOM     17  C   UNL     1       6.263   3.727  11.926  0.00  0.00    +0.000 C 
ATOM     18  C   UNL     1       6.278   3.999  13.406  0.00  0.00    +0.000 A 
ATOM     19  C   UNL     1       7.275   4.788  13.994  0.00  0.00    +0.000 A 
ATOM     20  C   UNL     1       7.300   5.001  15.382  0.00  0.00    +0.000 A 
ATOM     21  C   UNL     1       6.332   4.412  16.204  0.00  0.00    +0.000 A 
ATOM     22  C   UNL     1       5.316   3.655  15.614  0.00  0.00    +0.000 A 
ATOM     23  C   UNL     1       5.289   3.448  14.229  0.00  0.00    +0.000 A 
ENDBRANCH  15  21
ENDBRANCH  12  15
ENDBRANCH   1  12
BRANCH   5  24
ATOM     24  C   UNL     1       4.316   2.250  18.944  0.00  0.00    +0.000 C 
ATOM     25  O   UNL     1       4.220   1.171  18.372  0.00  0.00    +0.000 OA
BRANCH  24  26
ATOM     26  O   UNL     1       5.200   2.419  19.960  0.00  0.00    +0.000 OA
ATOM     27  H   UNL     1       6.132   2.550  19.709  0.00  0.00    +0.000 HD
ENDBRANCH  24  26
ENDBRANCH   5  24
TORSDOF 6
ENDMDL
MODEL 3
REMARK VINA RESULT:      -6.8      0.938      1.587
REMARK  Name = 
REMARK  8 active torsions:
REMARK  status: ('A' for Active; 'I' for Inactive)
REMARK    1  A    between atoms: C_1  and  C_2
REMARK    2  A    between atoms: C_5  and  N_6
REMARK    3  A    between atoms: N_6  and  C_7
REMARK    4  A    between atoms: N_6  and  S_8
REMARK    5  A    between atoms: S_8  and  C_11
REMARK    6  A    between atoms: C_12  and  C_13
REMARK    7  A    between atoms: C_21  and  C_22
REMARK    8  A    between atoms: C_22  and  O_24
REMARK                            x       y       z     vdW  Elec       q    Type
REMARK                         _______ _______ _______ _____ _____    ______ ____
ROOT
ATOM      1  C   UNL     1       3.676   4.292  18.652  0.00  0.00    +0.000 A 
ATOM      2  C   UNL     1       2.427   5.061  18.699  0.00  0.00    +0.000 A 
ATOM      3  C   UNL     1       1.329   4.212  18.658  0.00  0.00    +0.000 A 
ATOM      4  S   UNL     1       1.741   2.572  18.607  0.00  0.00    +0.000 S 
ATOM      5  C   UNL     1       3.415   2.921  18.771  0.00  0.00    +0.000 A 
ENDROOT
BRANCH   2   6
ATOM      6  C   UNL     1       2.163   6.501  18.822  0.00  0.00    +0.000 A 
ATOM      7  C   UNL     1       1.986   7.094  20.066  0.00  0.00    +0.000 A 
ATOM      8  C   UNL     1       1.666   8.445  20.199  0.00  0.00    +0.000 A 
ATOM      9  C   UNL     1       1.610   9.259  19.078  0.00  0.00    +0.000 A 
ATOM     10  C   UNL     1       1.882   8.716  17.827  0.00  0.00    +0.000 A 
ATOM     11  C   UNL     1       2.137   7.345  17.695  0.00  0.00    +0.000 A 
ENDBRANCH   2   6
BRANCH   1  12
ATOM     12  S   UNL     1       5.331   4.909  18.717  0.00  0.00    +0.000 S 
ATOM     13  O   UNL     1       6.128   3.698  18.731  0.00  0.00    +0.000 OA
ATOM     14  O   UNL     1       5.268   5.746  19.894  0.00  0.00    +0.000 OA
BRANCH  12  15
ATOM     15  N   UNL     1       5.859   5.808  17.366  0.00  0.00    +0.000 N 
ATOM     16  C   UNL     1       5.216   7.137  17.182  0.00  0.00    +0.000 C 
BRANCH  15  21
ATOM     17  C   UNL     1       6.395   3.423  12.131  0.00  0.00    +0.000 C 
ATOM     18  C   UNL     1       6.251   3.962  13.528  0.00  0.00    +0.000 A 
ATOM     19  C   UNL     1       5.038   3.877  14.223  0.00  0.00    +0.000 A 
ATOM     20  C   UNL     1       4.906   4.420  15.512  0.00  0.00    +0.000 A 
ATOM     21  C   UNL     1       5.987   5.071  16.117  0.00  0.00    +0.000 A 
ATOM     22  C   UNL     1       7.208   5.125  15.440  0.00  0.00    +0.000 A 
ATOM     23  C   UNL     1       7.340   4.578  14.156  0.00  0.00    +0.000 A 
ENDBRANCH  15  21
ENDBRANCH  12  15
ENDBRANCH   1  12
BRANCH   5  24
ATOM     24  C   UNL     1       4.257   1.757  19.016  0.00  0.00    +0.000 C 
ATOM     25  O   UNL     1       4.284   0.747  18.325  0.00  0.00    +0.000 OA
BRANCH  24  26
ATOM     26  O   UNL     1       4.910   1.800  20.206  0.00  0.00    +0.000 OA
ATOM     27  H   UNL     1       4.557   2.415  20.874  0.00  0.00    +0.000 HD
ENDBRANCH  24  26
ENDBRANCH   5  24
TORSDOF 6
ENDMDL
MODEL 4
REMARK VINA RESULT:      -6.7      2.039      6.228
REMARK  Name = 
REMARK  8 active torsions:
REMARK  status: ('A' for Active; 'I' for Inactive)
REMARK    1  A    between atoms: C_1  and  C_2
REMARK    2  A    between atoms: C_5  and  N_6
REMARK    3  A    between atoms: N_6  and  C_7
REMARK    4  A    between atoms: N_6  and  S_8
REMARK    5  A    between atoms: S_8  and  C_11
REMARK    6  A    between atoms: C_12  and  C_13
REMARK    7  A    between atoms: C_21  and  C_22
REMARK    8  A    between atoms: C_22  and  O_24
REMARK                            x       y       z     vdW  Elec       q    Type
REMARK                         _______ _______ _______ _____ _____    ______ ____
ROOT
ATOM      1  C   UNL     1       3.427   3.878  19.011  0.00  0.00    +0.000 A 
ATOM      2  C   UNL     1       4.160   3.276  17.890  0.00  0.00    +0.000 A 
ATOM      3  C   UNL     1       3.863   1.924  17.783  0.00  0.00    +0.000 A 
ATOM      4  S   UNL     1       2.738   1.383  18.925  0.00  0.00    +0.000 S 
ATOM      5  C   UNL     1       2.496   2.972  19.533  0.00  0.00    +0.000 A 
ENDROOT
BRANCH   2   6
ATOM      6  C   UNL     1       5.071   3.850  16.890  0.00  0.00    +0.000 A 
ATOM      7  C   UNL     1       4.660   4.053  15.579  0.00  0.00    +0.000 A 
ATOM      8  C   UNL     1       5.531   4.530  14.599  0.00  0.00    +0.000 A 
ATOM      9  C   UNL     1       6.819   4.908  14.942  0.00  0.00    +0.000 A 
ATOM     10  C   UNL     1       7.229   4.813  16.267  0.00  0.00    +0.000 A 
ATOM     11  C   UNL     1       6.370   4.269  17.231  0.00  0.00    +0.000 A 
ENDBRANCH   2   6
BRANCH   1  12
ATOM     12  S   UNL     1       3.436   5.568  19.528  0.00  0.00    +0.000 S 
ATOM     13  O   UNL     1       4.838   5.814  19.805  0.00  0.00    +0.000 OA
ATOM     14  O   UNL     1       2.481   5.531  20.612  0.00  0.00    +0.000 OA
BRANCH  12  15
ATOM     15  N   UNL     1       2.975   6.722  18.358  0.00  0.00    +0.000 N 
ATOM     16  C   UNL     1       4.059   7.200  17.459  0.00  0.00    +0.000 C 
BRANCH  15  21
ATOM     17  C   UNL     1       0.066  11.381  20.152  0.00  0.00    +0.000 C 
ATOM     18  C   UNL     1       0.750  10.120  19.698  0.00  0.00    +0.000 A 
ATOM     19  C   UNL     1       1.087   9.105  20.603  0.00  0.00    +0.000 A 
ATOM     20  C   UNL     1       1.761   7.950  20.172  0.00  0.00    +0.000 A 
ATOM     21  C   UNL     1       2.120   7.804  18.828  0.00  0.00    +0.000 A 
ATOM     22  C   UNL     1       1.753   8.799  17.918  0.00  0.00    +0.000 A 
ATOM     23  C   UNL     1       1.076   9.948  18.348  0.00  0.00    +0.000 A 
ENDBRANCH  15  21
ENDBRANCH  12  15
ENDBRANCH   1  12
BRANCH   5  24
ATOM     24  C   UNL     1       1.378   3.104  20.459  0.00  0.00    +0.000 C 
ATOM     25  O   UNL     1       1.333   2.625  21.585  0.00  0.00    +0.000 OA
BRANCH  24  26
ATOM     26  O   UNL     1       0.277   3.670  19.903  0.00  0.00    +0.000 OA
ATOM     27  H   UNL     1       0.418   4.192  19.092  0.00  0.00    +0.000 HD
ENDBRANCH  24  26
ENDBRANCH   5  24
TORSDOF 6
ENDMDL
MODEL 5
REMARK VINA RESULT:      -6.6      1.253      1.715
REMARK  Name = 
REMARK  8 active torsions:
REMARK  status: ('A' for Active; 'I' for Inactive)
REMARK    1  A    between atoms: C_1  and  C_2
REMARK    2  A    between atoms: C_5  and  N_6
REMARK    3  A    between atoms: N_6  and  C_7
REMARK    4  A    between atoms: N_6  and  S_8
REMARK    5  A    between atoms: S_8  and  C_11
REMARK    6  A    between atoms: C_12  and  C_13
REMARK    7  A    between atoms: C_21  and  C_22
REMARK    8  A    between atoms: C_22  and  O_24
REMARK                            x       y       z     vdW  Elec       q    Type
REMARK                         _______ _______ _______ _____ _____    ______ ____
ROOT
ATOM      1  C   UNL     1       3.079   4.401  19.194  0.00  0.00    +0.000 A 
ATOM      2  C   UNL     1       2.325   5.408  19.950  0.00  0.00    +0.000 A 
ATOM      3  C   UNL     1       1.910   4.894  21.171  0.00  0.00    +0.000 A 
ATOM      4  S   UNL     1       2.417   3.303  21.445  0.00  0.00    +0.000 S 
ATOM      5  C   UNL     1       3.331   3.277  19.990  0.00  0.00    +0.000 A 
ENDROOT
BRANCH   2   6
ATOM      6  C   UNL     1       1.995   6.811  19.661  0.00  0.00    +0.000 A 
ATOM      7  C   UNL     1       1.567   7.669  20.666  0.00  0.00    +0.000 A 
ATOM      8  C   UNL     1       1.182   8.983  20.399  0.00  0.00    +0.000 A 
ATOM      9  C   UNL     1       1.311   9.496  19.118  0.00  0.00    +0.000 A 
ATOM     10  C   UNL     1       1.831   8.693  18.109  0.00  0.00    +0.000 A 
ATOM     11  C   UNL     1       2.152   7.354  18.372  0.00  0.00    +0.000 A 
ENDBRANCH   2   6
BRANCH   1  12
ATOM     12  S   UNL     1       3.846   4.583  17.612  0.00  0.00    +0.000 S 
ATOM     13  O   UNL     1       3.750   6.010  17.369  0.00  0.00    +0.000 OA
ATOM     14  O   UNL     1       3.065   3.661  16.819  0.00  0.00    +0.000 OA
BRANCH  12  15
ATOM     15  N   UNL     1       5.506   4.198  17.525  0.00  0.00    +0.000 N 
ATOM     16  C   UNL     1       6.363   4.786  18.590  0.00  0.00    +0.000 C 
BRANCH  15  21
ATOM     17  C   UNL     1       7.635   5.081  12.227  0.00  0.00    +0.000 C 
ATOM     18  C   UNL     1       7.125   4.774  13.609  0.00  0.00    +0.000 A 
ATOM     19  C   UNL     1       6.168   3.774  13.829  0.00  0.00    +0.000 A 
ATOM     20  C   UNL     1       5.671   3.524  15.118  0.00  0.00    +0.000 A 
ATOM     21  C   UNL     1       6.115   4.286  16.205  0.00  0.00    +0.000 A 
ATOM     22  C   UNL     1       7.095   5.259  15.993  0.00  0.00    +0.000 A 
ATOM     23  C   UNL     1       7.595   5.504  14.706  0.00  0.00    +0.000 A 
ENDBRANCH  15  21
ENDBRANCH  12  15
ENDBRANCH   1  12
BRANCH   5  24
ATOM     24  C   UNL     1       4.205   2.120  19.843  0.00  0.00    +0.000 C 
ATOM     25  O   UNL     1       5.187   1.884  20.536  0.00  0.00    +0.000 OA
BRANCH  24  26
ATOM     26  O   UNL     1       3.947   1.381  18.734  0.00  0.00    +0.000 OA
ATOM     27  H   UNL     1       3.567   1.857  17.974  0.00  0.00    +0.000 HD
ENDBRANCH  24  26
ENDBRANCH   5  24
TORSDOF 6
ENDMDL
MODEL 6
REMARK VINA RESULT:      -6.6      2.041      6.166
REMARK  Name = 
REMARK  8 active torsions:
REMARK  status: ('A' for Active; 'I' for Inactive)
REMARK    1  A    between atoms: C_1  and  C_2
REMARK    2  A    between atoms: C_5  and  N_6
REMARK    3  A    between atoms: N_6  and  C_7
REMARK    4  A    between atoms: N_6  and  S_8
REMARK    5  A    between atoms: S_8  and  C_11
REMARK    6  A    between atoms: C_12  and  C_13
REMARK    7  A    between atoms: C_21  and  C_22
REMARK    8  A    between atoms: C_22  and  O_24
REMARK                            x       y       z     vdW  Elec       q    Type
REMARK                         _______ _______ _______ _____ _____    ______ ____
ROOT
ATOM      1  C   UNL     1       3.457   3.901  18.976  0.00  0.00    +0.000 A 
ATOM      2  C   UNL     1       4.203   3.285  17.872  0.00  0.00    +0.000 A 
ATOM      3  C   UNL     1       3.900   1.934  17.772  0.00  0.00    +0.000 A 
ATOM      4  S   UNL     1       2.754   1.410  18.901  0.00  0.00    +0.000 S 
ATOM      5  C   UNL     1       2.513   3.005  19.492  0.00  0.00    +0.000 A 
ENDROOT
BRANCH   2   6
ATOM      6  C   UNL     1       5.133   3.844  16.881  0.00  0.00    +0.000 A 
ATOM      7  C   UNL     1       6.427   4.205  17.236  0.00  0.00    +0.000 A 
ATOM      8  C   UNL     1       7.301   4.802  16.328  0.00  0.00    +0.000 A 
ATOM      9  C   UNL     1       6.921   4.964  15.004  0.00  0.00    +0.000 A 
ATOM     10  C   UNL     1       5.669   4.520  14.594  0.00  0.00    +0.000 A 
ATOM     11  C   UNL     1       4.773   3.983  15.528  0.00  0.00    +0.000 A 
ENDBRANCH   2   6
BRANCH   1  12
ATOM     12  S   UNL     1       3.470   5.595  19.479  0.00  0.00    +0.000 S 
ATOM     13  O   UNL     1       4.869   5.835  19.776  0.00  0.00    +0.000 OA
ATOM     14  O   UNL     1       2.498   5.574  20.549  0.00  0.00    +0.000 OA
BRANCH  12  15
ATOM     15  N   UNL     1       3.034   6.742  18.292  0.00  0.00    +0.000 N 
ATOM     16  C   UNL     1       4.114   7.135  17.346  0.00  0.00    +0.000 C 
BRANCH  15  21
ATOM     17  C   UNL     1      -0.517  10.879  20.203  0.00  0.00    +0.000 C 
ATOM     18  C   UNL     1       0.471   9.864  19.698  0.00  0.00    +0.000 A 
ATOM     19  C   UNL     1       0.891   9.854  18.361  0.00  0.00    +0.000 A 
ATOM     20  C   UNL     1       1.783   8.876  17.894  0.00  0.00    +0.000 A 
ATOM     21  C   UNL     1       2.257   7.882  18.758  0.00  0.00    +0.000 A 
ATOM     22  C   UNL     1       1.868   7.912  20.100  0.00  0.00    +0.000 A 
ATOM     23  C   UNL     1       0.981   8.892  20.567  0.00  0.00    +0.000 A 
ENDBRANCH  15  21
ENDBRANCH  12  15
ENDBRANCH   1  12
BRANCH   5  24
ATOM     24  C   UNL     1       1.382   3.152  20.400  0.00  0.00    +0.000 C 
ATOM     25  O   UNL     1       1.320   2.689  21.532  0.00  0.00    +0.000 OA
BRANCH  24  26
ATOM     26  O   UNL     1       0.290   3.712  19.820  0.00  0.00    +0.000 OA
ATOM     27  H   UNL     1      -0.495   3.823  20.386  0.00  0.00    +0.000 HD
ENDBRANCH  24  26
ENDBRANCH   5  24
TORSDOF 6
ENDMDL
MODEL 7
REMARK VINA RESULT:      -6.5      2.215      3.440
REMARK  Name = 
REMARK  8 active torsions:
REMARK  status: ('A' for Active; 'I' for Inactive)
REMARK    1  A    between atoms: C_1  and  C_2
REMARK    2  A    between atoms: C_5  and  N_6
REMARK    3  A    between atoms: N_6  and  C_7
REMARK    4  A    between atoms: N_6  and  S_8
REMARK    5  A    between atoms: S_8  and  C_11
REMARK    6  A    between atoms: C_12  and  C_13
REMARK    7  A    between atoms: C_21  and  C_22
REMARK    8  A    between atoms: C_22  and  O_24
REMARK                            x       y       z     vdW  Elec       q    Type
REMARK                         _______ _______ _______ _____ _____    ______ ____
ROOT
ATOM      1  C   UNL     1       3.726   4.181  18.961  0.00  0.00    +0.000 A 
ATOM      2  C   UNL     1       2.518   5.005  19.094  0.00  0.00    +0.000 A 
ATOM      3  C   UNL     1       1.422   4.218  19.422  0.00  0.00    +0.000 A 
ATOM      4  S   UNL     1       1.797   2.578  19.609  0.00  0.00    +0.000 S 
ATOM      5  C   UNL     1       3.476   2.871  19.387  0.00  0.00    +0.000 A 
ENDROOT
BRANCH   2   6
ATOM      6  C   UNL     1       2.300   6.454  18.987  0.00  0.00    +0.000 A 
ATOM      7  C   UNL     1       1.905   7.203  20.089  0.00  0.00    +0.000 A 
ATOM      8  C   UNL     1       1.626   8.567  19.991  0.00  0.00    +0.000 A 
ATOM      9  C   UNL     1       1.833   9.233  18.793  0.00  0.00    +0.000 A 
ATOM     10  C   UNL     1       2.325   8.531  17.698  0.00  0.00    +0.000 A 
ATOM     11  C   UNL     1       2.538   7.149  17.787  0.00  0.00    +0.000 A 
ENDBRANCH   2   6
BRANCH   1  12
ATOM     12  S   UNL     1       5.369   4.719  18.596  0.00  0.00    +0.000 S 
ATOM     13  O   UNL     1       5.997   3.516  18.086  0.00  0.00    +0.000 OA
ATOM     14  O   UNL     1       5.774   5.258  19.875  0.00  0.00    +0.000 OA
BRANCH  12  15
ATOM     15  N   UNL     1       5.528   5.894  17.369  0.00  0.00    +0.000 N 
ATOM     16  C   UNL     1       5.529   5.376  15.974  0.00  0.00    +0.000 C 
BRANCH  15  21
ATOM     17  C   UNL     1       9.356   9.975  18.807  0.00  0.00    +0.000 C 
ATOM     18  C   UNL     1       8.393   8.913  18.351  0.00  0.00    +0.000 A 
ATOM     19  C   UNL     1       7.338   9.210  17.478  0.00  0.00    +0.000 A 
ATOM     20  C   UNL     1       6.423   8.217  17.091  0.00  0.00    +0.000 A 
ATOM     21  C   UNL     1       6.544   6.914  17.587  0.00  0.00    +0.000 A 
ATOM     22  C   UNL     1       7.617   6.608  18.428  0.00  0.00    +0.000 A 
ATOM     23  C   UNL     1       8.533   7.598  18.809  0.00  0.00    +0.000 A 
ENDBRANCH  15  21
ENDBRANCH  12  15
ENDBRANCH   1  12
BRANCH   5  24
ATOM     24  C   UNL     1       4.335   1.733  19.687  0.00  0.00    +0.000 C 
ATOM     25  O   UNL     1       5.064   1.637  20.667  0.00  0.00    +0.000 OA
BRANCH  24  26
ATOM     26  O   UNL     1       4.406   0.825  18.680  0.00  0.00    +0.000 OA
ATOM     27  H   UNL     1       4.735  -0.061  18.915  0.00  0.00    +0.000 HD
ENDBRANCH  24  26
ENDBRANCH   5  24
TORSDOF 6
ENDMDL
MODEL 8
REMARK VINA RESULT:      -6.5      1.385      2.185
REMARK  Name = 
REMARK  8 active torsions:
REMARK  status: ('A' for Active; 'I' for Inactive)
REMARK    1  A    between atoms: C_1  and  C_2
REMARK    2  A    between atoms: C_5  and  N_6
REMARK    3  A    between atoms: N_6  and  C_7
REMARK    4  A    between atoms: N_6  and  S_8
REMARK    5  A    between atoms: S_8  and  C_11
REMARK    6  A    between atoms: C_12  and  C_13
REMARK    7  A    between atoms: C_21  and  C_22
REMARK    8  A    between atoms: C_22  and  O_24
REMARK                            x       y       z     vdW  Elec       q    Type
REMARK                         _______ _______ _______ _____ _____    ______ ____
ROOT
ATOM      1  C   UNL     1       3.466   4.134  19.710  0.00  0.00    +0.000 A 
ATOM      2  C   UNL     1       2.407   4.994  20.250  0.00  0.00    +0.000 A 
ATOM      3  C   UNL     1       1.651   4.307  21.190  0.00  0.00    +0.000 A 
ATOM      4  S   UNL     1       2.183   2.724  21.463  0.00  0.00    +0.000 S 
ATOM      5  C   UNL     1       3.538   2.933  20.426  0.00  0.00    +0.000 A 
ENDROOT
BRANCH   2   6
ATOM      6  C   UNL     1       2.064   6.402  20.005  0.00  0.00    +0.000 A 
ATOM      7  C   UNL     1       2.214   6.967  18.745  0.00  0.00    +0.000 A 
ATOM      8  C   UNL     1       1.961   8.319  18.508  0.00  0.00    +0.000 A 
ATOM      9  C   UNL     1       1.453   9.116  19.522  0.00  0.00    +0.000 A 
ATOM     10  C   UNL     1       1.196   8.556  20.769  0.00  0.00    +0.000 A 
ATOM     11  C   UNL     1       1.517   7.214  21.016  0.00  0.00    +0.000 A 
ENDBRANCH   2   6
BRANCH   1  12
ATOM     12  S   UNL     1       4.706   4.557  18.523  0.00  0.00    +0.000 S 
ATOM     13  O   UNL     1       5.651   3.463  18.638  0.00  0.00    +0.000 OA
ATOM     14  O   UNL     1       5.076   5.881  18.970  0.00  0.00    +0.000 OA
BRANCH  12  15
ATOM     15  N   UNL     1       4.213   4.588  16.889  0.00  0.00    +0.000 N 
ATOM     16  C   UNL     1       3.122   3.643  16.525  0.00  0.00    +0.000 C 
BRANCH  15  21
ATOM     17  C   UNL     1       8.215   5.236  12.773  0.00  0.00    +0.000 C 
ATOM     18  C   UNL     1       7.212   4.990  13.867  0.00  0.00    +0.000 A 
ATOM     19  C   UNL     1       6.229   3.999  13.748  0.00  0.00    +0.000 A 
ATOM     20  C   UNL     1       5.273   3.806  14.759  0.00  0.00    +0.000 A 
ATOM     21  C   UNL     1       5.280   4.617  15.899  0.00  0.00    +0.000 A 
ATOM     22  C   UNL     1       6.281   5.582  16.036  0.00  0.00    +0.000 A 
ATOM     23  C   UNL     1       7.238   5.770  15.029  0.00  0.00    +0.000 A 
ENDBRANCH  15  21
ENDBRANCH  12  15
ENDBRANCH   1  12
BRANCH   5  24
ATOM     24  C   UNL     1       4.515   1.853  20.480  0.00  0.00    +0.000 C 
ATOM     25  O   UNL     1       5.339   1.690  21.371  0.00  0.00    +0.000 OA
BRANCH  24  26
ATOM     26  O   UNL     1       4.566   1.110  19.345  0.00  0.00    +0.000 OA
ATOM     27  H   UNL     1       4.320   1.561  18.518  0.00  0.00    +0.000 HD
ENDBRANCH  24  26
ENDBRANCH   5  24
TORSDOF 6
ENDMDL
MODEL 9
REMARK VINA RESULT:      -6.4      0.822      1.712
REMARK  Name = 
REMARK  8 active torsions:
REMARK  status: ('A' for Active; 'I' for Inactive)
REMARK    1  A    between atoms: C_1  and  C_2
REMARK    2  A    between atoms: C_5  and  N_6
REMARK    3  A    between atoms: N_6  and  C_7
REMARK    4  A    between atoms: N_6  and  S_8
REMARK    5  A    between atoms: S_8  and  C_11
REMARK    6  A    between atoms: C_12  and  C_13
REMARK    7  A    between atoms: C_21  and  C_22
REMARK    8  A    between atoms: C_22  and  O_24
REMARK                            x       y       z     vdW  Elec       q    Type
REMARK                         _______ _______ _______ _____ _____    ______ ____
ROOT
ATOM      1  C   UNL     1       3.169   4.760  19.042  0.00  0.00    +0.000 A 
ATOM      2  C   UNL     1       2.069   5.448  19.728  0.00  0.00    +0.000 A 
ATOM      3  C   UNL     1       1.217   4.531  20.328  0.00  0.00    +0.000 A 
ATOM      4  S   UNL     1       1.705   2.922  20.132  0.00  0.00    +0.000 S 
ATOM      5  C   UNL     1       3.158   3.392  19.343  0.00  0.00    +0.000 A 
ENDROOT
BRANCH   2   6
ATOM      6  C   UNL     1       1.765   6.874  19.912  0.00  0.00    +0.000 A 
ATOM      7  C   UNL     1       1.831   7.764  18.847  0.00  0.00    +0.000 A 
ATOM      8  C   UNL     1       1.614   9.132  19.015  0.00  0.00    +0.000 A 
ATOM      9  C   UNL     1       1.229   9.625  20.252  0.00  0.00    +0.000 A 
ATOM     10  C   UNL     1       1.055   8.745  21.315  0.00  0.00    +0.000 A 
ATOM     11  C   UNL     1       1.340   7.383  21.153  0.00  0.00    +0.000 A 
ENDBRANCH   2   6
BRANCH   1  12
ATOM     12  S   UNL     1       4.524   5.484  18.169  0.00  0.00    +0.000 S 
ATOM     13  O   UNL     1       5.027   6.467  19.111  0.00  0.00    +0.000 OA
ATOM     14  O   UNL     1       3.872   5.916  16.954  0.00  0.00    +0.000 OA
BRANCH  12  15
ATOM     15  N   UNL     1       5.837   4.453  17.815  0.00  0.00    +0.000 N 
ATOM     16  C   UNL     1       7.054   4.646  18.649  0.00  0.00    +0.000 C 
BRANCH  15  21
ATOM     17  C   UNL     1       6.846   4.307  12.128  0.00  0.00    +0.000 C 
ATOM     18  C   UNL     1       6.617   4.263  13.614  0.00  0.00    +0.000 A 
ATOM     19  C   UNL     1       5.621   3.454  14.176  0.00  0.00    +0.000 A 
ATOM     20  C   UNL     1       5.391   3.453  15.562  0.00  0.00    +0.000 A 
ATOM     21  C   UNL     1       6.149   4.275  16.404  0.00  0.00    +0.000 A 
ATOM     22  C   UNL     1       7.167   5.055  15.848  0.00  0.00    +0.000 A 
ATOM     23  C   UNL     1       7.399   5.051  14.466  0.00  0.00    +0.000 A 
ENDBRANCH  15  21
ENDBRANCH  12  15
ENDBRANCH   1  12
BRANCH   5  24
ATOM     24  C   UNL     1       4.115   2.312  19.141  0.00  0.00    +0.000 C 
ATOM     25  O   UNL     1       4.049   1.465  18.258  0.00  0.00    +0.000 OA
BRANCH  24  26
ATOM     26  O   UNL     1       5.027   2.200  20.140  0.00  0.00    +0.000 OA
ATOM     27  H   UNL     1       5.935   2.487  19.933  0.00  0.00    +0.000 HD
ENDBRANCH  24  26
ENDBRANCH   5  24
TORSDOF 6
ENDMDL
