MODEL 1
REMARK VINA RESULT:      -9.3      0.000      0.000
REMARK  Name = 
REMARK  8 active torsions:
REMARK  status: ('A' for Active; 'I' for Inactive)
REMARK    1  A    between atoms: C_1  and  C_2
REMARK    2  A    between atoms: C_5  and  C_6
REMARK    3  A    between atoms: C_7  and  S_8
REMARK    4  A    between atoms: S_8  and  N_11
REMARK    5  A    between atoms: N_11  and  C_12
REMARK    6  A    between atoms: C_17  and  C_18
REMARK    7  A    between atoms: C_19  and  C_20
REMARK    8  A    between atoms: C_20  and  O_22
REMARK                            x       y       z     vdW  Elec       q    Type
REMARK                         _______ _______ _______ _____ _____    ______ ____
ROOT
ATOM      1  C   UNL     1       5.044   3.612  17.350  0.00  0.00    +0.000 A 
ATOM      2  C   UNL     1       5.889   4.530  17.974  0.00  0.00    +0.000 A 
ATOM      3  C   UNL     1       6.828   5.261  17.239  0.00  0.00    +0.000 A 
ATOM      4  C   UNL     1       6.855   5.033  15.865  0.00  0.00    +0.000 A 
ATOM      5  O   UNL     1       7.683   5.648  14.985  0.00  0.00    +0.000 OA
ATOM      6  C   UNL     1       7.411   5.154  13.743  0.00  0.00    +0.000 A 
ATOM      7  C   UNL     1       8.273   5.697  12.670  0.00  0.00    +0.000 C 
ATOM      8  C   UNL     1       6.390   4.212  13.812  0.00  0.00    +0.000 A 
ATOM      9  C   UNL     1       6.035   4.132  15.202  0.00  0.00    +0.000 A 
ATOM     10  C   UNL     1       5.107   3.395  15.967  0.00  0.00    +0.000 A 
ENDROOT
BRANCH   1  11
ATOM     11  N   UNL     1       4.147   2.859  18.145  0.00  0.00    +0.000 N 
ATOM     12  H   UNL     1       4.416   1.930  18.455  0.00  0.00    +0.000 HD
BRANCH  11  13
ATOM     13  S   UNL     1       2.495   3.154  18.104  0.00  0.00    +0.000 S 
ATOM     14  O   UNL     1       1.843   2.173  18.949  0.00  0.00    +0.000 OA
ATOM     15  O   UNL     1       2.133   3.282  16.707  0.00  0.00    +0.000 OA
BRANCH  13  22
ATOM     16  C   UNL     1       2.506   8.397  17.699  0.00  0.00    +0.000 C 
ATOM     17  C   UNL     1       2.333   7.190  18.572  0.00  0.00    +0.000 A 
ATOM     18  C   UNL     1       2.052   7.332  19.933  0.00  0.00    +0.000 A 
ATOM     19  C   UNL     1       1.906   6.210  20.751  0.00  0.00    +0.000 A 
ATOM     20  C   UNL     1       2.035   4.911  20.235  0.00  0.00    +0.000 A 
ATOM     21  C   UNL     1       1.888   3.755  21.184  0.00  0.00    +0.000 C 
ATOM     22  C   UNL     1       2.299   4.765  18.858  0.00  0.00    +0.000 A 
ATOM     23  C   UNL     1       2.454   5.899  18.039  0.00  0.00    +0.000 A 
ENDBRANCH  13  22
ENDBRANCH  11  13
ENDBRANCH   1  11
BRANCH   8  24
ATOM     24  C   UNL     1       5.813   3.417  12.741  0.00  0.00    +0.000 C 
ATOM     25  O   UNL     1       4.685   3.603  12.304  0.00  0.00    +0.000 OA
BRANCH  24  26
ATOM     26  O   UNL     1       6.615   2.457  12.214  0.00  0.00    +0.000 OA
ATOM     27  H   UNL     1       6.604   2.434  11.242  0.00  0.00    +0.000 HD
ENDBRANCH  24  26
ENDBRANCH   8  24
TORSDOF 5
ENDMDL
MODEL 2
REMARK VINA RESULT:      -8.5      3.497      7.914
REMARK  Name = 
REMARK  8 active torsions:
REMARK  status: ('A' for Active; 'I' for Inactive)
REMARK    1  A    between atoms: C_1  and  C_2
REMARK    2  A    between atoms: C_5  and  C_6
REMARK    3  A    between atoms: C_7  and  S_8
REMARK    4  A    between atoms: S_8  and  N_11
REMARK    5  A    between atoms: N_11  and  C_12
REMARK    6  A    between atoms: C_17  and  C_18
REMARK    7  A    between atoms: C_19  and  C_20
REMARK    8  A    between atoms: C_20  and  O_22
REMARK                            x       y       z     vdW  Elec       q    Type
REMARK                         _______ _______ _______ _____ _____    ______ ____
ROOT
ATOM      1  C   UNL     1       2.741   7.084  19.358  0.00  0.00    +0.000 A 
ATOM      2  C   UNL     1       2.751   7.662  18.088  0.00  0.00    +0.000 A 
ATOM      3  C   UNL     1       1.973   8.788  17.802  0.00  0.00    +0.000 A 
ATOM      4  C   UNL     1       1.212   9.300  18.850  0.00  0.00    +0.000 A 
ATOM      5  O   UNL     1       0.405  10.388  18.774  0.00  0.00    +0.000 OA
ATOM      6  C   UNL     1      -0.169  10.565  19.998  0.00  0.00    +0.000 A 
ATOM      7  C   UNL     1      -1.124  11.694  20.064  0.00  0.00    +0.000 C 
ATOM      8  C   UNL     1       0.273   9.589  20.884  0.00  0.00    +0.000 A 
ATOM      9  C   UNL     1       1.171   8.761  20.127  0.00  0.00    +0.000 A 
ATOM     10  C   UNL     1       1.953   7.616  20.387  0.00  0.00    +0.000 A 
ENDROOT
BRANCH   1  11
ATOM     11  N   UNL     1       3.505   5.915  19.583  0.00  0.00    +0.000 N 
ATOM     12  H   UNL     1       4.380   5.982  20.095  0.00  0.00    +0.000 HD
BRANCH  11  13
ATOM     13  S   UNL     1       3.359   4.578  18.578  0.00  0.00    +0.000 S 
ATOM     14  O   UNL     1       2.177   4.760  17.758  0.00  0.00    +0.000 OA
ATOM     15  O   UNL     1       3.497   3.409  19.424  0.00  0.00    +0.000 OA
BRANCH  13  22
ATOM     16  C   UNL     1       5.543   3.958  13.835  0.00  0.00    +0.000 C 
ATOM     17  C   UNL     1       5.722   4.322  15.279  0.00  0.00    +0.000 A 
ATOM     18  C   UNL     1       6.980   4.673  15.772  0.00  0.00    +0.000 A 
ATOM     19  C   UNL     1       7.152   4.996  17.120  0.00  0.00    +0.000 A 
ATOM     20  C   UNL     1       6.072   4.978  18.017  0.00  0.00    +0.000 A 
ATOM     21  C   UNL     1       6.342   5.314  19.456  0.00  0.00    +0.000 C 
ATOM     22  C   UNL     1       4.797   4.643  17.516  0.00  0.00    +0.000 A 
ATOM     23  C   UNL     1       4.630   4.310  16.159  0.00  0.00    +0.000 A 
ENDBRANCH  13  22
ENDBRANCH  11  13
ENDBRANCH   1  11
BRANCH   8  24
ATOM     24  C   UNL     1      -0.107   9.382  22.272  0.00  0.00    +0.000 C 
ATOM     25  O   UNL     1       0.219  10.142  23.174  0.00  0.00    +0.000 OA
BRANCH  24  26
ATOM     26  O   UNL     1      -0.885   8.298  22.521  0.00  0.00    +0.000 OA
ATOM     27  H   UNL     1      -1.770   8.526  22.852  0.00  0.00    +0.000 HD
ENDBRANCH  24  26
ENDBRANCH   8  24
TORSDOF 5
ENDMDL
MODEL 3
REMARK VINA RESULT:      -8.4      4.008      8.199
REMARK  Name = 
REMARK  8 active torsions:
REMARK  status: ('A' for Active; 'I' for Inactive)
REMARK    1  A    between atoms: C_1  and  C_2
REMARK    2  A    between atoms: C_5  and  C_6
REMARK    3  A    between atoms: C_7  and  S_8
REMARK    4  A    between atoms: S_8  and  N_11
REMARK    5  A    between atoms: N_11  and  C_12
REMARK    6  A    between atoms: C_17  and  C_18
REMARK    7  A    between atoms: C_19  and  C_20
REMARK    8  A    between atoms: C_20  and  O_22
REMARK                            x       y       z     vdW  Elec       q    Type
REMARK                         _______ _______ _______ _____ _____    ______ ____
ROOT
ATOM      1  C   UNL     1       2.261   7.520  19.822  0.00  0.00    +0.000 A 
ATOM      2  C   UNL     1       2.250   7.943  18.493  0.00  0.00    +0.000 A 
ATOM      3  C   UNL     1       1.475   9.035  18.090  0.00  0.00    +0.000 A 
ATOM      4  C   UNL     1       0.740   9.676  19.085  0.00  0.00    +0.000 A 
ATOM      5  O   UNL     1      -0.059  10.755  18.896  0.00  0.00    +0.000 OA
ATOM      6  C   UNL     1      -0.607  11.082  20.102  0.00  0.00    +0.000 A 
ATOM      7  C   UNL     1      -1.551  12.221  20.052  0.00  0.00    +0.000 C 
ATOM      8  C   UNL     1      -0.155  10.214  21.089  0.00  0.00    +0.000 A 
ATOM      9  C   UNL     1       0.721   9.293  20.417  0.00  0.00    +0.000 A 
ATOM     10  C   UNL     1       1.498   8.178  20.797  0.00  0.00    +0.000 A 
ENDROOT
BRANCH   1  11
ATOM     11  N   UNL     1       3.019   6.377  20.170  0.00  0.00    +0.000 N 
ATOM     12  H   UNL     1       3.932   6.497  20.601  0.00  0.00    +0.000 HD
BRANCH  11  13
ATOM     13  S   UNL     1       2.776   4.907  19.396  0.00  0.00    +0.000 S 
ATOM     14  O   UNL     1       1.508   4.974  18.696  0.00  0.00    +0.000 OA
ATOM     15  O   UNL     1       3.020   3.876  20.385  0.00  0.00    +0.000 OA
BRANCH  13  22
ATOM     16  C   UNL     1       7.237   6.793  17.349  0.00  0.00    +0.000 C 
ATOM     17  C   UNL     1       6.152   5.758  17.297  0.00  0.00    +0.000 A 
ATOM     18  C   UNL     1       6.162   4.768  16.312  0.00  0.00    +0.000 A 
ATOM     19  C   UNL     1       5.144   3.814  16.252  0.00  0.00    +0.000 A 
ATOM     20  C   UNL     1       4.085   3.819  17.175  0.00  0.00    +0.000 A 
ATOM     21  C   UNL     1       3.016   2.773  17.029  0.00  0.00    +0.000 C 
ATOM     22  C   UNL     1       4.085   4.805  18.182  0.00  0.00    +0.000 A 
ATOM     23  C   UNL     1       5.108   5.771  18.233  0.00  0.00    +0.000 A 
ENDBRANCH  13  22
ENDBRANCH  11  13
ENDBRANCH   1  11
BRANCH   8  24
ATOM     24  C   UNL     1      -0.507  10.177  22.499  0.00  0.00    +0.000 C 
ATOM     25  O   UNL     1      -0.502  11.169  23.214  0.00  0.00    +0.000 OA
BRANCH  24  26
ATOM     26  O   UNL     1      -0.881   8.967  22.987  0.00  0.00    +0.000 OA
ATOM     27  H   UNL     1      -1.526   8.506  22.425  0.00  0.00    +0.000 HD
ENDBRANCH  24  26
ENDBRANCH   8  24
TORSDOF 5
ENDMDL
MODEL 4
REMARK VINA RESULT:      -8.1      4.618      7.119
REMARK  Name = 
REMARK  8 active torsions:
REMARK  status: ('A' for Active; 'I' for Inactive)
REMARK    1  A    between atoms: C_1  and  C_2
REMARK    2  A    between atoms: C_5  and  C_6
REMARK    3  A    between atoms: C_7  and  S_8
REMARK    4  A    between atoms: S_8  and  N_11
REMARK    5  A    between atoms: N_11  and  C_12
REMARK    6  A    between atoms: C_17  and  C_18
REMARK    7  A    between atoms: C_19  and  C_20
REMARK    8  A    between atoms: C_20  and  O_22
REMARK                            x       y       z     vdW  Elec       q    Type
REMARK                         _______ _______ _______ _____ _____    ______ ____
ROOT
ATOM      1  C   UNL     1       1.882   7.639  20.374  0.00  0.00    +0.000 A 
ATOM      2  C   UNL     1       2.152   7.952  19.042  0.00  0.00    +0.000 A 
ATOM      3  C   UNL     1       2.417   6.948  18.105  0.00  0.00    +0.000 A 
ATOM      4  C   UNL     1       2.378   5.637  18.572  0.00  0.00    +0.000 A 
ATOM      5  O   UNL     1       2.596   4.530  17.819  0.00  0.00    +0.000 OA
ATOM      6  C   UNL     1       2.477   3.443  18.635  0.00  0.00    +0.000 A 
ATOM      7  C   UNL     1       2.738   2.149  17.964  0.00  0.00    +0.000 C 
ATOM      8  C   UNL     1       2.171   3.843  19.930  0.00  0.00    +0.000 A 
ATOM      9  C   UNL     1       2.114   5.278  19.885  0.00  0.00    +0.000 A 
ATOM     10  C   UNL     1       1.865   6.310  20.816  0.00  0.00    +0.000 A 
ENDROOT
BRANCH   1  11
ATOM     11  N   UNL     1       1.673   8.693  21.295  0.00  0.00    +0.000 N 
ATOM     12  H   UNL     1       2.371   8.878  22.008  0.00  0.00    +0.000 HD
BRANCH  11  13
ATOM     13  S   UNL     1       0.126   9.246  21.642  0.00  0.00    +0.000 S 
ATOM     14  O   UNL     1       0.207  10.104  22.808  0.00  0.00    +0.000 OA
ATOM     15  O   UNL     1      -0.738   8.082  21.642  0.00  0.00    +0.000 OA
BRANCH  13  22
ATOM     16  C   UNL     1      -2.652   9.895  17.225  0.00  0.00    +0.000 C 
ATOM     17  C   UNL     1      -1.654  10.457  18.193  0.00  0.00    +0.000 A 
ATOM     18  C   UNL     1      -1.087  11.715  17.977  0.00  0.00    +0.000 A 
ATOM     19  C   UNL     1      -0.145  12.234  18.869  0.00  0.00    +0.000 A 
ATOM     20  C   UNL     1       0.258  11.512  20.004  0.00  0.00    +0.000 A 
ATOM     21  C   UNL     1       1.293  12.128  20.902  0.00  0.00    +0.000 C 
ATOM     22  C   UNL     1      -0.329  10.251  20.234  0.00  0.00    +0.000 A 
ATOM     23  C   UNL     1      -1.271   9.728  19.328  0.00  0.00    +0.000 A 
ENDBRANCH  13  22
ENDBRANCH  11  13
ENDBRANCH   1  11
BRANCH   8  24
ATOM     24  C   UNL     1       1.992   3.023  21.117  0.00  0.00    +0.000 C 
ATOM     25  O   UNL     1       2.924   2.645  21.815  0.00  0.00    +0.000 OA
BRANCH  24  26
ATOM     26  O   UNL     1       0.711   2.714  21.440  0.00  0.00    +0.000 OA
ATOM     27  H   UNL     1       0.230   2.264  20.725  0.00  0.00    +0.000 HD
ENDBRANCH  24  26
ENDBRANCH   8  24
TORSDOF 5
ENDMDL
MODEL 5
REMARK VINA RESULT:      -8.1      4.283      8.305
REMARK  Name = 
REMARK  8 active torsions:
REMARK  status: ('A' for Active; 'I' for Inactive)
REMARK    1  A    between atoms: C_1  and  C_2
REMARK    2  A    between atoms: C_5  and  C_6
REMARK    3  A    between atoms: C_7  and  S_8
REMARK    4  A    between atoms: S_8  and  N_11
REMARK    5  A    between atoms: N_11  and  C_12
REMARK    6  A    between atoms: C_17  and  C_18
REMARK    7  A    between atoms: C_19  and  C_20
REMARK    8  A    between atoms: C_20  and  O_22
REMARK                            x       y       z     vdW  Elec       q    Type
REMARK                         _______ _______ _______ _____ _____    ______ ____
ROOT
ATOM      1  C   UNL     1       2.060   7.668  19.948  0.00  0.00    +0.000 A 
ATOM      2  C   UNL     1       2.040   8.073  18.612  0.00  0.00    +0.000 A 
ATOM      3  C   UNL     1       1.282   9.176  18.205  0.00  0.00    +0.000 A 
ATOM      4  C   UNL     1       0.574   9.845  19.200  0.00  0.00    +0.000 A 
ATOM      5  O   UNL     1      -0.206  10.937  19.008  0.00  0.00    +0.000 OA
ATOM      6  C   UNL     1      -0.730  11.291  20.216  0.00  0.00    +0.000 A 
ATOM      7  C   UNL     1      -1.652  12.449  20.163  0.00  0.00    +0.000 C 
ATOM      8  C   UNL     1      -0.283  10.427  21.208  0.00  0.00    +0.000 A 
ATOM      9  C   UNL     1       0.564   9.479  20.538  0.00  0.00    +0.000 A 
ATOM     10  C   UNL     1       1.324   8.354  20.922  0.00  0.00    +0.000 A 
ENDROOT
BRANCH   1  11
ATOM     11  N   UNL     1       2.800   6.514  20.301  0.00  0.00    +0.000 N 
ATOM     12  H   UNL     1       3.804   6.500  20.148  0.00  0.00    +0.000 HD
BRANCH  11  13
ATOM     13  S   UNL     1       2.065   5.007  20.392  0.00  0.00    +0.000 S 
ATOM     14  O   UNL     1       0.644   5.187  20.167  0.00  0.00    +0.000 OA
ATOM     15  O   UNL     1       2.547   4.386  21.609  0.00  0.00    +0.000 OA
BRANCH  13  22
ATOM     16  C   UNL     1       5.190   4.770  16.169  0.00  0.00    +0.000 C 
ATOM     17  C   UNL     1       4.212   4.072  17.068  0.00  0.00    +0.000 A 
ATOM     18  C   UNL     1       3.831   2.753  16.814  0.00  0.00    +0.000 A 
ATOM     19  C   UNL     1       2.908   2.107  17.640  0.00  0.00    +0.000 A 
ATOM     20  C   UNL     1       2.340   2.759  18.747  0.00  0.00    +0.000 A 
ATOM     21  C   UNL     1       1.337   2.005  19.573  0.00  0.00    +0.000 C 
ATOM     22  C   UNL     1       2.740   4.084  19.016  0.00  0.00    +0.000 A 
ATOM     23  C   UNL     1       3.662   4.734  18.175  0.00  0.00    +0.000 A 
ENDBRANCH  13  22
ENDBRANCH  11  13
ENDBRANCH   1  11
BRANCH   8  24
ATOM     24  C   UNL     1      -0.618  10.415  22.623  0.00  0.00    +0.000 C 
ATOM     25  O   UNL     1      -0.641  11.427  23.311  0.00  0.00    +0.000 OA
BRANCH  24  26
ATOM     26  O   UNL     1      -0.942   9.207  23.148  0.00  0.00    +0.000 OA
ATOM     27  H   UNL     1      -0.697   8.459  22.578  0.00  0.00    +0.000 HD
ENDBRANCH  24  26
ENDBRANCH   8  24
TORSDOF 5
ENDMDL
MODEL 6
REMARK VINA RESULT:      -7.9      4.253      6.590
REMARK  Name = 
REMARK  8 active torsions:
REMARK  status: ('A' for Active; 'I' for Inactive)
REMARK    1  A    between atoms: C_1  and  C_2
REMARK    2  A    between atoms: C_5  and  C_6
REMARK    3  A    between atoms: C_7  and  S_8
REMARK    4  A    between atoms: S_8  and  N_11
REMARK    5  A    between atoms: N_11  and  C_12
REMARK    6  A    between atoms: C_17  and  C_18
REMARK    7  A    between atoms: C_19  and  C_20
REMARK    8  A    between atoms: C_20  and  O_22
REMARK                            x       y       z     vdW  Elec       q    Type
REMARK                         _______ _______ _______ _____ _____    ______ ____
ROOT
ATOM      1  C   UNL     1       2.266   7.401  17.771  0.00  0.00    +0.000 A 
ATOM      2  C   UNL     1       3.648   7.497  17.609  0.00  0.00    +0.000 A 
ATOM      3  C   UNL     1       4.481   6.402  17.865  0.00  0.00    +0.000 A 
ATOM      4  C   UNL     1       3.855   5.226  18.269  0.00  0.00    +0.000 A 
ATOM      5  O   UNL     1       4.486   4.060  18.553  0.00  0.00    +0.000 OA
ATOM      6  C   UNL     1       3.536   3.151  18.914  0.00  0.00    +0.000 A 
ATOM      7  C   UNL     1       4.076   1.829  19.305  0.00  0.00    +0.000 C 
ATOM      8  C   UNL     1       2.272   3.726  18.859  0.00  0.00    +0.000 A 
ATOM      9  C   UNL     1       2.486   5.084  18.442  0.00  0.00    +0.000 A 
ATOM     10  C   UNL     1       1.668   6.206  18.193  0.00  0.00    +0.000 A 
ENDROOT
BRANCH   1  11
ATOM     11  N   UNL     1       1.471   8.551  17.550  0.00  0.00    +0.000 N 
ATOM     12  H   UNL     1       1.298   8.862  16.599  0.00  0.00    +0.000 HD
BRANCH  11  13
ATOM     13  S   UNL     1       1.305   9.730  18.734  0.00  0.00    +0.000 S 
ATOM     14  O   UNL     1       2.237  10.800  18.436  0.00  0.00    +0.000 OA
ATOM     15  O   UNL     1       1.353   9.043  20.010  0.00  0.00    +0.000 OA
BRANCH  13  22
ATOM     16  C   UNL     1      -3.201   9.862  16.027  0.00  0.00    +0.000 C 
ATOM     17  C   UNL     1      -2.408  10.357  17.200  0.00  0.00    +0.000 A 
ATOM     18  C   UNL     1      -2.952  11.295  18.080  0.00  0.00    +0.000 A 
ATOM     19  C   UNL     1      -2.209  11.769  19.164  0.00  0.00    +0.000 A 
ATOM     20  C   UNL     1      -0.900  11.320  19.402  0.00  0.00    +0.000 A 
ATOM     21  C   UNL     1      -0.158  11.895  20.575  0.00  0.00    +0.000 C 
ATOM     22  C   UNL     1      -0.358  10.357  18.527  0.00  0.00    +0.000 A 
ATOM     23  C   UNL     1      -1.106   9.889  17.431  0.00  0.00    +0.000 A 
ENDBRANCH  13  22
ENDBRANCH  11  13
ENDBRANCH   1  11
BRANCH   8  24
ATOM     24  C   UNL     1       0.987   3.133  19.193  0.00  0.00    +0.000 C 
ATOM     25  O   UNL     1       0.426   2.310  18.481  0.00  0.00    +0.000 OA
BRANCH  24  26
ATOM     26  O   UNL     1       0.442   3.519  20.374  0.00  0.00    +0.000 OA
ATOM     27  H   UNL     1       0.605   2.892  21.099  0.00  0.00    +0.000 HD
ENDBRANCH  24  26
ENDBRANCH   8  24
TORSDOF 5
ENDMDL
MODEL 7
REMARK VINA RESULT:      -7.8      4.790      7.326
REMARK  Name = 
REMARK  8 active torsions:
REMARK  status: ('A' for Active; 'I' for Inactive)
REMARK    1  A    between atoms: C_1  and  C_2
REMARK    2  A    between atoms: C_5  and  C_6
REMARK    3  A    between atoms: C_7  and  S_8
REMARK    4  A    between atoms: S_8  and  N_11
REMARK    5  A    between atoms: N_11  and  C_12
REMARK    6  A    between atoms: C_17  and  C_18
REMARK    7  A    between atoms: C_19  and  C_20
REMARK    8  A    between atoms: C_20  and  O_22
REMARK                            x       y       z     vdW  Elec       q    Type
REMARK                         _______ _______ _______ _____ _____    ______ ____
ROOT
ATOM      1  C   UNL     1       1.931   7.696  20.589  0.00  0.00    +0.000 A 
ATOM      2  C   UNL     1       2.075   8.046  19.246  0.00  0.00    +0.000 A 
ATOM      3  C   UNL     1       2.204   7.067  18.255  0.00  0.00    +0.000 A 
ATOM      4  C   UNL     1       2.163   5.742  18.683  0.00  0.00    +0.000 A 
ATOM      5  O   UNL     1       2.260   4.655  17.877  0.00  0.00    +0.000 OA
ATOM      6  C   UNL     1       2.183   3.545  18.666  0.00  0.00    +0.000 A 
ATOM      7  C   UNL     1       2.324   2.267  17.932  0.00  0.00    +0.000 C 
ATOM      8  C   UNL     1       2.027   3.910  19.998  0.00  0.00    +0.000 A 
ATOM      9  C   UNL     1       2.021   5.347  20.004  0.00  0.00    +0.000 A 
ATOM     10  C   UNL     1       1.908   6.353  20.987  0.00  0.00    +0.000 A 
ENDROOT
BRANCH   1  11
ATOM     11  N   UNL     1       1.858   8.724  21.558  0.00  0.00    +0.000 N 
ATOM     12  H   UNL     1       2.649   8.886  22.174  0.00  0.00    +0.000 HD
BRANCH  11  13
ATOM     13  S   UNL     1       0.377   9.271  22.131  0.00  0.00    +0.000 S 
ATOM     14  O   UNL     1       0.498   9.477  23.561  0.00  0.00    +0.000 OA
ATOM     15  O   UNL     1      -0.629   8.374  21.598  0.00  0.00    +0.000 OA
BRANCH  13  22
ATOM     16  C   UNL     1       1.774  12.801  18.492  0.00  0.00    +0.000 C 
ATOM     17  C   UNL     1       0.868  12.441  19.633  0.00  0.00    +0.000 A 
ATOM     18  C   UNL     1      -0.105  13.338  20.077  0.00  0.00    +0.000 A 
ATOM     19  C   UNL     1      -0.939  13.012  21.149  0.00  0.00    +0.000 A 
ATOM     20  C   UNL     1      -0.826  11.778  21.810  0.00  0.00    +0.000 A 
ATOM     21  C   UNL     1      -1.743  11.511  22.970  0.00  0.00    +0.000 C 
ATOM     22  C   UNL     1       0.143  10.863  21.350  0.00  0.00    +0.000 A 
ATOM     23  C   UNL     1       0.987  11.200  20.275  0.00  0.00    +0.000 A 
ENDBRANCH  13  22
ENDBRANCH  11  13
ENDBRANCH   1  11
BRANCH   8  24
ATOM     24  C   UNL     1       1.939   3.055  21.171  0.00  0.00    +0.000 C 
ATOM     25  O   UNL     1       2.914   2.728  21.834  0.00  0.00    +0.000 OA
BRANCH  24  26
ATOM     26  O   UNL     1       0.691   2.653  21.522  0.00  0.00    +0.000 OA
ATOM     27  H   UNL     1       0.017   3.344  21.410  0.00  0.00    +0.000 HD
ENDBRANCH  24  26
ENDBRANCH   8  24
TORSDOF 5
ENDMDL
MODEL 8
REMARK VINA RESULT:      -7.7      1.061      1.230
REMARK  Name = 
REMARK  8 active torsions:
REMARK  status: ('A' for Active; 'I' for Inactive)
REMARK    1  A    between atoms: C_1  and  C_2
REMARK    2  A    between atoms: C_5  and  C_6
REMARK    3  A    between atoms: C_7  and  S_8
REMARK    4  A    between atoms: S_8  and  N_11
REMARK    5  A    between atoms: N_11  and  C_12
REMARK    6  A    between atoms: C_17  and  C_18
REMARK    7  A    between atoms: C_19  and  C_20
REMARK    8  A    between atoms: C_20  and  O_22
REMARK                            x       y       z     vdW  Elec       q    Type
REMARK                         _______ _______ _______ _____ _____    ______ ____
ROOT
ATOM      1  C   UNL     1       4.987   3.652  16.830  0.00  0.00    +0.000 A 
ATOM      2  C   UNL     1       5.803   4.579  17.479  0.00  0.00    +0.000 A 
ATOM      3  C   UNL     1       6.783   5.290  16.779  0.00  0.00    +0.000 A 
ATOM      4  C   UNL     1       6.882   5.033  15.414  0.00  0.00    +0.000 A 
ATOM      5  O   UNL     1       7.758   5.627  14.566  0.00  0.00    +0.000 OA
ATOM      6  C   UNL     1       7.549   5.108  13.322  0.00  0.00    +0.000 A 
ATOM      7  C   UNL     1       8.470   5.625  12.285  0.00  0.00    +0.000 C 
ATOM      8  C   UNL     1       6.521   4.172  13.357  0.00  0.00    +0.000 A 
ATOM      9  C   UNL     1       6.093   4.123  14.727  0.00  0.00    +0.000 A 
ATOM     10  C   UNL     1       5.121   3.406  15.458  0.00  0.00    +0.000 A 
ENDROOT
BRANCH   1  11
ATOM     11  N   UNL     1       4.046   2.919  17.592  0.00  0.00    +0.000 N 
ATOM     12  H   UNL     1       3.178   2.620  17.158  0.00  0.00    +0.000 HD
BRANCH  11  13
ATOM     13  S   UNL     1       4.012   3.030  19.267  0.00  0.00    +0.000 S 
ATOM     14  O   UNL     1       5.373   3.212  19.732  0.00  0.00    +0.000 OA
ATOM     15  O   UNL     1       3.214   1.916  19.738  0.00  0.00    +0.000 OA
BRANCH  13  22
ATOM     16  C   UNL     1       2.740   7.974  18.003  0.00  0.00    +0.000 C 
ATOM     17  C   UNL     1       2.571   6.819  18.945  0.00  0.00    +0.000 A 
ATOM     18  C   UNL     1       1.741   6.930  20.063  0.00  0.00    +0.000 A 
ATOM     19  C   UNL     1       1.595   5.862  20.951  0.00  0.00    +0.000 A 
ATOM     20  C   UNL     1       2.273   4.648  20.748  0.00  0.00    +0.000 A 
ATOM     21  C   UNL     1       2.083   3.554  21.760  0.00  0.00    +0.000 C 
ATOM     22  C   UNL     1       3.095   4.528  19.609  0.00  0.00    +0.000 A 
ATOM     23  C   UNL     1       3.247   5.610  18.722  0.00  0.00    +0.000 A 
ENDBRANCH  13  22
ENDBRANCH  11  13
ENDBRANCH   1  11
BRANCH   8  24
ATOM     24  C   UNL     1       5.997   3.357  12.273  0.00  0.00    +0.000 C 
ATOM     25  O   UNL     1       4.881   3.519  11.796  0.00  0.00    +0.000 OA
BRANCH  24  26
ATOM     26  O   UNL     1       6.834   2.409  11.782  0.00  0.00    +0.000 OA
ATOM     27  H   UNL     1       6.970   1.662  12.388  0.00  0.00    +0.000 HD
ENDBRANCH  24  26
ENDBRANCH   8  24
TORSDOF 5
ENDMDL
MODEL 9
REMARK VINA RESULT:      -7.7      3.556      7.978
REMARK  Name = 
REMARK  8 active torsions:
REMARK  status: ('A' for Active; 'I' for Inactive)
REMARK    1  A    between atoms: C_1  and  C_2
REMARK    2  A    between atoms: C_5  and  C_6
REMARK    3  A    between atoms: C_7  and  S_8
REMARK    4  A    between atoms: S_8  and  N_11
REMARK    5  A    between atoms: N_11  and  C_12
REMARK    6  A    between atoms: C_17  and  C_18
REMARK    7  A    between atoms: C_19  and  C_20
REMARK    8  A    between atoms: C_20  and  O_22
REMARK                            x       y       z     vdW  Elec       q    Type
REMARK                         _______ _______ _______ _____ _____    ______ ____
ROOT
ATOM      1  C   UNL     1       2.453   6.676  19.777  0.00  0.00    +0.000 A 
ATOM      2  C   UNL     1       2.579   7.244  18.509  0.00  0.00    +0.000 A 
ATOM      3  C   UNL     1       1.979   8.470  18.206  0.00  0.00    +0.000 A 
ATOM      4  C   UNL     1       1.275   9.089  19.236  0.00  0.00    +0.000 A 
ATOM      5  O   UNL     1       0.636  10.281  19.142  0.00  0.00    +0.000 OA
ATOM      6  C   UNL     1       0.063  10.541  20.352  0.00  0.00    +0.000 A 
ATOM      7  C   UNL     1      -0.720  11.797  20.397  0.00  0.00    +0.000 C 
ATOM      8  C   UNL     1       0.336   9.513  21.247  0.00  0.00    +0.000 A 
ATOM      9  C   UNL     1       1.124   8.563  20.510  0.00  0.00    +0.000 A 
ATOM     10  C   UNL     1       1.725   7.317  20.788  0.00  0.00    +0.000 A 
ENDROOT
BRANCH   1  11
ATOM     11  N   UNL     1       3.034   5.408  20.018  0.00  0.00    +0.000 N 
ATOM     12  H   UNL     1       3.668   5.292  20.803  0.00  0.00    +0.000 HD
BRANCH  11  13
ATOM     13  S   UNL     1       3.202   4.283  18.784  0.00  0.00    +0.000 S 
ATOM     14  O   UNL     1       2.302   4.656  17.711  0.00  0.00    +0.000 OA
ATOM     15  O   UNL     1       3.112   2.975  19.403  0.00  0.00    +0.000 OA
BRANCH  13  22
ATOM     16  C   UNL     1       8.108   6.003  19.573  0.00  0.00    +0.000 C 
ATOM     17  C   UNL     1       7.131   5.324  18.660  0.00  0.00    +0.000 A 
ATOM     18  C   UNL     1       7.525   4.891  17.392  0.00  0.00    +0.000 A 
ATOM     19  C   UNL     1       6.613   4.273  16.535  0.00  0.00    +0.000 A 
ATOM     20  C   UNL     1       5.277   4.068  16.918  0.00  0.00    +0.000 A 
ATOM     21  C   UNL     1       4.350   3.417  15.930  0.00  0.00    +0.000 C 
ATOM     22  C   UNL     1       4.883   4.486  18.205  0.00  0.00    +0.000 A 
ATOM     23  C   UNL     1       5.804   5.116  19.062  0.00  0.00    +0.000 A 
ENDBRANCH  13  22
ENDBRANCH  11  13
ENDBRANCH   1  11
BRANCH   8  24
ATOM     24  C   UNL     1      -0.104   9.365  22.625  0.00  0.00    +0.000 C 
ATOM     25  O   UNL     1       0.365  10.016  23.549  0.00  0.00    +0.000 OA
BRANCH  24  26
ATOM     26  O   UNL     1      -1.104   8.473  22.837  0.00  0.00    +0.000 OA
ATOM     27  H   UNL     1      -1.602   8.638  23.655  0.00  0.00    +0.000 HD
ENDBRANCH  24  26
ENDBRANCH   8  24
TORSDOF 5
ENDMDL
