MODEL 1
REMARK VINA RESULT:      -6.6      0.000      0.000
REMARK  Name = 
REMARK  8 active torsions:
REMARK  status: ('A' for Active; 'I' for Inactive)
REMARK    1  A    between atoms: C_1  and  C_2
REMARK    2  A    between atoms: C_2  and  C_3
REMARK    3  A    between atoms: C_4  and  C_5
REMARK    4  A    between atoms: C_8  and  C_9
REMARK    5  A    between atoms: C_12  and  C_13
REMARK    6  A    between atoms: C_13  and  C_14
REMARK    7  A    between atoms: C_13  and  C_15
REMARK    8  A    between atoms: C_13  and  C_16
REMARK                            x       y       z     vdW  Elec       q    Type
REMARK                         _______ _______ _______ _____ _____    ______ ____
ROOT
ATOM      1  C   UNL     1       5.836   4.137  14.163  0.00  0.00    +0.000 A 
ATOM      2  C   UNL     1       5.404   5.455  14.093  0.00  0.00    +0.000 A 
ATOM      3  C   UNL     1       5.221   6.187  15.290  0.00  0.00    +0.000 A 
ATOM      4  C   UNL     1       5.448   5.561  16.535  0.00  0.00    +0.000 A 
ATOM      5  C   UNL     1       5.887   4.227  16.518  0.00  0.00    +0.000 A 
ATOM      6  C   UNL     1       6.080   3.513  15.359  0.00  0.00    +0.000 A 
ENDROOT
BRANCH   4   7
ATOM      7  C   UNL     1       5.335   6.304  17.865  0.00  0.00    +0.000 C 
ATOM      8  S   UNL     1       3.706   6.982  18.285  0.00  0.00    +0.000 S 
ATOM      9  C   UNL     1       2.728   5.454  18.385  0.00  0.00    +0.000 C 
ATOM     10  C   UNL     1       3.218   4.291  19.282  0.00  0.00    +0.000 C 
ATOM     11  C   UNL     1       4.737   3.989  19.329  0.00  0.00    +0.000 C 
ATOM     12  S   UNL     1       5.902   5.386  19.342  0.00  0.00    +0.000 S 
BRANCH  10  13
ATOM     13  C   UNL     1       2.353   2.962  19.063  0.00  0.00    +0.000 C 
ATOM     14  C   UNL     1       1.058   3.158  18.239  0.00  0.00    +0.000 C 
ATOM     15  C   UNL     1       3.191   1.893  18.331  0.00  0.00    +0.000 C 
ATOM     16  C   UNL     1       1.922   2.378  20.428  0.00  0.00    +0.000 C 
ENDBRANCH  10  13
ENDBRANCH   4   7
BRANCH   1  18
ATOM     17  C   UNL     1       6.399   2.544  12.048  0.00  0.00    +0.000 C 
ATOM     18  C   UNL     1       6.093   3.324  13.047  0.00  0.00    +0.000 C 
BRANCH  17  20
ATOM     19  C   UNL     1       6.148   0.259  11.086  0.00  0.00    +0.000 C 
ATOM     20  C   UNL     1       6.755   1.635  10.883  0.00  0.00    +0.000 C 
ENDBRANCH  17  20
ENDBRANCH   1  18
TORSDOF 4
ENDMDL
MODEL 2
REMARK VINA RESULT:      -6.5      8.355     10.921
REMARK  Name = 
REMARK  8 active torsions:
REMARK  status: ('A' for Active; 'I' for Inactive)
REMARK    1  A    between atoms: C_1  and  C_2
REMARK    2  A    between atoms: C_2  and  C_3
REMARK    3  A    between atoms: C_4  and  C_5
REMARK    4  A    between atoms: C_8  and  C_9
REMARK    5  A    between atoms: C_12  and  C_13
REMARK    6  A    between atoms: C_13  and  C_14
REMARK    7  A    between atoms: C_13  and  C_15
REMARK    8  A    between atoms: C_13  and  C_16
REMARK                            x       y       z     vdW  Elec       q    Type
REMARK                         _______ _______ _______ _____ _____    ______ ____
ROOT
ATOM      1  C   UNL     1       9.266  10.515  18.917  0.00  0.00    +0.000 A 
ATOM      2  C   UNL     1       9.701  10.717  20.222  0.00  0.00    +0.000 A 
ATOM      3  C   UNL     1      10.281  11.958  20.573  0.00  0.00    +0.000 A 
ATOM      4  C   UNL     1      10.440  12.960  19.592  0.00  0.00    +0.000 A 
ATOM      5  C   UNL     1       9.970  12.679  18.299  0.00  0.00    +0.000 A 
ATOM      6  C   UNL     1       9.393  11.480  17.951  0.00  0.00    +0.000 A 
ENDROOT
BRANCH   4   7
ATOM      7  C   UNL     1      10.996  14.346  19.911  0.00  0.00    +0.000 C 
ATOM      8  S   UNL     1      10.892  15.589  18.595  0.00  0.00    +0.000 S 
ATOM      9  C   UNL     1       9.090  15.714  18.398  0.00  0.00    +0.000 C 
ATOM     10  C   UNL     1       8.203  15.981  19.639  0.00  0.00    +0.000 C 
ATOM     11  C   UNL     1       8.576  15.286  20.972  0.00  0.00    +0.000 C 
ATOM     12  S   UNL     1      10.333  15.143  21.419  0.00  0.00    +0.000 S 
BRANCH  10  13
ATOM     13  C   UNL     1       6.645  15.832  19.304  0.00  0.00    +0.000 C 
ATOM     14  C   UNL     1       6.328  14.961  18.065  0.00  0.00    +0.000 C 
ATOM     15  C   UNL     1       5.900  15.199  20.497  0.00  0.00    +0.000 C 
ATOM     16  C   UNL     1       6.025  17.222  19.036  0.00  0.00    +0.000 C 
ENDBRANCH  10  13
ENDBRANCH   4   7
BRANCH   1  18
ATOM     17  C   UNL     1       8.079   8.280  17.960  0.00  0.00    +0.000 C 
ATOM     18  C   UNL     1       8.639   9.346  18.460  0.00  0.00    +0.000 C 
BRANCH  17  20
ATOM     19  C   UNL     1       7.562   5.872  18.341  0.00  0.00    +0.000 C 
ATOM     20  C   UNL     1       7.427   7.036  17.377  0.00  0.00    +0.000 C 
ENDBRANCH  17  20
ENDBRANCH   1  18
TORSDOF 4
ENDMDL
MODEL 3
REMARK VINA RESULT:      -6.5      0.832      1.410
REMARK  Name = 
REMARK  8 active torsions:
REMARK  status: ('A' for Active; 'I' for Inactive)
REMARK    1  A    between atoms: C_1  and  C_2
REMARK    2  A    between atoms: C_2  and  C_3
REMARK    3  A    between atoms: C_4  and  C_5
REMARK    4  A    between atoms: C_8  and  C_9
REMARK    5  A    between atoms: C_12  and  C_13
REMARK    6  A    between atoms: C_13  and  C_14
REMARK    7  A    between atoms: C_13  and  C_15
REMARK    8  A    between atoms: C_13  and  C_16
REMARK                            x       y       z     vdW  Elec       q    Type
REMARK                         _______ _______ _______ _____ _____    ______ ____
ROOT
ATOM      1  C   UNL     1       6.214   4.075  14.091  0.00  0.00    +0.000 A 
ATOM      2  C   UNL     1       7.276   4.769  14.659  0.00  0.00    +0.000 A 
ATOM      3  C   UNL     1       7.055   5.538  15.826  0.00  0.00    +0.000 A 
ATOM      4  C   UNL     1       5.758   5.616  16.378  0.00  0.00    +0.000 A 
ATOM      5  C   UNL     1       4.741   4.882  15.746  0.00  0.00    +0.000 A 
ATOM      6  C   UNL     1       4.949   4.122  14.619  0.00  0.00    +0.000 A 
ENDROOT
BRANCH   4   7
ATOM      7  C   UNL     1       5.456   6.371  17.670  0.00  0.00    +0.000 C 
ATOM      8  S   UNL     1       3.727   6.833  17.959  0.00  0.00    +0.000 S 
ATOM      9  C   UNL     1       2.955   5.191  18.048  0.00  0.00    +0.000 C 
ATOM     10  C   UNL     1       3.531   4.128  19.015  0.00  0.00    +0.000 C 
ATOM     11  C   UNL     1       5.069   4.034  19.172  0.00  0.00    +0.000 C 
ATOM     12  S   UNL     1       6.036   5.575  19.212  0.00  0.00    +0.000 S 
BRANCH  10  13
ATOM     13  C   UNL     1       2.867   2.689  18.787  0.00  0.00    +0.000 C 
ATOM     14  C   UNL     1       3.847   1.496  18.896  0.00  0.00    +0.000 C 
ATOM     15  C   UNL     1       1.750   2.445  19.824  0.00  0.00    +0.000 C 
ATOM     16  C   UNL     1       2.236   2.613  17.379  0.00  0.00    +0.000 C 
ENDBRANCH  10  13
ENDBRANCH   4   7
BRANCH   1  18
ATOM     17  C   UNL     1       6.354   2.435  11.943  0.00  0.00    +0.000 C 
ATOM     18  C   UNL     1       6.318   3.248  12.961  0.00  0.00    +0.000 C 
BRANCH  17  20
ATOM     19  C   UNL     1       6.170   0.059  11.215  0.00  0.00    +0.000 C 
ATOM     20  C   UNL     1       6.397   1.487  10.756  0.00  0.00    +0.000 C 
ENDBRANCH  17  20
ENDBRANCH   1  18
TORSDOF 4
ENDMDL
MODEL 4
REMARK VINA RESULT:      -6.5      3.474      7.970
REMARK  Name = 
REMARK  8 active torsions:
REMARK  status: ('A' for Active; 'I' for Inactive)
REMARK    1  A    between atoms: C_1  and  C_2
REMARK    2  A    between atoms: C_2  and  C_3
REMARK    3  A    between atoms: C_4  and  C_5
REMARK    4  A    between atoms: C_8  and  C_9
REMARK    5  A    between atoms: C_12  and  C_13
REMARK    6  A    between atoms: C_13  and  C_14
REMARK    7  A    between atoms: C_13  and  C_15
REMARK    8  A    between atoms: C_13  and  C_16
REMARK                            x       y       z     vdW  Elec       q    Type
REMARK                         _______ _______ _______ _____ _____    ______ ____
ROOT
ATOM      1  C   UNL     1       1.636   7.872  19.926  0.00  0.00    +0.000 A 
ATOM      2  C   UNL     1       2.122   7.579  18.658  0.00  0.00    +0.000 A 
ATOM      3  C   UNL     1       2.462   6.243  18.341  0.00  0.00    +0.000 A 
ATOM      4  C   UNL     1       2.334   5.235  19.321  0.00  0.00    +0.000 A 
ATOM      5  C   UNL     1       1.831   5.615  20.576  0.00  0.00    +0.000 A 
ATOM      6  C   UNL     1       1.486   6.909  20.890  0.00  0.00    +0.000 A 
ENDROOT
BRANCH   4   7
ATOM      7  C   UNL     1       2.618   3.763  19.033  0.00  0.00    +0.000 C 
ATOM      8  S   UNL     1       2.627   3.260  17.290  0.00  0.00    +0.000 S 
ATOM      9  C   UNL     1       4.013   4.255  16.665  0.00  0.00    +0.000 C 
ATOM     10  C   UNL     1       5.383   4.194  17.384  0.00  0.00    +0.000 C 
ATOM     11  C   UNL     1       5.398   4.120  18.931  0.00  0.00    +0.000 C 
ATOM     12  S   UNL     1       4.153   3.089  19.766  0.00  0.00    +0.000 S 
BRANCH  10  13
ATOM     13  C   UNL     1       6.399   5.300  16.830  0.00  0.00    +0.000 C 
ATOM     14  C   UNL     1       7.131   4.913  15.523  0.00  0.00    +0.000 C 
ATOM     15  C   UNL     1       5.650   6.620  16.548  0.00  0.00    +0.000 C 
ATOM     16  C   UNL     1       7.495   5.588  17.880  0.00  0.00    +0.000 C 
ENDBRANCH  10  13
ENDBRANCH   4   7
BRANCH   1  18
ATOM     17  C   UNL     1       0.782  10.299  20.769  0.00  0.00    +0.000 C 
ATOM     18  C   UNL     1       1.226   9.149  20.345  0.00  0.00    +0.000 C 
BRANCH  17  20
ATOM     19  C   UNL     1      -0.715  11.437  22.404  0.00  0.00    +0.000 C 
ATOM     20  C   UNL     1       0.265  11.640  21.263  0.00  0.00    +0.000 C 
ENDBRANCH  17  20
ENDBRANCH   1  18
TORSDOF 4
ENDMDL
MODEL 5
REMARK VINA RESULT:      -6.4      3.497      7.925
REMARK  Name = 
REMARK  8 active torsions:
REMARK  status: ('A' for Active; 'I' for Inactive)
REMARK    1  A    between atoms: C_1  and  C_2
REMARK    2  A    between atoms: C_2  and  C_3
REMARK    3  A    between atoms: C_4  and  C_5
REMARK    4  A    between atoms: C_8  and  C_9
REMARK    5  A    between atoms: C_12  and  C_13
REMARK    6  A    between atoms: C_13  and  C_14
REMARK    7  A    between atoms: C_13  and  C_15
REMARK    8  A    between atoms: C_13  and  C_16
REMARK                            x       y       z     vdW  Elec       q    Type
REMARK                         _______ _______ _______ _____ _____    ______ ____
ROOT
ATOM      1  C   UNL     1       1.644   7.933  19.963  0.00  0.00    +0.000 A 
ATOM      2  C   UNL     1       2.164   7.647  18.707  0.00  0.00    +0.000 A 
ATOM      3  C   UNL     1       2.482   6.308  18.379  0.00  0.00    +0.000 A 
ATOM      4  C   UNL     1       2.297   5.289  19.337  0.00  0.00    +0.000 A 
ATOM      5  C   UNL     1       1.763   5.661  20.582  0.00  0.00    +0.000 A 
ATOM      6  C   UNL     1       1.439   6.958  20.905  0.00  0.00    +0.000 A 
ENDROOT
BRANCH   4   7
ATOM      7  C   UNL     1       2.555   3.814  19.035  0.00  0.00    +0.000 C 
ATOM      8  S   UNL     1       2.648   3.345  17.285  0.00  0.00    +0.000 S 
ATOM      9  C   UNL     1       4.094   4.311  16.760  0.00  0.00    +0.000 C 
ATOM     10  C   UNL     1       5.419   4.195  17.552  0.00  0.00    +0.000 C 
ATOM     11  C   UNL     1       5.345   4.090  19.096  0.00  0.00    +0.000 C 
ATOM     12  S   UNL     1       4.026   3.081  19.838  0.00  0.00    +0.000 S 
BRANCH  10  13
ATOM     13  C   UNL     1       6.496   5.280  17.080  0.00  0.00    +0.000 C 
ATOM     14  C   UNL     1       5.926   6.700  16.842  0.00  0.00    +0.000 C 
ATOM     15  C   UNL     1       7.614   5.419  18.134  0.00  0.00    +0.000 C 
ATOM     16  C   UNL     1       7.147   4.838  15.750  0.00  0.00    +0.000 C 
ENDBRANCH  10  13
ENDBRANCH   4   7
BRANCH   1  18
ATOM     17  C   UNL     1       0.824  10.394  20.735  0.00  0.00    +0.000 C 
ATOM     18  C   UNL     1       1.252   9.212  20.389  0.00  0.00    +0.000 C 
BRANCH  17  20
ATOM     19  C   UNL     1      -1.156  11.904  20.835  0.00  0.00    +0.000 C 
ATOM     20  C   UNL     1       0.325  11.772  21.139  0.00  0.00    +0.000 C 
ENDBRANCH  17  20
ENDBRANCH   1  18
TORSDOF 4
ENDMDL
MODEL 6
REMARK VINA RESULT:      -6.4      8.208     10.757
REMARK  Name = 
REMARK  8 active torsions:
REMARK  status: ('A' for Active; 'I' for Inactive)
REMARK    1  A    between atoms: C_1  and  C_2
REMARK    2  A    between atoms: C_2  and  C_3
REMARK    3  A    between atoms: C_4  and  C_5
REMARK    4  A    between atoms: C_8  and  C_9
REMARK    5  A    between atoms: C_12  and  C_13
REMARK    6  A    between atoms: C_13  and  C_14
REMARK    7  A    between atoms: C_13  and  C_15
REMARK    8  A    between atoms: C_13  and  C_16
REMARK                            x       y       z     vdW  Elec       q    Type
REMARK                         _______ _______ _______ _____ _____    ______ ____
ROOT
ATOM      1  C   UNL     1       9.201  10.381  18.864  0.00  0.00    +0.000 A 
ATOM      2  C   UNL     1       9.402  10.588  20.223  0.00  0.00    +0.000 A 
ATOM      3  C   UNL     1       9.968  11.809  20.660  0.00  0.00    +0.000 A 
ATOM      4  C   UNL     1      10.349  12.783  19.713  0.00  0.00    +0.000 A 
ATOM      5  C   UNL     1      10.109  12.497  18.359  0.00  0.00    +0.000 A 
ATOM      6  C   UNL     1       9.547  11.319  17.926  0.00  0.00    +0.000 A 
ENDROOT
BRANCH   4   7
ATOM      7  C   UNL     1      10.905  14.149  20.112  0.00  0.00    +0.000 C 
ATOM      8  S   UNL     1      10.914  15.431  18.830  0.00  0.00    +0.000 S 
ATOM      9  C   UNL     1       9.132  15.595  18.512  0.00  0.00    +0.000 C 
ATOM     10  C   UNL     1       8.165  15.842  19.696  0.00  0.00    +0.000 C 
ATOM     11  C   UNL     1       8.432  15.101  21.030  0.00  0.00    +0.000 C 
ATOM     12  S   UNL     1      10.151  14.914  21.593  0.00  0.00    +0.000 S 
BRANCH  10  13
ATOM     13  C   UNL     1       6.632  15.732  19.249  0.00  0.00    +0.000 C 
ATOM     14  C   UNL     1       5.963  17.079  18.887  0.00  0.00    +0.000 C 
ATOM     15  C   UNL     1       6.501  14.821  18.010  0.00  0.00    +0.000 C 
ATOM     16  C   UNL     1       5.791  15.113  20.387  0.00  0.00    +0.000 C 
ENDBRANCH  10  13
ENDBRANCH   4   7
BRANCH   1  18
ATOM     17  C   UNL     1       8.038   8.145  17.878  0.00  0.00    +0.000 C 
ATOM     18  C   UNL     1       8.611   9.231  18.314  0.00  0.00    +0.000 C 
BRANCH  17  20
ATOM     19  C   UNL     1       5.874   7.093  17.228  0.00  0.00    +0.000 C 
ATOM     20  C   UNL     1       7.370   6.878  17.369  0.00  0.00    +0.000 C 
ENDBRANCH  17  20
ENDBRANCH   1  18
TORSDOF 4
ENDMDL
MODEL 7
REMARK VINA RESULT:      -6.3      3.248      7.424
REMARK  Name = 
REMARK  8 active torsions:
REMARK  status: ('A' for Active; 'I' for Inactive)
REMARK    1  A    between atoms: C_1  and  C_2
REMARK    2  A    between atoms: C_2  and  C_3
REMARK    3  A    between atoms: C_4  and  C_5
REMARK    4  A    between atoms: C_8  and  C_9
REMARK    5  A    between atoms: C_12  and  C_13
REMARK    6  A    between atoms: C_13  and  C_14
REMARK    7  A    between atoms: C_13  and  C_15
REMARK    8  A    between atoms: C_13  and  C_16
REMARK                            x       y       z     vdW  Elec       q    Type
REMARK                         _______ _______ _______ _____ _____    ______ ____
ROOT
ATOM      1  C   UNL     1       1.766   8.015  19.290  0.00  0.00    +0.000 A 
ATOM      2  C   UNL     1       1.703   7.294  20.476  0.00  0.00    +0.000 A 
ATOM      3  C   UNL     1       2.020   5.916  20.466  0.00  0.00    +0.000 A 
ATOM      4  C   UNL     1       2.364   5.285  19.251  0.00  0.00    +0.000 A 
ATOM      5  C   UNL     1       2.409   6.085  18.098  0.00  0.00    +0.000 A 
ATOM      6  C   UNL     1       2.115   7.428  18.100  0.00  0.00    +0.000 A 
ENDROOT
BRANCH   4   7
ATOM      7  C   UNL     1       2.782   3.818  19.173  0.00  0.00    +0.000 C 
ATOM      8  S   UNL     1       2.708   3.036  17.538  0.00  0.00    +0.000 S 
ATOM      9  C   UNL     1       3.925   4.039  16.636  0.00  0.00    +0.000 C 
ATOM     10  C   UNL     1       5.346   4.226  17.222  0.00  0.00    +0.000 C 
ATOM     11  C   UNL     1       5.490   4.412  18.753  0.00  0.00    +0.000 C 
ATOM     12  S   UNL     1       4.433   3.422  19.854  0.00  0.00    +0.000 S 
BRANCH  10  13
ATOM     13  C   UNL     1       6.190   5.315  16.408  0.00  0.00    +0.000 C 
ATOM     14  C   UNL     1       7.245   6.078  17.244  0.00  0.00    +0.000 C 
ATOM     15  C   UNL     1       6.947   4.643  15.242  0.00  0.00    +0.000 C 
ATOM     16  C   UNL     1       5.245   6.382  15.810  0.00  0.00    +0.000 C 
ENDBRANCH  10  13
ENDBRANCH   4   7
BRANCH   1  18
ATOM     17  C   UNL     1       1.364  10.682  19.078  0.00  0.00    +0.000 C 
ATOM     18  C   UNL     1       1.516   9.392  19.181  0.00  0.00    +0.000 C 
BRANCH  17  20
ATOM     19  C   UNL     1       2.382  12.804  18.258  0.00  0.00    +0.000 C 
ATOM     20  C   UNL     1       1.186  12.187  18.959  0.00  0.00    +0.000 C 
ENDBRANCH  17  20
ENDBRANCH   1  18
TORSDOF 4
ENDMDL
MODEL 8
REMARK VINA RESULT:      -6.3      3.294      7.397
REMARK  Name = 
REMARK  8 active torsions:
REMARK  status: ('A' for Active; 'I' for Inactive)
REMARK    1  A    between atoms: C_1  and  C_2
REMARK    2  A    between atoms: C_2  and  C_3
REMARK    3  A    between atoms: C_4  and  C_5
REMARK    4  A    between atoms: C_8  and  C_9
REMARK    5  A    between atoms: C_12  and  C_13
REMARK    6  A    between atoms: C_13  and  C_14
REMARK    7  A    between atoms: C_13  and  C_15
REMARK    8  A    between atoms: C_13  and  C_16
REMARK                            x       y       z     vdW  Elec       q    Type
REMARK                         _______ _______ _______ _____ _____    ______ ____
ROOT
ATOM      1  C   UNL     1       1.784   8.067  19.228  0.00  0.00    +0.000 A 
ATOM      2  C   UNL     1       1.710   7.357  20.420  0.00  0.00    +0.000 A 
ATOM      3  C   UNL     1       1.950   5.963  20.411  0.00  0.00    +0.000 A 
ATOM      4  C   UNL     1       2.229   5.308  19.192  0.00  0.00    +0.000 A 
ATOM      5  C   UNL     1       2.290   6.099  18.033  0.00  0.00    +0.000 A 
ATOM      6  C   UNL     1       2.071   7.456  18.034  0.00  0.00    +0.000 A 
ENDROOT
BRANCH   4   7
ATOM      7  C   UNL     1       2.563   3.820  19.113  0.00  0.00    +0.000 C 
ATOM      8  S   UNL     1       2.632   3.087  17.456  0.00  0.00    +0.000 S 
ATOM      9  C   UNL     1       4.005   4.034  16.732  0.00  0.00    +0.000 C 
ATOM     10  C   UNL     1       5.357   4.113  17.483  0.00  0.00    +0.000 C 
ATOM     11  C   UNL     1       5.333   4.249  19.026  0.00  0.00    +0.000 C 
ATOM     12  S   UNL     1       4.097   3.301  19.965  0.00  0.00    +0.000 S 
BRANCH  10  13
ATOM     13  C   UNL     1       6.355   5.166  16.807  0.00  0.00    +0.000 C 
ATOM     14  C   UNL     1       7.017   4.684  15.494  0.00  0.00    +0.000 C 
ATOM     15  C   UNL     1       5.606   6.475  16.475  0.00  0.00    +0.000 C 
ATOM     16  C   UNL     1       7.505   5.509  17.781  0.00  0.00    +0.000 C 
ENDBRANCH  10  13
ENDBRANCH   4   7
BRANCH   1  18
ATOM     17  C   UNL     1       1.402  10.731  18.945  0.00  0.00    +0.000 C 
ATOM     18  C   UNL     1       1.608   9.456  19.117  0.00  0.00    +0.000 C 
BRANCH  17  20
ATOM     19  C   UNL     1       2.407  12.880  18.181  0.00  0.00    +0.000 C 
ATOM     20  C   UNL     1       1.164  12.219  18.745  0.00  0.00    +0.000 C 
ENDBRANCH  17  20
ENDBRANCH   1  18
TORSDOF 4
ENDMDL
MODEL 9
REMARK VINA RESULT:      -6.3      3.447      7.522
REMARK  Name = 
REMARK  8 active torsions:
REMARK  status: ('A' for Active; 'I' for Inactive)
REMARK    1  A    between atoms: C_1  and  C_2
REMARK    2  A    between atoms: C_2  and  C_3
REMARK    3  A    between atoms: C_4  and  C_5
REMARK    4  A    between atoms: C_8  and  C_9
REMARK    5  A    between atoms: C_12  and  C_13
REMARK    6  A    between atoms: C_13  and  C_14
REMARK    7  A    between atoms: C_13  and  C_15
REMARK    8  A    between atoms: C_13  and  C_16
REMARK                            x       y       z     vdW  Elec       q    Type
REMARK                         _______ _______ _______ _____ _____    ______ ____
ROOT
ATOM      1  C   UNL     1       1.766   8.276  19.224  0.00  0.00    +0.000 A 
ATOM      2  C   UNL     1       2.161   7.636  18.055  0.00  0.00    +0.000 A 
ATOM      3  C   UNL     1       2.413   6.244  18.081  0.00  0.00    +0.000 A 
ATOM      4  C   UNL     1       2.292   5.532  19.294  0.00  0.00    +0.000 A 
ATOM      5  C   UNL     1       1.885   6.253  20.428  0.00  0.00    +0.000 A 
ATOM      6  C   UNL     1       1.625   7.603  20.410  0.00  0.00    +0.000 A 
ENDROOT
BRANCH   4   7
ATOM      7  C   UNL     1       2.483   4.020  19.385  0.00  0.00    +0.000 C 
ATOM      8  S   UNL     1       2.194   3.068  17.869  0.00  0.00    +0.000 S 
ATOM      9  C   UNL     1       3.489   3.756  16.795  0.00  0.00    +0.000 C 
ATOM     10  C   UNL     1       4.955   3.791  17.292  0.00  0.00    +0.000 C 
ATOM     11  C   UNL     1       5.218   4.134  18.779  0.00  0.00    +0.000 C 
ATOM     12  S   UNL     1       4.096   3.459  20.041  0.00  0.00    +0.000 S 
BRANCH  10  13
ATOM     13  C   UNL     1       5.899   4.631  16.310  0.00  0.00    +0.000 C 
ATOM     14  C   UNL     1       5.408   6.068  16.008  0.00  0.00    +0.000 C 
ATOM     15  C   UNL     1       7.315   4.760  16.910  0.00  0.00    +0.000 C 
ATOM     16  C   UNL     1       6.022   3.912  14.948  0.00  0.00    +0.000 C 
ENDBRANCH  10  13
ENDBRANCH   4   7
BRANCH   1  18
ATOM     17  C   UNL     1       1.076  10.886  19.414  0.00  0.00    +0.000 C 
ATOM     18  C   UNL     1       1.449   9.641  19.314  0.00  0.00    +0.000 C 
BRANCH  17  20
ATOM     19  C   UNL     1       1.301  13.171  18.445  0.00  0.00    +0.000 C 
ATOM     20  C   UNL     1       0.643  12.339  19.530  0.00  0.00    +0.000 C 
ENDBRANCH  17  20
ENDBRANCH   1  18
TORSDOF 4
ENDMDL
