MODEL 1
REMARK VINA RESULT:      -7.2      0.000      0.000
REMARK  Name = 
REMARK  7 active torsions:
REMARK  status: ('A' for Active; 'I' for Inactive)
REMARK    1  A    between atoms: C_1  and  C_2
REMARK    2  A    between atoms: N_4  and  C_5
REMARK    3  A    between atoms: C_5  and  C_6
REMARK    4  A    between atoms: C_9  and  C_10
REMARK    5  A    between atoms: C_10  and  N_11
REMARK    6  A    between atoms: C_14  and  C_15
REMARK    7  A    between atoms: C_16  and  C_17
REMARK                            x       y       z     vdW  Elec       q    Type
REMARK                         _______ _______ _______ _____ _____    ______ ____
ROOT
ATOM      1  C   UNL     1       2.502   7.722  17.484  0.00  0.00    +0.000 C 
ATOM      2  C   UNL     1       3.627   6.751  17.503  0.00  0.00    +0.000 A 
ATOM      3  N   UNL     1       4.709   7.030  16.770  0.00  0.00    +0.000 NA
ATOM      4  N   UNL     1       5.543   5.992  16.986  0.00  0.00    +0.000 N 
ATOM      5  C   UNL     1       5.020   5.045  17.839  0.00  0.00    +0.000 A 
ATOM      6  C   UNL     1       5.781   3.823  18.226  0.00  0.00    +0.000 C 
ATOM      7  C   UNL     1       3.745   5.496  18.183  0.00  0.00    +0.000 A 
ENDROOT
BRANCH   7   8
ATOM      8  C   UNL     1       2.835   4.801  19.096  0.00  0.00    +0.000 A 
ATOM      9  C   UNL     1       2.915   5.008  20.483  0.00  0.00    +0.000 A 
ATOM     10  C   UNL     1       2.134   4.257  21.370  0.00  0.00    +0.000 A 
ATOM     11  C   UNL     1       1.280   3.282  20.878  0.00  0.00    +0.000 A 
ATOM     12  F   UNL     1       0.582   2.520  21.728  0.00  0.00    +0.000 F 
ATOM     13  C   UNL     1       1.147   3.085  19.511  0.00  0.00    +0.000 A 
ATOM     14  C   UNL     1       1.898   3.865  18.626  0.00  0.00    +0.000 A 
ENDBRANCH   7   8
BRANCH   4  15
ATOM     15  C   UNL     1       6.751   5.887  16.171  0.00  0.00    +0.000 C 
BRANCH  15  16
ATOM     16  C   UNL     1       6.558   5.210  14.833  0.00  0.00    +0.000 A 
ATOM     17  C   UNL     1       7.534   5.334  13.830  0.00  0.00    +0.000 A 
ATOM     18  C   UNL     1       7.475   4.548  12.675  0.00  0.00    +0.000 A 
ATOM     19  C   UNL     1       6.443   3.621  12.496  0.00  0.00    +0.000 A 
ATOM     20  C   UNL     1       5.431   3.547  13.464  0.00  0.00    +0.000 A 
ATOM     21  C   UNL     1       5.487   4.335  14.619  0.00  0.00    +0.000 A 
BRANCH  19  22
ATOM     22  C   UNL     1       6.437   2.691  11.308  0.00  0.00    +0.000 C 
BRANCH  22  23
ATOM     23  N   UNL     1       5.949   1.364  11.677  0.00  0.00    +0.000 NA
ATOM     24  H   UNL     1       5.455   0.963  10.881  0.00  0.00    +0.000 HD
ATOM     25  H   UNL     1       5.268   1.450  12.428  0.00  0.00    +0.000 HD
ENDBRANCH  22  23
ENDBRANCH  19  22
ENDBRANCH  15  16
ENDBRANCH   4  15
TORSDOF 5
ENDMDL
MODEL 2
REMARK VINA RESULT:      -6.9      0.584      1.157
REMARK  Name = 
REMARK  7 active torsions:
REMARK  status: ('A' for Active; 'I' for Inactive)
REMARK    1  A    between atoms: C_1  and  C_2
REMARK    2  A    between atoms: N_4  and  C_5
REMARK    3  A    between atoms: C_5  and  C_6
REMARK    4  A    between atoms: C_9  and  C_10
REMARK    5  A    between atoms: C_10  and  N_11
REMARK    6  A    between atoms: C_14  and  C_15
REMARK    7  A    between atoms: C_16  and  C_17
REMARK                            x       y       z     vdW  Elec       q    Type
REMARK                         _______ _______ _______ _____ _____    ______ ____
ROOT
ATOM      1  C   UNL     1       1.997   7.715  17.893  0.00  0.00    +0.000 C 
ATOM      2  C   UNL     1       3.207   6.850  17.877  0.00  0.00    +0.000 A 
ATOM      3  N   UNL     1       4.243   7.234  17.125  0.00  0.00    +0.000 NA
ATOM      4  N   UNL     1       5.172   6.274  17.312  0.00  0.00    +0.000 N 
ATOM      5  C   UNL     1       4.756   5.275  18.164  0.00  0.00    +0.000 A 
ATOM      6  C   UNL     1       5.634   4.125  18.521  0.00  0.00    +0.000 C 
ATOM      7  C   UNL     1       3.454   5.605  18.540  0.00  0.00    +0.000 A 
ENDROOT
BRANCH   7   8
ATOM      8  C   UNL     1       2.631   4.820  19.464  0.00  0.00    +0.000 A 
ATOM      9  C   UNL     1       2.896   4.829  20.842  0.00  0.00    +0.000 A 
ATOM     10  C   UNL     1       2.195   3.988  21.716  0.00  0.00    +0.000 A 
ATOM     11  C   UNL     1       1.235   3.122  21.215  0.00  0.00    +0.000 A 
ATOM     12  F   UNL     1       0.611   2.273  22.040  0.00  0.00    +0.000 F 
ATOM     13  C   UNL     1       0.920   3.123  19.864  0.00  0.00    +0.000 A 
ATOM     14  C   UNL     1       1.594   3.993  19.000  0.00  0.00    +0.000 A 
ENDBRANCH   7   8
BRANCH   4  15
ATOM     15  C   UNL     1       6.367   6.288  16.470  0.00  0.00    +0.000 C 
BRANCH  15  16
ATOM     16  C   UNL     1       6.356   5.290  15.335  0.00  0.00    +0.000 A 
ATOM     17  C   UNL     1       5.210   4.519  15.082  0.00  0.00    +0.000 A 
ATOM     18  C   UNL     1       5.107   3.752  13.917  0.00  0.00    +0.000 A 
ATOM     19  C   UNL     1       6.144   3.741  12.978  0.00  0.00    +0.000 A 
ATOM     20  C   UNL     1       7.316   4.456  13.263  0.00  0.00    +0.000 A 
ATOM     21  C   UNL     1       7.422   5.219  14.431  0.00  0.00    +0.000 A 
BRANCH  19  22
ATOM     22  C   UNL     1       5.991   3.009  11.668  0.00  0.00    +0.000 C 
BRANCH  22  23
ATOM     23  N   UNL     1       7.024   1.987  11.510  0.00  0.00    +0.000 NA
ATOM     24  H   UNL     1       6.574   1.084  11.369  0.00  0.00    +0.000 HD
ATOM     25  H   UNL     1       7.562   1.913  12.370  0.00  0.00    +0.000 HD
ENDBRANCH  22  23
ENDBRANCH  19  22
ENDBRANCH  15  16
ENDBRANCH   4  15
TORSDOF 5
ENDMDL
MODEL 3
REMARK VINA RESULT:      -6.9      2.894      4.387
REMARK  Name = 
REMARK  7 active torsions:
REMARK  status: ('A' for Active; 'I' for Inactive)
REMARK    1  A    between atoms: C_1  and  C_2
REMARK    2  A    between atoms: N_4  and  C_5
REMARK    3  A    between atoms: C_5  and  C_6
REMARK    4  A    between atoms: C_9  and  C_10
REMARK    5  A    between atoms: C_10  and  N_11
REMARK    6  A    between atoms: C_14  and  C_15
REMARK    7  A    between atoms: C_16  and  C_17
REMARK                            x       y       z     vdW  Elec       q    Type
REMARK                         _______ _______ _______ _____ _____    ______ ____
ROOT
ATOM      1  C   UNL     1       1.101   4.647  20.454  0.00  0.00    +0.000 C 
ATOM      2  C   UNL     1       2.324   5.062  19.716  0.00  0.00    +0.000 A 
ATOM      3  N   UNL     1       3.273   4.144  19.509  0.00  0.00    +0.000 NA
ATOM      4  N   UNL     1       4.235   4.799  18.827  0.00  0.00    +0.000 N 
ATOM      5  C   UNL     1       3.930   6.122  18.594  0.00  0.00    +0.000 A 
ATOM      6  C   UNL     1       4.848   7.024  17.843  0.00  0.00    +0.000 C 
ATOM      7  C   UNL     1       2.687   6.342  19.187  0.00  0.00    +0.000 A 
ENDROOT
BRANCH   7   8
ATOM      8  C   UNL     1       1.968   7.618  19.162  0.00  0.00    +0.000 A 
ATOM      9  C   UNL     1       1.754   8.296  17.951  0.00  0.00    +0.000 A 
ATOM     10  C   UNL     1       1.178   9.572  17.932  0.00  0.00    +0.000 A 
ATOM     11  C   UNL     1       0.826  10.186  19.124  0.00  0.00    +0.000 A 
ATOM     12  F   UNL     1       0.336  11.431  19.111  0.00  0.00    +0.000 F 
ATOM     13  C   UNL     1       0.984   9.524  20.332  0.00  0.00    +0.000 A 
ATOM     14  C   UNL     1       1.522   8.233  20.345  0.00  0.00    +0.000 A 
ENDBRANCH   7   8
BRANCH   4  15
ATOM     15  C   UNL     1       5.515   4.128  18.610  0.00  0.00    +0.000 C 
BRANCH  15  16
ATOM     16  C   UNL     1       6.031   4.186  17.190  0.00  0.00    +0.000 A 
ATOM     17  C   UNL     1       5.188   3.852  16.117  0.00  0.00    +0.000 A 
ATOM     18  C   UNL     1       5.577   4.104  14.797  0.00  0.00    +0.000 A 
ATOM     19  C   UNL     1       6.814   4.696  14.520  0.00  0.00    +0.000 A 
ATOM     20  C   UNL     1       7.683   4.966  15.587  0.00  0.00    +0.000 A 
ATOM     21  C   UNL     1       7.297   4.711  16.907  0.00  0.00    +0.000 A 
BRANCH  19  22
ATOM     22  C   UNL     1       7.190   5.074  13.109  0.00  0.00    +0.000 C 
BRANCH  22  23
ATOM     23  N   UNL     1       8.460   5.796  13.075  0.00  0.00    +0.000 NA
ATOM     24  H   UNL     1       8.544   6.351  13.925  0.00  0.00    +0.000 HD
ATOM     25  H   UNL     1       8.456   6.453  12.298  0.00  0.00    +0.000 HD
ENDBRANCH  22  23
ENDBRANCH  19  22
ENDBRANCH  15  16
ENDBRANCH   4  15
TORSDOF 5
ENDMDL
MODEL 4
REMARK VINA RESULT:      -6.9      2.719      3.964
REMARK  Name = 
REMARK  7 active torsions:
REMARK  status: ('A' for Active; 'I' for Inactive)
REMARK    1  A    between atoms: C_1  and  C_2
REMARK    2  A    between atoms: N_4  and  C_5
REMARK    3  A    between atoms: C_5  and  C_6
REMARK    4  A    between atoms: C_9  and  C_10
REMARK    5  A    between atoms: C_10  and  N_11
REMARK    6  A    between atoms: C_14  and  C_15
REMARK    7  A    between atoms: C_16  and  C_17
REMARK                            x       y       z     vdW  Elec       q    Type
REMARK                         _______ _______ _______ _____ _____    ______ ____
ROOT
ATOM      1  C   UNL     1       1.276   4.570  20.296  0.00  0.00    +0.000 C 
ATOM      2  C   UNL     1       2.411   5.098  19.493  0.00  0.00    +0.000 A 
ATOM      3  N   UNL     1       3.357   4.238  19.103  0.00  0.00    +0.000 NA
ATOM      4  N   UNL     1       4.232   4.989  18.405  0.00  0.00    +0.000 N 
ATOM      5  C   UNL     1       3.876   6.318  18.341  0.00  0.00    +0.000 A 
ATOM      6  C   UNL     1       4.696   7.322  17.605  0.00  0.00    +0.000 C 
ATOM      7  C   UNL     1       2.692   6.436  19.070  0.00  0.00    +0.000 A 
ENDROOT
BRANCH   7   8
ATOM      8  C   UNL     1       1.945   7.684  19.246  0.00  0.00    +0.000 A 
ATOM      9  C   UNL     1       1.662   8.511  18.147  0.00  0.00    +0.000 A 
ATOM     10  C   UNL     1       1.058   9.762  18.323  0.00  0.00    +0.000 A 
ATOM     11  C   UNL     1       0.748  10.202  19.600  0.00  0.00    +0.000 A 
ATOM     12  F   UNL     1       0.231  11.424  19.775  0.00  0.00    +0.000 F 
ATOM     13  C   UNL     1       0.975   9.389  20.701  0.00  0.00    +0.000 A 
ATOM     14  C   UNL     1       1.540   8.124  20.518  0.00  0.00    +0.000 A 
ENDBRANCH   7   8
BRANCH   4  15
ATOM     15  C   UNL     1       5.500   4.386  17.999  0.00  0.00    +0.000 C 
BRANCH  15  16
ATOM     16  C   UNL     1       5.778   4.430  16.514  0.00  0.00    +0.000 A 
ATOM     17  C   UNL     1       7.032   4.852  16.042  0.00  0.00    +0.000 A 
ATOM     18  C   UNL     1       7.377   4.698  14.695  0.00  0.00    +0.000 A 
ATOM     19  C   UNL     1       6.480   4.119  13.791  0.00  0.00    +0.000 A 
ATOM     20  C   UNL     1       5.203   3.761  14.249  0.00  0.00    +0.000 A 
ATOM     21  C   UNL     1       4.855   3.919  15.595  0.00  0.00    +0.000 A 
BRANCH  19  22
ATOM     22  C   UNL     1       6.888   3.846  12.365  0.00  0.00    +0.000 C 
BRANCH  22  23
ATOM     23  N   UNL     1       6.353   2.569  11.897  0.00  0.00    +0.000 NA
ATOM     24  H   UNL     1       6.933   1.816  12.262  0.00  0.00    +0.000 HD
ATOM     25  H   UNL     1       6.422   2.524  10.882  0.00  0.00    +0.000 HD
ENDBRANCH  22  23
ENDBRANCH  19  22
ENDBRANCH  15  16
ENDBRANCH   4  15
TORSDOF 5
ENDMDL
MODEL 5
REMARK VINA RESULT:      -6.8      2.663      4.047
REMARK  Name = 
REMARK  7 active torsions:
REMARK  status: ('A' for Active; 'I' for Inactive)
REMARK    1  A    between atoms: C_1  and  C_2
REMARK    2  A    between atoms: N_4  and  C_5
REMARK    3  A    between atoms: C_5  and  C_6
REMARK    4  A    between atoms: C_9  and  C_10
REMARK    5  A    between atoms: C_10  and  N_11
REMARK    6  A    between atoms: C_14  and  C_15
REMARK    7  A    between atoms: C_16  and  C_17
REMARK                            x       y       z     vdW  Elec       q    Type
REMARK                         _______ _______ _______ _____ _____    ______ ____
ROOT
ATOM      1  C   UNL     1       1.648   4.911  20.803  0.00  0.00    +0.000 C 
ATOM      2  C   UNL     1       2.735   5.345  19.887  0.00  0.00    +0.000 A 
ATOM      3  N   UNL     1       3.733   4.489  19.649  0.00  0.00    +0.000 NA
ATOM      4  N   UNL     1       4.549   5.146  18.798  0.00  0.00    +0.000 N 
ATOM      5  C   UNL     1       4.102   6.411  18.488  0.00  0.00    +0.000 A 
ATOM      6  C   UNL     1       4.844   7.304  17.553  0.00  0.00    +0.000 C 
ATOM      7  C   UNL     1       2.920   6.591  19.207  0.00  0.00    +0.000 A 
ENDROOT
BRANCH   7   8
ATOM      8  C   UNL     1       2.092   7.798  19.157  0.00  0.00    +0.000 A 
ATOM      9  C   UNL     1       1.546   8.342  20.331  0.00  0.00    +0.000 A 
ATOM     10  C   UNL     1       0.655   9.421  20.279  0.00  0.00    +0.000 A 
ATOM     11  C   UNL     1       0.291   9.953  19.051  0.00  0.00    +0.000 A 
ATOM     12  F   UNL     1      -0.611  10.942  18.997  0.00  0.00    +0.000 F 
ATOM     13  C   UNL     1       0.847   9.466  17.878  0.00  0.00    +0.000 A 
ATOM     14  C   UNL     1       1.768   8.415  17.936  0.00  0.00    +0.000 A 
ENDBRANCH   7   8
BRANCH   4  15
ATOM     15  C   UNL     1       5.850   4.558  18.487  0.00  0.00    +0.000 C 
BRANCH  15  16
ATOM     16  C   UNL     1       6.081   4.268  17.022  0.00  0.00    +0.000 A 
ATOM     17  C   UNL     1       5.070   3.670  16.251  0.00  0.00    +0.000 A 
ATOM     18  C   UNL     1       5.186   3.590  14.859  0.00  0.00    +0.000 A 
ATOM     19  C   UNL     1       6.311   4.105  14.207  0.00  0.00    +0.000 A 
ATOM     20  C   UNL     1       7.351   4.639  14.982  0.00  0.00    +0.000 A 
ATOM     21  C   UNL     1       7.238   4.716  16.375  0.00  0.00    +0.000 A 
BRANCH  19  22
ATOM     22  C   UNL     1       6.389   4.125  12.701  0.00  0.00    +0.000 C 
BRANCH  22  23
ATOM     23  N   UNL     1       6.340   2.771  12.151  0.00  0.00    +0.000 NA
ATOM     24  H   UNL     1       7.252   2.334  12.274  0.00  0.00    +0.000 HD
ATOM     25  H   UNL     1       6.173   2.818  11.149  0.00  0.00    +0.000 HD
ENDBRANCH  22  23
ENDBRANCH  19  22
ENDBRANCH  15  16
ENDBRANCH   4  15
TORSDOF 5
ENDMDL
MODEL 6
REMARK VINA RESULT:      -6.7      2.738      3.917
REMARK  Name = 
REMARK  7 active torsions:
REMARK  status: ('A' for Active; 'I' for Inactive)
REMARK    1  A    between atoms: C_1  and  C_2
REMARK    2  A    between atoms: N_4  and  C_5
REMARK    3  A    between atoms: C_5  and  C_6
REMARK    4  A    between atoms: C_9  and  C_10
REMARK    5  A    between atoms: C_10  and  N_11
REMARK    6  A    between atoms: C_14  and  C_15
REMARK    7  A    between atoms: C_16  and  C_17
REMARK                            x       y       z     vdW  Elec       q    Type
REMARK                         _______ _______ _______ _____ _____    ______ ____
ROOT
ATOM      1  C   UNL     1       1.159   4.579  20.494  0.00  0.00    +0.000 C 
ATOM      2  C   UNL     1       2.317   5.051  19.689  0.00  0.00    +0.000 A 
ATOM      3  N   UNL     1       3.221   4.147  19.302  0.00  0.00    +0.000 NA
ATOM      4  N   UNL     1       4.131   4.855  18.601  0.00  0.00    +0.000 N 
ATOM      5  C   UNL     1       3.836   6.199  18.534  0.00  0.00    +0.000 A 
ATOM      6  C   UNL     1       4.701   7.162  17.795  0.00  0.00    +0.000 C 
ATOM      7  C   UNL     1       2.659   6.374  19.262  0.00  0.00    +0.000 A 
ENDROOT
BRANCH   7   8
ATOM      8  C   UNL     1       1.971   7.656  19.435  0.00  0.00    +0.000 A 
ATOM      9  C   UNL     1       1.519   8.061  20.701  0.00  0.00    +0.000 A 
ATOM     10  C   UNL     1       0.754   9.224  20.855  0.00  0.00    +0.000 A 
ATOM     11  C   UNL     1       0.421   9.980  19.741  0.00  0.00    +0.000 A 
ATOM     12  F   UNL     1      -0.364  11.055  19.879  0.00  0.00    +0.000 F 
ATOM     13  C   UNL     1       0.890   9.629  18.484  0.00  0.00    +0.000 A 
ATOM     14  C   UNL     1       1.688   8.490  18.339  0.00  0.00    +0.000 A 
ENDBRANCH   7   8
BRANCH   4  15
ATOM     15  C   UNL     1       5.369   4.192  18.197  0.00  0.00    +0.000 C 
BRANCH  15  16
ATOM     16  C   UNL     1       5.791   4.451  16.769  0.00  0.00    +0.000 A 
ATOM     17  C   UNL     1       7.095   4.888  16.485  0.00  0.00    +0.000 A 
ATOM     18  C   UNL     1       7.565   4.927  15.167  0.00  0.00    +0.000 A 
ATOM     19  C   UNL     1       6.744   4.529  14.106  0.00  0.00    +0.000 A 
ATOM     20  C   UNL     1       5.421   4.159  14.384  0.00  0.00    +0.000 A 
ATOM     21  C   UNL     1       4.948   4.124  15.700  0.00  0.00    +0.000 A 
BRANCH  19  22
ATOM     22  C   UNL     1       7.282   4.460  12.699  0.00  0.00    +0.000 C 
BRANCH  22  23
ATOM     23  N   UNL     1       6.555   3.473  11.903  0.00  0.00    +0.000 NA
ATOM     24  H   UNL     1       6.459   2.618  12.449  0.00  0.00    +0.000 HD
ATOM     25  H   UNL     1       7.102   3.232  11.080  0.00  0.00    +0.000 HD
ENDBRANCH  22  23
ENDBRANCH  19  22
ENDBRANCH  15  16
ENDBRANCH   4  15
TORSDOF 5
ENDMDL
MODEL 7
REMARK VINA RESULT:      -6.7      0.507      1.124
REMARK  Name = 
REMARK  7 active torsions:
REMARK  status: ('A' for Active; 'I' for Inactive)
REMARK    1  A    between atoms: C_1  and  C_2
REMARK    2  A    between atoms: N_4  and  C_5
REMARK    3  A    between atoms: C_5  and  C_6
REMARK    4  A    between atoms: C_9  and  C_10
REMARK    5  A    between atoms: C_10  and  N_11
REMARK    6  A    between atoms: C_14  and  C_15
REMARK    7  A    between atoms: C_16  and  C_17
REMARK                            x       y       z     vdW  Elec       q    Type
REMARK                         _______ _______ _______ _____ _____    ______ ____
ROOT
ATOM      1  C   UNL     1       2.849   7.803  17.804  0.00  0.00    +0.000 C 
ATOM      2  C   UNL     1       3.880   6.768  17.532  0.00  0.00    +0.000 A 
ATOM      3  N   UNL     1       4.885   7.084  16.709  0.00  0.00    +0.000 NA
ATOM      4  N   UNL     1       5.646   5.972  16.660  0.00  0.00    +0.000 N 
ATOM      5  C   UNL     1       5.152   4.942  17.428  0.00  0.00    +0.000 A 
ATOM      6  C   UNL     1       5.847   3.627  17.529  0.00  0.00    +0.000 C 
ATOM      7  C   UNL     1       3.972   5.418  18.001  0.00  0.00    +0.000 A 
ENDROOT
BRANCH   7   8
ATOM      8  C   UNL     1       3.124   4.652  18.917  0.00  0.00    +0.000 A 
ATOM      9  C   UNL     1       2.236   3.680  18.428  0.00  0.00    +0.000 A 
ATOM     10  C   UNL     1       1.336   3.032  19.282  0.00  0.00    +0.000 A 
ATOM     11  C   UNL     1       1.306   3.362  20.628  0.00  0.00    +0.000 A 
ATOM     12  F   UNL     1       0.402   2.789  21.433  0.00  0.00    +0.000 F 
ATOM     13  C   UNL     1       2.201   4.285  21.149  0.00  0.00    +0.000 A 
ATOM     14  C   UNL     1       3.126   4.901  20.301  0.00  0.00    +0.000 A 
ENDBRANCH   7   8
BRANCH   4  15
ATOM     15  C   UNL     1       6.733   5.915  15.684  0.00  0.00    +0.000 C 
BRANCH  15  16
ATOM     16  C   UNL     1       6.427   5.113  14.440  0.00  0.00    +0.000 A 
ATOM     17  C   UNL     1       7.421   4.908  13.468  0.00  0.00    +0.000 A 
ATOM     18  C   UNL     1       7.223   3.999  12.424  0.00  0.00    +0.000 A 
ATOM     19  C   UNL     1       6.031   3.272  12.328  0.00  0.00    +0.000 A 
ATOM     20  C   UNL     1       5.013   3.527  13.257  0.00  0.00    +0.000 A 
ATOM     21  C   UNL     1       5.208   4.440  14.300  0.00  0.00    +0.000 A 
BRANCH  19  22
ATOM     22  C   UNL     1       5.857   2.209  11.272  0.00  0.00    +0.000 C 
BRANCH  22  23
ATOM     23  N   UNL     1       7.017   1.322  11.220  0.00  0.00    +0.000 NA
ATOM     24  H   UNL     1       7.209   0.977  12.159  0.00  0.00    +0.000 HD
ATOM     25  H   UNL     1       7.837   1.851  10.931  0.00  0.00    +0.000 HD
ENDBRANCH  22  23
ENDBRANCH  19  22
ENDBRANCH  15  16
ENDBRANCH   4  15
TORSDOF 5
ENDMDL
MODEL 8
REMARK VINA RESULT:      -6.7      4.019      7.751
REMARK  Name = 
REMARK  7 active torsions:
REMARK  status: ('A' for Active; 'I' for Inactive)
REMARK    1  A    between atoms: C_1  and  C_2
REMARK    2  A    between atoms: N_4  and  C_5
REMARK    3  A    between atoms: C_5  and  C_6
REMARK    4  A    between atoms: C_9  and  C_10
REMARK    5  A    between atoms: C_10  and  N_11
REMARK    6  A    between atoms: C_14  and  C_15
REMARK    7  A    between atoms: C_16  and  C_17
REMARK                            x       y       z     vdW  Elec       q    Type
REMARK                         _______ _______ _______ _____ _____    ______ ____
ROOT
ATOM      1  C   UNL     1       4.325   6.975  16.617  0.00  0.00    +0.000 C 
ATOM      2  C   UNL     1       3.388   7.104  17.763  0.00  0.00    +0.000 A 
ATOM      3  N   UNL     1       2.949   8.326  18.081  0.00  0.00    +0.000 NA
ATOM      4  N   UNL     1       2.130   8.130  19.134  0.00  0.00    +0.000 N 
ATOM      5  C   UNL     1       2.035   6.808  19.509  0.00  0.00    +0.000 A 
ATOM      6  C   UNL     1       1.172   6.368  20.640  0.00  0.00    +0.000 C 
ATOM      7  C   UNL     1       2.871   6.101  18.644  0.00  0.00    +0.000 A 
ENDROOT
BRANCH   7   8
ATOM      8  C   UNL     1       3.057   4.648  18.672  0.00  0.00    +0.000 A 
ATOM      9  C   UNL     1       4.029   4.066  19.503  0.00  0.00    +0.000 A 
ATOM     10  C   UNL     1       4.297   2.693  19.445  0.00  0.00    +0.000 A 
ATOM     11  C   UNL     1       3.608   1.895  18.544  0.00  0.00    +0.000 A 
ATOM     12  F   UNL     1       3.909   0.594  18.443  0.00  0.00    +0.000 F 
ATOM     13  C   UNL     1       2.612   2.433  17.743  0.00  0.00    +0.000 A 
ATOM     14  C   UNL     1       2.318   3.797  17.832  0.00  0.00    +0.000 A 
ENDBRANCH   7   8
BRANCH   4  15
ATOM     15  C   UNL     1       1.632   9.299  19.855  0.00  0.00    +0.000 C 
BRANCH  15  16
ATOM     16  C   UNL     1       0.435   9.972  19.223  0.00  0.00    +0.000 A 
ATOM     17  C   UNL     1      -0.044   9.538  17.976  0.00  0.00    +0.000 A 
ATOM     18  C   UNL     1      -1.267  10.001  17.479  0.00  0.00    +0.000 A 
ATOM     19  C   UNL     1      -2.040  10.905  18.217  0.00  0.00    +0.000 A 
ATOM     20  C   UNL     1      -1.529  11.390  19.429  0.00  0.00    +0.000 A 
ATOM     21  C   UNL     1      -0.304  10.931  19.925  0.00  0.00    +0.000 A 
BRANCH  19  22
ATOM     22  C   UNL     1      -3.410  11.318  17.740  0.00  0.00    +0.000 C 
BRANCH  22  23
ATOM     23  N   UNL     1      -4.052  12.218  18.695  0.00  0.00    +0.000 NA
ATOM     24  H   UNL     1      -3.341  12.815  19.114  0.00  0.00    +0.000 HD
ATOM     25  H   UNL     1      -4.459  11.675  19.453  0.00  0.00    +0.000 HD
ENDBRANCH  22  23
ENDBRANCH  19  22
ENDBRANCH  15  16
ENDBRANCH   4  15
TORSDOF 5
ENDMDL
MODEL 9
REMARK VINA RESULT:      -6.7      4.044      7.639
REMARK  Name = 
REMARK  7 active torsions:
REMARK  status: ('A' for Active; 'I' for Inactive)
REMARK    1  A    between atoms: C_1  and  C_2
REMARK    2  A    between atoms: N_4  and  C_5
REMARK    3  A    between atoms: C_5  and  C_6
REMARK    4  A    between atoms: C_9  and  C_10
REMARK    5  A    between atoms: C_10  and  N_11
REMARK    6  A    between atoms: C_14  and  C_15
REMARK    7  A    between atoms: C_16  and  C_17
REMARK                            x       y       z     vdW  Elec       q    Type
REMARK                         _______ _______ _______ _____ _____    ______ ____
ROOT
ATOM      1  C   UNL     1       4.331   7.239  16.515  0.00  0.00    +0.000 C 
ATOM      2  C   UNL     1       3.413   7.230  17.684  0.00  0.00    +0.000 A 
ATOM      3  N   UNL     1       2.886   8.394  18.077  0.00  0.00    +0.000 NA
ATOM      4  N   UNL     1       2.110   8.076  19.134  0.00  0.00    +0.000 N 
ATOM      5  C   UNL     1       2.129   6.733  19.435  0.00  0.00    +0.000 A 
ATOM      6  C   UNL     1       1.329   6.163  20.556  0.00  0.00    +0.000 C 
ATOM      7  C   UNL     1       2.998   6.142  18.517  0.00  0.00    +0.000 A 
ENDROOT
BRANCH   7   8
ATOM      8  C   UNL     1       3.299   4.710  18.460  0.00  0.00    +0.000 A 
ATOM      9  C   UNL     1       2.605   3.866  17.577  0.00  0.00    +0.000 A 
ATOM     10  C   UNL     1       2.800   2.480  17.603  0.00  0.00    +0.000 A 
ATOM     11  C   UNL     1       3.677   1.926  18.523  0.00  0.00    +0.000 A 
ATOM     12  F   UNL     1       3.815   0.596  18.592  0.00  0.00    +0.000 F 
ATOM     13  C   UNL     1       4.409   2.736  19.377  0.00  0.00    +0.000 A 
ATOM     14  C   UNL     1       4.243   4.124  19.321  0.00  0.00    +0.000 A 
ENDBRANCH   7   8
BRANCH   4  15
ATOM     15  C   UNL     1       1.537   9.161  19.928  0.00  0.00    +0.000 C 
BRANCH  15  16
ATOM     16  C   UNL     1       0.389   9.892  19.270  0.00  0.00    +0.000 A 
ATOM     17  C   UNL     1      -0.041   9.522  17.985  0.00  0.00    +0.000 A 
ATOM     18  C   UNL     1      -1.227  10.039  17.452  0.00  0.00    +0.000 A 
ATOM     19  C   UNL     1      -2.009  10.934  18.190  0.00  0.00    +0.000 A 
ATOM     20  C   UNL     1      -1.544  11.357  19.443  0.00  0.00    +0.000 A 
ATOM     21  C   UNL     1      -0.356  10.843  19.976  0.00  0.00    +0.000 A 
BRANCH  19  22
ATOM     22  C   UNL     1      -3.343  11.406  17.668  0.00  0.00    +0.000 C 
BRANCH  22  23
ATOM     23  N   UNL     1      -3.341  11.488  16.209  0.00  0.00    +0.000 NA
ATOM     24  H   UNL     1      -2.673  10.813  15.843  0.00  0.00    +0.000 HD
ATOM     25  H   UNL     1      -3.013  12.408  15.922  0.00  0.00    +0.000 HD
ENDBRANCH  22  23
ENDBRANCH  19  22
ENDBRANCH  15  16
ENDBRANCH   4  15
TORSDOF 5
ENDMDL
