MODEL 1
REMARK VINA RESULT:      -8.4      0.000      0.000
REMARK  Name = 
REMARK  3 active torsions:
REMARK  status: ('A' for Active; 'I' for Inactive)
REMARK    1  A    between atoms: C_1  and  C_2
REMARK    2  A    between atoms: C_10  and  C_11
REMARK    3  A    between atoms: C_12  and  C_13
REMARK                            x       y       z     vdW  Elec       q    Type
REMARK                         _______ _______ _______ _____ _____    ______ ____
ROOT
ATOM      1  C   UNL     1       2.025   9.369  17.897  0.00  0.00    +0.000 C 
ATOM      2  C   UNL     1       2.331   8.036  18.517  0.00  0.00    +0.000 A 
ATOM      3  C   UNL     1       1.832   7.710  19.783  0.00  0.00    +0.000 A 
ATOM      4  C   UNL     1       2.118   6.471  20.348  0.00  0.00    +0.000 A 
ATOM      5  C   UNL     1       2.897   5.559  19.638  0.00  0.00    +0.000 A 
ATOM      6  O   UNL     1       3.144   4.332  20.277  0.00  0.00    +0.000 OA
ATOM      7  C   UNL     1       3.906   3.359  19.663  0.00  0.00    +0.000 A 
ATOM      8  O   UNL     1       4.145   2.280  20.198  0.00  0.00    +0.000 OA
ATOM      9  C   UNL     1       4.430   3.662  18.326  0.00  0.00    +0.000 A 
ATOM     10  C   UNL     1       4.232   4.823  17.682  0.00  0.00    +0.000 A 
ATOM     11  C   UNL     1       3.410   5.841  18.370  0.00  0.00    +0.000 A 
ATOM     12  C   UNL     1       3.121   7.099  17.820  0.00  0.00    +0.000 A 
ENDROOT
BRANCH  10  13
ATOM     13  C   UNL     1       4.796   4.996  16.343  0.00  0.00    +0.000 C 
ATOM     14  C   UNL     1       5.534   4.058  15.723  0.00  0.00    +0.000 C 
BRANCH  14  15
ATOM     15  C   UNL     1       6.172   4.205  14.404  0.00  0.00    +0.000 A 
ATOM     16  C   UNL     1       5.650   3.468  13.330  0.00  0.00    +0.000 A 
ATOM     17  C   UNL     1       6.227   3.541  12.060  0.00  0.00    +0.000 A 
ATOM     18  C   UNL     1       7.326   4.368  11.842  0.00  0.00    +0.000 A 
ATOM     19  C   UNL     1       7.830   5.138  12.888  0.00  0.00    +0.000 A 
ATOM     20  C   UNL     1       7.251   5.064  14.161  0.00  0.00    +0.000 A 
ENDBRANCH  14  15
ENDBRANCH  10  13
TORSDOF 2
ENDMDL
MODEL 2
REMARK VINA RESULT:      -8.3      0.220      1.096
REMARK  Name = 
REMARK  3 active torsions:
REMARK  status: ('A' for Active; 'I' for Inactive)
REMARK    1  A    between atoms: C_1  and  C_2
REMARK    2  A    between atoms: C_10  and  C_11
REMARK    3  A    between atoms: C_12  and  C_13
REMARK                            x       y       z     vdW  Elec       q    Type
REMARK                         _______ _______ _______ _____ _____    ______ ____
ROOT
ATOM      1  C   UNL     1       2.100   9.208  17.842  0.00  0.00    +0.000 C 
ATOM      2  C   UNL     1       2.418   7.885  18.479  0.00  0.00    +0.000 A 
ATOM      3  C   UNL     1       1.850   7.534  19.708  0.00  0.00    +0.000 A 
ATOM      4  C   UNL     1       2.148   6.305  20.288  0.00  0.00    +0.000 A 
ATOM      5  C   UNL     1       3.011   5.429  19.630  0.00  0.00    +0.000 A 
ATOM      6  O   UNL     1       3.265   4.210  20.282  0.00  0.00    +0.000 OA
ATOM      7  C   UNL     1       4.106   3.272  19.719  0.00  0.00    +0.000 A 
ATOM      8  O   UNL     1       4.354   2.202  20.266  0.00  0.00    +0.000 OA
ATOM      9  C   UNL     1       4.706   3.603  18.420  0.00  0.00    +0.000 A 
ATOM     10  C   UNL     1       4.503   4.758  17.767  0.00  0.00    +0.000 A 
ATOM     11  C   UNL     1       3.595   5.738  18.400  0.00  0.00    +0.000 A 
ATOM     12  C   UNL     1       3.291   6.986  17.834  0.00  0.00    +0.000 A 
ENDROOT
BRANCH  10  13
ATOM     13  C   UNL     1       5.147   4.960  16.469  0.00  0.00    +0.000 C 
ATOM     14  C   UNL     1       5.325   3.977  15.567  0.00  0.00    +0.000 C 
BRANCH  14  15
ATOM     15  C   UNL     1       6.017   4.115  14.276  0.00  0.00    +0.000 A 
ATOM     16  C   UNL     1       7.102   5.001  14.196  0.00  0.00    +0.000 A 
ATOM     17  C   UNL     1       7.782   5.199  12.992  0.00  0.00    +0.000 A 
ATOM     18  C   UNL     1       7.396   4.498  11.853  0.00  0.00    +0.000 A 
ATOM     19  C   UNL     1       6.348   3.584  11.925  0.00  0.00    +0.000 A 
ATOM     20  C   UNL     1       5.666   3.386  13.132  0.00  0.00    +0.000 A 
ENDBRANCH  14  15
ENDBRANCH  10  13
TORSDOF 2
ENDMDL
MODEL 3
REMARK VINA RESULT:      -8.3      3.084      7.270
REMARK  Name = 
REMARK  3 active torsions:
REMARK  status: ('A' for Active; 'I' for Inactive)
REMARK    1  A    between atoms: C_1  and  C_2
REMARK    2  A    between atoms: C_10  and  C_11
REMARK    3  A    between atoms: C_12  and  C_13
REMARK                            x       y       z     vdW  Elec       q    Type
REMARK                         _______ _______ _______ _____ _____    ______ ____
ROOT
ATOM      1  C   UNL     1       0.686   2.463  19.034  0.00  0.00    +0.000 C 
ATOM      2  C   UNL     1       1.887   3.151  18.452  0.00  0.00    +0.000 A 
ATOM      3  C   UNL     1       2.943   2.406  17.917  0.00  0.00    +0.000 A 
ATOM      4  C   UNL     1       4.050   3.052  17.376  0.00  0.00    +0.000 A 
ATOM      5  C   UNL     1       4.091   4.446  17.369  0.00  0.00    +0.000 A 
ATOM      6  O   UNL     1       5.244   5.024  16.809  0.00  0.00    +0.000 OA
ATOM      7  C   UNL     1       5.388   6.395  16.753  0.00  0.00    +0.000 A 
ATOM      8  O   UNL     1       6.385   6.930  16.278  0.00  0.00    +0.000 OA
ATOM      9  C   UNL     1       4.289   7.208  17.291  0.00  0.00    +0.000 A 
ATOM     10  C   UNL     1       3.177   6.701  17.845  0.00  0.00    +0.000 A 
ATOM     11  C   UNL     1       3.057   5.228  17.887  0.00  0.00    +0.000 A 
ATOM     12  C   UNL     1       1.953   4.559  18.437  0.00  0.00    +0.000 A 
ENDROOT
BRANCH  10  13
ATOM     13  C   UNL     1       2.146   7.619  18.331  0.00  0.00    +0.000 C 
ATOM     14  C   UNL     1       1.852   8.787  17.732  0.00  0.00    +0.000 C 
BRANCH  14  15
ATOM     15  C   UNL     1       0.868   9.771  18.212  0.00  0.00    +0.000 A 
ATOM     16  C   UNL     1       1.326  10.836  19.003  0.00  0.00    +0.000 A 
ATOM     17  C   UNL     1       0.438  11.786  19.514  0.00  0.00    +0.000 A 
ATOM     18  C   UNL     1      -0.921  11.694  19.225  0.00  0.00    +0.000 A 
ATOM     19  C   UNL     1      -1.386  10.667  18.407  0.00  0.00    +0.000 A 
ATOM     20  C   UNL     1      -0.495   9.714  17.895  0.00  0.00    +0.000 A 
ENDBRANCH  14  15
ENDBRANCH  10  13
TORSDOF 2
ENDMDL
MODEL 4
REMARK VINA RESULT:      -8.2      2.858      7.211
REMARK  Name = 
REMARK  3 active torsions:
REMARK  status: ('A' for Active; 'I' for Inactive)
REMARK    1  A    between atoms: C_1  and  C_2
REMARK    2  A    between atoms: C_10  and  C_11
REMARK    3  A    between atoms: C_12  and  C_13
REMARK                            x       y       z     vdW  Elec       q    Type
REMARK                         _______ _______ _______ _____ _____    ______ ____
ROOT
ATOM      1  C   UNL     1       5.104   2.444  11.617  0.00  0.00    +0.000 C 
ATOM      2  C   UNL     1       5.813   3.395  12.538  0.00  0.00    +0.000 A 
ATOM      3  C   UNL     1       6.986   4.038  12.129  0.00  0.00    +0.000 A 
ATOM      4  C   UNL     1       7.634   4.920  12.988  0.00  0.00    +0.000 A 
ATOM      5  C   UNL     1       7.099   5.159  14.254  0.00  0.00    +0.000 A 
ATOM      6  O   UNL     1       7.813   6.060  15.063  0.00  0.00    +0.000 OA
ATOM      7  C   UNL     1       7.372   6.365  16.335  0.00  0.00    +0.000 A 
ATOM      8  O   UNL     1       7.976   7.142  17.068  0.00  0.00    +0.000 OA
ATOM      9  C   UNL     1       6.133   5.720  16.788  0.00  0.00    +0.000 A 
ATOM     10  C   UNL     1       5.426   4.846  16.057  0.00  0.00    +0.000 A 
ATOM     11  C   UNL     1       5.928   4.543  14.699  0.00  0.00    +0.000 A 
ATOM     12  C   UNL     1       5.294   3.649  13.824  0.00  0.00    +0.000 A 
ENDROOT
BRANCH  10  13
ATOM     13  C   UNL     1       4.197   4.283  16.618  0.00  0.00    +0.000 C 
ATOM     14  C   UNL     1       3.830   4.437  17.903  0.00  0.00    +0.000 C 
BRANCH  14  15
ATOM     15  C   UNL     1       2.638   3.844  18.529  0.00  0.00    +0.000 A 
ATOM     16  C   UNL     1       2.043   4.526  19.602  0.00  0.00    +0.000 A 
ATOM     17  C   UNL     1       0.927   4.001  20.258  0.00  0.00    +0.000 A 
ATOM     18  C   UNL     1       0.378   2.793  19.837  0.00  0.00    +0.000 A 
ATOM     19  C   UNL     1       0.930   2.125  18.747  0.00  0.00    +0.000 A 
ATOM     20  C   UNL     1       2.049   2.651  18.090  0.00  0.00    +0.000 A 
ENDBRANCH  14  15
ENDBRANCH  10  13
TORSDOF 2
ENDMDL
MODEL 5
REMARK VINA RESULT:      -8.2      3.045      7.038
REMARK  Name = 
REMARK  3 active torsions:
REMARK  status: ('A' for Active; 'I' for Inactive)
REMARK    1  A    between atoms: C_1  and  C_2
REMARK    2  A    between atoms: C_10  and  C_11
REMARK    3  A    between atoms: C_12  and  C_13
REMARK                            x       y       z     vdW  Elec       q    Type
REMARK                         _______ _______ _______ _____ _____    ______ ____
ROOT
ATOM      1  C   UNL     1       0.541   2.562  18.961  0.00  0.00    +0.000 C 
ATOM      2  C   UNL     1       1.804   3.166  18.419  0.00  0.00    +0.000 A 
ATOM      3  C   UNL     1       2.846   2.348  17.968  0.00  0.00    +0.000 A 
ATOM      4  C   UNL     1       4.011   2.917  17.463  0.00  0.00    +0.000 A 
ATOM      5  C   UNL     1       4.125   4.306  17.408  0.00  0.00    +0.000 A 
ATOM      6  O   UNL     1       5.334   4.803  16.889  0.00  0.00    +0.000 OA
ATOM      7  C   UNL     1       5.551   6.163  16.792  0.00  0.00    +0.000 A 
ATOM      8  O   UNL     1       6.598   6.628  16.350  0.00  0.00    +0.000 OA
ATOM      9  C   UNL     1       4.471   7.049  17.241  0.00  0.00    +0.000 A 
ATOM     10  C   UNL     1       3.307   6.621  17.754  0.00  0.00    +0.000 A 
ATOM     11  C   UNL     1       3.108   5.158  17.842  0.00  0.00    +0.000 A 
ATOM     12  C   UNL     1       1.944   4.567  18.357  0.00  0.00    +0.000 A 
ENDROOT
BRANCH  10  13
ATOM     13  C   UNL     1       2.301   7.607  18.151  0.00  0.00    +0.000 C 
ATOM     14  C   UNL     1       2.319   8.889  17.743  0.00  0.00    +0.000 C 
BRANCH  14  15
ATOM     15  C   UNL     1       1.367   9.932  18.159  0.00  0.00    +0.000 A 
ATOM     16  C   UNL     1       0.000   9.617  18.168  0.00  0.00    +0.000 A 
ATOM     17  C   UNL     1      -0.955  10.572  18.525  0.00  0.00    +0.000 A 
ATOM     18  C   UNL     1      -0.554  11.853  18.895  0.00  0.00    +0.000 A 
ATOM     19  C   UNL     1       0.802  12.169  18.932  0.00  0.00    +0.000 A 
ATOM     20  C   UNL     1       1.760  11.211  18.574  0.00  0.00    +0.000 A 
ENDBRANCH  14  15
ENDBRANCH  10  13
TORSDOF 2
ENDMDL
MODEL 6
REMARK VINA RESULT:      -8.2      2.629      7.112
REMARK  Name = 
REMARK  3 active torsions:
REMARK  status: ('A' for Active; 'I' for Inactive)
REMARK    1  A    between atoms: C_1  and  C_2
REMARK    2  A    between atoms: C_10  and  C_11
REMARK    3  A    between atoms: C_12  and  C_13
REMARK                            x       y       z     vdW  Elec       q    Type
REMARK                         _______ _______ _______ _____ _____    ______ ____
ROOT
ATOM      1  C   UNL     1       7.696   7.824  17.481  0.00  0.00    +0.000 C 
ATOM      2  C   UNL     1       6.754   6.661  17.357  0.00  0.00    +0.000 A 
ATOM      3  C   UNL     1       7.212   5.420  16.902  0.00  0.00    +0.000 A 
ATOM      4  C   UNL     1       6.332   4.348  16.794  0.00  0.00    +0.000 A 
ATOM      5  C   UNL     1       4.995   4.522  17.149  0.00  0.00    +0.000 A 
ATOM      6  O   UNL     1       4.169   3.393  17.009  0.00  0.00    +0.000 OA
ATOM      7  C   UNL     1       2.829   3.457  17.331  0.00  0.00    +0.000 A 
ATOM      8  O   UNL     1       2.080   2.492  17.212  0.00  0.00    +0.000 OA
ATOM      9  C   UNL     1       2.319   4.741  17.829  0.00  0.00    +0.000 A 
ATOM     10  C   UNL     1       3.065   5.847  17.967  0.00  0.00    +0.000 A 
ATOM     11  C   UNL     1       4.497   5.741  17.614  0.00  0.00    +0.000 A 
ATOM     12  C   UNL     1       5.396   6.815  17.706  0.00  0.00    +0.000 A 
ENDROOT
BRANCH  10  13
ATOM     13  C   UNL     1       2.441   7.063  18.490  0.00  0.00    +0.000 C 
ATOM     14  C   UNL     1       2.127   7.236  19.787  0.00  0.00    +0.000 C 
BRANCH  14  15
ATOM     15  C   UNL     1       1.447   8.413  20.353  0.00  0.00    +0.000 A 
ATOM     16  C   UNL     1       1.066   9.443  19.479  0.00  0.00    +0.000 A 
ATOM     17  C   UNL     1       0.444  10.598  19.958  0.00  0.00    +0.000 A 
ATOM     18  C   UNL     1       0.176  10.731  21.318  0.00  0.00    +0.000 A 
ATOM     19  C   UNL     1       0.509   9.699  22.192  0.00  0.00    +0.000 A 
ATOM     20  C   UNL     1       1.134   8.542  21.712  0.00  0.00    +0.000 A 
ENDBRANCH  14  15
ENDBRANCH  10  13
TORSDOF 2
ENDMDL
MODEL 7
REMARK VINA RESULT:      -8.2      3.004      7.548
REMARK  Name = 
REMARK  3 active torsions:
REMARK  status: ('A' for Active; 'I' for Inactive)
REMARK    1  A    between atoms: C_1  and  C_2
REMARK    2  A    between atoms: C_10  and  C_11
REMARK    3  A    between atoms: C_12  and  C_13
REMARK                            x       y       z     vdW  Elec       q    Type
REMARK                         _______ _______ _______ _____ _____    ______ ____
ROOT
ATOM      1  C   UNL     1       0.451   2.640  19.276  0.00  0.00    +0.000 C 
ATOM      2  C   UNL     1       1.657   3.225  18.596  0.00  0.00    +0.000 A 
ATOM      3  C   UNL     1       2.575   2.396  17.942  0.00  0.00    +0.000 A 
ATOM      4  C   UNL     1       3.687   2.948  17.313  0.00  0.00    +0.000 A 
ATOM      5  C   UNL     1       3.870   4.330  17.336  0.00  0.00    +0.000 A 
ATOM      6  O   UNL     1       5.019   4.809  16.681  0.00  0.00    +0.000 OA
ATOM      7  C   UNL     1       5.297   6.160  16.646  0.00  0.00    +0.000 A 
ATOM      8  O   UNL     1       6.295   6.608  16.089  0.00  0.00    +0.000 OA
ATOM      9  C   UNL     1       4.344   7.059  17.308  0.00  0.00    +0.000 A 
ATOM     10  C   UNL     1       3.243   6.647  17.956  0.00  0.00    +0.000 A 
ATOM     11  C   UNL     1       2.976   5.192  17.972  0.00  0.00    +0.000 A 
ATOM     12  C   UNL     1       1.866   4.619  18.610  0.00  0.00    +0.000 A 
ENDROOT
BRANCH  10  13
ATOM     13  C   UNL     1       2.362   7.646  18.563  0.00  0.00    +0.000 C 
ATOM     14  C   UNL     1       2.134   7.727  19.887  0.00  0.00    +0.000 C 
BRANCH  14  15
ATOM     15  C   UNL     1       1.215   8.672  20.540  0.00  0.00    +0.000 A 
ATOM     16  C   UNL     1       1.151   8.674  21.942  0.00  0.00    +0.000 A 
ATOM     17  C   UNL     1       0.278   9.526  22.621  0.00  0.00    +0.000 A 
ATOM     18  C   UNL     1      -0.533  10.404  21.907  0.00  0.00    +0.000 A 
ATOM     19  C   UNL     1      -0.451  10.445  20.517  0.00  0.00    +0.000 A 
ATOM     20  C   UNL     1       0.424   9.589  19.836  0.00  0.00    +0.000 A 
ENDBRANCH  14  15
ENDBRANCH  10  13
TORSDOF 2
ENDMDL
MODEL 8
REMARK VINA RESULT:      -8.1      2.483      7.568
REMARK  Name = 
REMARK  3 active torsions:
REMARK  status: ('A' for Active; 'I' for Inactive)
REMARK    1  A    between atoms: C_1  and  C_2
REMARK    2  A    between atoms: C_10  and  C_11
REMARK    3  A    between atoms: C_12  and  C_13
REMARK                            x       y       z     vdW  Elec       q    Type
REMARK                         _______ _______ _______ _____ _____    ______ ____
ROOT
ATOM      1  C   UNL     1       5.123   6.256  15.968  0.00  0.00    +0.000 C 
ATOM      2  C   UNL     1       4.567   5.373  17.048  0.00  0.00    +0.000 A 
ATOM      3  C   UNL     1       4.893   4.014  17.093  0.00  0.00    +0.000 A 
ATOM      4  C   UNL     1       4.376   3.205  18.101  0.00  0.00    +0.000 A 
ATOM      5  C   UNL     1       3.538   3.765  19.064  0.00  0.00    +0.000 A 
ATOM      6  O   UNL     1       3.054   2.882  20.046  0.00  0.00    +0.000 OA
ATOM      7  C   UNL     1       2.215   3.333  21.045  0.00  0.00    +0.000 A 
ATOM      8  O   UNL     1       1.770   2.586  21.912  0.00  0.00    +0.000 OA
ATOM      9  C   UNL     1       1.866   4.759  21.037  0.00  0.00    +0.000 A 
ATOM     10  C   UNL     1       2.293   5.635  20.114  0.00  0.00    +0.000 A 
ATOM     11  C   UNL     1       3.191   5.117  19.059  0.00  0.00    +0.000 A 
ATOM     12  C   UNL     1       3.714   5.916  18.031  0.00  0.00    +0.000 A 
ENDROOT
BRANCH  10  13
ATOM     13  C   UNL     1       1.887   7.036  20.226  0.00  0.00    +0.000 C 
ATOM     14  C   UNL     1       1.082   7.499  21.200  0.00  0.00    +0.000 C 
BRANCH  14  15
ATOM     15  C   UNL     1       0.598   8.884  21.323  0.00  0.00    +0.000 A 
ATOM     16  C   UNL     1      -0.068   9.251  22.503  0.00  0.00    +0.000 A 
ATOM     17  C   UNL     1      -0.577  10.541  22.669  0.00  0.00    +0.000 A 
ATOM     18  C   UNL     1      -0.411  11.489  21.663  0.00  0.00    +0.000 A 
ATOM     19  C   UNL     1       0.284  11.153  20.504  0.00  0.00    +0.000 A 
ATOM     20  C   UNL     1       0.794   9.860  20.338  0.00  0.00    +0.000 A 
ENDBRANCH  14  15
ENDBRANCH  10  13
TORSDOF 2
ENDMDL
MODEL 9
REMARK VINA RESULT:      -8.1      2.660      7.083
REMARK  Name = 
REMARK  3 active torsions:
REMARK  status: ('A' for Active; 'I' for Inactive)
REMARK    1  A    between atoms: C_1  and  C_2
REMARK    2  A    between atoms: C_10  and  C_11
REMARK    3  A    between atoms: C_12  and  C_13
REMARK                            x       y       z     vdW  Elec       q    Type
REMARK                         _______ _______ _______ _____ _____    ______ ____
ROOT
ATOM      1  C   UNL     1       7.612   7.915  17.463  0.00  0.00    +0.000 C 
ATOM      2  C   UNL     1       6.719   6.711  17.369  0.00  0.00    +0.000 A 
ATOM      3  C   UNL     1       7.235   5.472  16.975  0.00  0.00    +0.000 A 
ATOM      4  C   UNL     1       6.400   4.362  16.895  0.00  0.00    +0.000 A 
ATOM      5  C   UNL     1       5.050   4.497  17.218  0.00  0.00    +0.000 A 
ATOM      6  O   UNL     1       4.273   3.331  17.109  0.00  0.00    +0.000 OA
ATOM      7  C   UNL     1       2.925   3.354  17.403  0.00  0.00    +0.000 A 
ATOM      8  O   UNL     1       2.217   2.355  17.311  0.00  0.00    +0.000 OA
ATOM      9  C   UNL     1       2.354   4.635  17.837  0.00  0.00    +0.000 A 
ATOM     10  C   UNL     1       3.054   5.776  17.943  0.00  0.00    +0.000 A 
ATOM     11  C   UNL     1       4.496   5.713  17.622  0.00  0.00    +0.000 A 
ATOM     12  C   UNL     1       5.350   6.824  17.687  0.00  0.00    +0.000 A 
ENDROOT
BRANCH  10  13
ATOM     13  C   UNL     1       2.371   6.986  18.404  0.00  0.00    +0.000 C 
ATOM     14  C   UNL     1       2.195   7.288  19.703  0.00  0.00    +0.000 C 
BRANCH  14  15
ATOM     15  C   UNL     1       1.466   8.460  20.217  0.00  0.00    +0.000 A 
ATOM     16  C   UNL     1       1.191   8.518  21.592  0.00  0.00    +0.000 A 
ATOM     17  C   UNL     1       0.478   9.589  22.137  0.00  0.00    +0.000 A 
ATOM     18  C   UNL     1       0.045  10.626  21.316  0.00  0.00    +0.000 A 
ATOM     19  C   UNL     1       0.347  10.604  19.956  0.00  0.00    +0.000 A 
ATOM     20  C   UNL     1       1.061   9.530  19.410  0.00  0.00    +0.000 A 
ENDBRANCH  14  15
ENDBRANCH  10  13
TORSDOF 2
ENDMDL
