MODEL 1
REMARK VINA RESULT:      -8.2      0.000      0.000
REMARK  Name = 
REMARK  16 active torsions:
REMARK  status: ('A' for Active; 'I' for Inactive)
REMARK    1  A    between atoms: C_1  and  C_2
REMARK    2  A    between atoms: C_4  and  C_5
REMARK    3  A    between atoms: C_6  and  C_7
REMARK    4  A    between atoms: C_14  and  C_15
REMARK    5  A    between atoms: C_15  and  C_16
REMARK    6  A    between atoms: C_15  and  C_17
REMARK    7  A    between atoms: C_15  and  C_18
REMARK    8  A    between atoms: C_19  and  O_20
REMARK    9  A    between atoms: O_20  and  C_21
REMARK   10  A    between atoms: C_21  and  C_22
REMARK   11  A    between atoms: C_22  and  O_23
REMARK   12  A    between atoms: C_22  and  C_24
REMARK   13  A    between atoms: C_24  and  N_25
REMARK   14  A    between atoms: N_25  and  C_26
REMARK   15  A    between atoms: C_26  and  C_27
REMARK   16  A    between atoms: C_26  and  C_28
REMARK                            x       y       z     vdW  Elec       q    Type
REMARK                         _______ _______ _______ _____ _____    ______ ____
ROOT
ATOM      1  C   UNL     1       4.173   7.127  17.056  0.00  0.00    +0.000 C 
ATOM      2  C   UNL     1       3.531   6.458  18.246  0.00  0.00    +0.000 A 
ATOM      3  C   UNL     1       2.729   7.301  19.041  0.00  0.00    +0.000 A 
ATOM      4  C   UNL     1       2.010   6.822  20.130  0.00  0.00    +0.000 A 
ATOM      5  C   UNL     1       2.127   5.468  20.451  0.00  0.00    +0.000 A 
ATOM      6  C   UNL     1       2.912   4.558  19.700  0.00  0.00    +0.000 A 
ATOM      7  C   UNL     1       3.634   5.081  18.584  0.00  0.00    +0.000 A 
ENDROOT
BRANCH   6   8
ATOM      8  C   UNL     1       2.930   3.052  20.100  0.00  0.00    +0.000 C 
ATOM      9  C   UNL     1       2.132   2.157  19.112  0.00  0.00    +0.000 C 
ATOM     10  C   UNL     1       4.374   2.502  20.105  0.00  0.00    +0.000 C 
ATOM     11  C   UNL     1       2.289   2.803  21.484  0.00  0.00    +0.000 C 
ENDBRANCH   6   8
BRANCH   4  12
ATOM     12  C   UNL     1       1.189   7.767  20.908  0.00  0.00    +0.000 C 
ATOM     13  C   UNL     1       0.850   9.003  20.504  0.00  0.00    +0.000 C 
BRANCH  13  14
ATOM     14  C   UNL     1       0.066   9.947  21.317  0.00  0.00    +0.000 A 
ATOM     15  C   UNL     1      -0.235  11.208  20.782  0.00  0.00    +0.000 A 
ATOM     16  C   UNL     1      -0.989  12.134  21.510  0.00  0.00    +0.000 A 
ATOM     17  C   UNL     1      -1.457  11.805  22.779  0.00  0.00    +0.000 A 
ATOM     18  C   UNL     1      -1.181  10.550  23.318  0.00  0.00    +0.000 A 
ATOM     19  C   UNL     1      -0.433   9.621  22.591  0.00  0.00    +0.000 A 
ENDBRANCH  13  14
ENDBRANCH   4  12
BRANCH   7  20
ATOM     20  O   UNL     1       4.333   4.142  17.863  0.00  0.00    +0.000 OA
BRANCH  20  21
ATOM     21  C   UNL     1       4.229   4.159  16.444  0.00  0.00    +0.000 C 
BRANCH  21  22
ATOM     22  C   UNL     1       5.619   4.104  15.780  0.00  0.00    +0.000 C 
BRANCH  22  23
ATOM     23  O   UNL     1       5.787   5.136  14.798  0.00  0.00    +0.000 OA
ATOM     24  H   UNL     1       5.016   5.727  14.850  0.00  0.00    +0.000 HD
ENDBRANCH  22  23
BRANCH  22  25
ATOM     25  C   UNL     1       6.724   4.263  16.847  0.00  0.00    +0.000 C 
BRANCH  25  26
ATOM     26  N   UNL     1       7.394   5.562  16.755  0.00  0.00    +0.000 NA
ATOM     27  H   UNL     1       7.040   6.060  15.936  0.00  0.00    +0.000 HD
BRANCH  26  28
ATOM     28  C   UNL     1       7.231   6.409  17.939  0.00  0.00    +0.000 C 
ATOM     29  C   UNL     1       7.910   5.826  19.181  0.00  0.00    +0.000 C 
ATOM     30  C   UNL     1       7.847   7.775  17.620  0.00  0.00    +0.000 C 
ENDBRANCH  26  28
ENDBRANCH  25  26
ENDBRANCH  22  25
ENDBRANCH  21  22
ENDBRANCH  20  21
ENDBRANCH   7  20
TORSDOF 10
ENDMDL
MODEL 2
REMARK VINA RESULT:      -8.1      0.540      1.057
REMARK  Name = 
REMARK  16 active torsions:
REMARK  status: ('A' for Active; 'I' for Inactive)
REMARK    1  A    between atoms: C_1  and  C_2
REMARK    2  A    between atoms: C_4  and  C_5
REMARK    3  A    between atoms: C_6  and  C_7
REMARK    4  A    between atoms: C_14  and  C_15
REMARK    5  A    between atoms: C_15  and  C_16
REMARK    6  A    between atoms: C_15  and  C_17
REMARK    7  A    between atoms: C_15  and  C_18
REMARK    8  A    between atoms: C_19  and  O_20
REMARK    9  A    between atoms: O_20  and  C_21
REMARK   10  A    between atoms: C_21  and  C_22
REMARK   11  A    between atoms: C_22  and  O_23
REMARK   12  A    between atoms: C_22  and  C_24
REMARK   13  A    between atoms: C_24  and  N_25
REMARK   14  A    between atoms: N_25  and  C_26
REMARK   15  A    between atoms: C_26  and  C_27
REMARK   16  A    between atoms: C_26  and  C_28
REMARK                            x       y       z     vdW  Elec       q    Type
REMARK                         _______ _______ _______ _____ _____    ______ ____
ROOT
ATOM      1  C   UNL     1       4.190   6.973  16.852  0.00  0.00    +0.000 C 
ATOM      2  C   UNL     1       3.572   6.307  18.056  0.00  0.00    +0.000 A 
ATOM      3  C   UNL     1       2.813   7.159  18.883  0.00  0.00    +0.000 A 
ATOM      4  C   UNL     1       2.118   6.685  19.990  0.00  0.00    +0.000 A 
ATOM      5  C   UNL     1       2.216   5.326  20.296  0.00  0.00    +0.000 A 
ATOM      6  C   UNL     1       2.959   4.407  19.512  0.00  0.00    +0.000 A 
ATOM      7  C   UNL     1       3.656   4.925  18.379  0.00  0.00    +0.000 A 
ENDROOT
BRANCH   6   8
ATOM      8  C   UNL     1       2.957   2.897  19.899  0.00  0.00    +0.000 C 
ATOM      9  C   UNL     1       2.379   1.989  18.778  0.00  0.00    +0.000 C 
ATOM     10  C   UNL     1       4.395   2.394  20.158  0.00  0.00    +0.000 C 
ATOM     11  C   UNL     1       2.090   2.609  21.145  0.00  0.00    +0.000 C 
ENDBRANCH   6   8
BRANCH   4  12
ATOM     12  C   UNL     1       1.341   7.640  20.801  0.00  0.00    +0.000 C 
ATOM     13  C   UNL     1       0.949   8.857  20.389  0.00  0.00    +0.000 C 
BRANCH  13  14
ATOM     14  C   UNL     1       0.212   9.812  21.232  0.00  0.00    +0.000 A 
ATOM     15  C   UNL     1      -0.270   9.382  22.476  0.00  0.00    +0.000 A 
ATOM     16  C   UNL     1      -0.962  10.258  23.318  0.00  0.00    +0.000 A 
ATOM     17  C   UNL     1      -1.173  11.577  22.927  0.00  0.00    +0.000 A 
ATOM     18  C   UNL     1      -0.686  12.025  21.701  0.00  0.00    +0.000 A 
ATOM     19  C   UNL     1       0.011  11.155  20.860  0.00  0.00    +0.000 A 
ENDBRANCH  13  14
ENDBRANCH   4  12
BRANCH   7  20
ATOM     20  O   UNL     1       4.312   3.978  17.629  0.00  0.00    +0.000 OA
BRANCH  20  21
ATOM     21  C   UNL     1       4.556   4.250  16.253  0.00  0.00    +0.000 C 
BRANCH  21  22
ATOM     22  C   UNL     1       5.990   3.856  15.850  0.00  0.00    +0.000 C 
BRANCH  22  23
ATOM     23  O   UNL     1       6.037   3.259  14.547  0.00  0.00    +0.000 OA
ATOM     24  H   UNL     1       5.570   3.848  13.930  0.00  0.00    +0.000 HD
ENDBRANCH  22  23
BRANCH  22  25
ATOM     25  C   UNL     1       6.902   5.103  15.848  0.00  0.00    +0.000 C 
BRANCH  25  26
ATOM     26  N   UNL     1       7.734   5.176  17.052  0.00  0.00    +0.000 NA
ATOM     27  H   UNL     1       8.683   5.442  16.782  0.00  0.00    +0.000 HD
BRANCH  26  28
ATOM     28  C   UNL     1       7.243   6.111  18.067  0.00  0.00    +0.000 C 
ATOM     29  C   UNL     1       7.652   5.711  19.487  0.00  0.00    +0.000 C 
ATOM     30  C   UNL     1       7.823   7.492  17.743  0.00  0.00    +0.000 C 
ENDBRANCH  26  28
ENDBRANCH  25  26
ENDBRANCH  22  25
ENDBRANCH  21  22
ENDBRANCH  20  21
ENDBRANCH   7  20
TORSDOF 10
ENDMDL
MODEL 3
REMARK VINA RESULT:      -8.1      0.269      1.078
REMARK  Name = 
REMARK  16 active torsions:
REMARK  status: ('A' for Active; 'I' for Inactive)
REMARK    1  A    between atoms: C_1  and  C_2
REMARK    2  A    between atoms: C_4  and  C_5
REMARK    3  A    between atoms: C_6  and  C_7
REMARK    4  A    between atoms: C_14  and  C_15
REMARK    5  A    between atoms: C_15  and  C_16
REMARK    6  A    between atoms: C_15  and  C_17
REMARK    7  A    between atoms: C_15  and  C_18
REMARK    8  A    between atoms: C_19  and  O_20
REMARK    9  A    between atoms: O_20  and  C_21
REMARK   10  A    between atoms: C_21  and  C_22
REMARK   11  A    between atoms: C_22  and  O_23
REMARK   12  A    between atoms: C_22  and  C_24
REMARK   13  A    between atoms: C_24  and  N_25
REMARK   14  A    between atoms: N_25  and  C_26
REMARK   15  A    between atoms: C_26  and  C_27
REMARK   16  A    between atoms: C_26  and  C_28
REMARK                            x       y       z     vdW  Elec       q    Type
REMARK                         _______ _______ _______ _____ _____    ______ ____
ROOT
ATOM      1  C   UNL     1       4.277   7.093  17.114  0.00  0.00    +0.000 C 
ATOM      2  C   UNL     1       3.598   6.413  18.277  0.00  0.00    +0.000 A 
ATOM      3  C   UNL     1       2.770   7.249  19.053  0.00  0.00    +0.000 A 
ATOM      4  C   UNL     1       2.017   6.759  20.115  0.00  0.00    +0.000 A 
ATOM      5  C   UNL     1       2.124   5.403  20.427  0.00  0.00    +0.000 A 
ATOM      6  C   UNL     1       2.935   4.500  19.694  0.00  0.00    +0.000 A 
ATOM      7  C   UNL     1       3.692   5.034  18.607  0.00  0.00    +0.000 A 
ENDROOT
BRANCH   6   8
ATOM      8  C   UNL     1       2.941   2.991  20.082  0.00  0.00    +0.000 C 
ATOM      9  C   UNL     1       4.373   2.388  20.129  0.00  0.00    +0.000 C 
ATOM     10  C   UNL     1       2.343   2.783  21.492  0.00  0.00    +0.000 C 
ATOM     11  C   UNL     1       2.165   2.119  19.070  0.00  0.00    +0.000 C 
ENDBRANCH   6   8
BRANCH   4  12
ATOM     12  C   UNL     1       1.169   7.697  20.873  0.00  0.00    +0.000 C 
ATOM     13  C   UNL     1       0.917   8.967  20.515  0.00  0.00    +0.000 C 
BRANCH  13  14
ATOM     14  C   UNL     1       0.105   9.901  21.311  0.00  0.00    +0.000 A 
ATOM     15  C   UNL     1      -0.292  11.114  20.730  0.00  0.00    +0.000 A 
ATOM     16  C   UNL     1      -1.078  12.026  21.442  0.00  0.00    +0.000 A 
ATOM     17  C   UNL     1      -1.481  11.731  22.741  0.00  0.00    +0.000 A 
ATOM     18  C   UNL     1      -1.109  10.523  23.327  0.00  0.00    +0.000 A 
ATOM     19  C   UNL     1      -0.329   9.607  22.617  0.00  0.00    +0.000 A 
ENDBRANCH  13  14
ENDBRANCH   4  12
BRANCH   7  20
ATOM     20  O   UNL     1       4.414   4.101  17.901  0.00  0.00    +0.000 OA
BRANCH  20  21
ATOM     21  C   UNL     1       4.324   4.104  16.481  0.00  0.00    +0.000 C 
BRANCH  21  22
ATOM     22  C   UNL     1       5.685   3.783  15.832  0.00  0.00    +0.000 C 
BRANCH  22  23
ATOM     23  O   UNL     1       5.832   4.413  14.553  0.00  0.00    +0.000 OA
ATOM     24  H   UNL     1       5.680   5.367  14.669  0.00  0.00    +0.000 HD
ENDBRANCH  22  23
BRANCH  22  25
ATOM     25  C   UNL     1       6.834   4.261  16.746  0.00  0.00    +0.000 C 
BRANCH  25  26
ATOM     26  N   UNL     1       6.951   5.722  16.763  0.00  0.00    +0.000 NA
ATOM     27  H   UNL     1       6.016   6.128  16.830  0.00  0.00    +0.000 HD
BRANCH  26  28
ATOM     28  C   UNL     1       7.781   6.246  17.851  0.00  0.00    +0.000 C 
ATOM     29  C   UNL     1       7.808   7.776  17.889  0.00  0.00    +0.000 C 
ATOM     30  C   UNL     1       7.207   5.717  19.168  0.00  0.00    +0.000 C 
ENDBRANCH  26  28
ENDBRANCH  25  26
ENDBRANCH  22  25
ENDBRANCH  21  22
ENDBRANCH  20  21
ENDBRANCH   7  20
TORSDOF 10
ENDMDL
MODEL 4
REMARK VINA RESULT:      -7.9      3.567      7.536
REMARK  Name = 
REMARK  16 active torsions:
REMARK  status: ('A' for Active; 'I' for Inactive)
REMARK    1  A    between atoms: C_1  and  C_2
REMARK    2  A    between atoms: C_4  and  C_5
REMARK    3  A    between atoms: C_6  and  C_7
REMARK    4  A    between atoms: C_14  and  C_15
REMARK    5  A    between atoms: C_15  and  C_16
REMARK    6  A    between atoms: C_15  and  C_17
REMARK    7  A    between atoms: C_15  and  C_18
REMARK    8  A    between atoms: C_19  and  O_20
REMARK    9  A    between atoms: O_20  and  C_21
REMARK   10  A    between atoms: C_21  and  C_22
REMARK   11  A    between atoms: C_22  and  O_23
REMARK   12  A    between atoms: C_22  and  C_24
REMARK   13  A    between atoms: C_24  and  N_25
REMARK   14  A    between atoms: N_25  and  C_26
REMARK   15  A    between atoms: C_26  and  C_27
REMARK   16  A    between atoms: C_26  and  C_28
REMARK                            x       y       z     vdW  Elec       q    Type
REMARK                         _______ _______ _______ _____ _____    ______ ____
ROOT
ATOM      1  C   UNL     1       8.517   5.169  20.441  0.00  0.00    +0.000 C 
ATOM      2  C   UNL     1       7.810   5.869  19.306  0.00  0.00    +0.000 A 
ATOM      3  C   UNL     1       8.332   7.134  18.971  0.00  0.00    +0.000 A 
ATOM      4  C   UNL     1       7.840   7.875  17.901  0.00  0.00    +0.000 A 
ATOM      5  C   UNL     1       6.773   7.346  17.172  0.00  0.00    +0.000 A 
ATOM      6  C   UNL     1       6.195   6.082  17.448  0.00  0.00    +0.000 A 
ATOM      7  C   UNL     1       6.727   5.345  18.550  0.00  0.00    +0.000 A 
ENDROOT
BRANCH   6   8
ATOM      8  C   UNL     1       5.047   5.551  16.538  0.00  0.00    +0.000 C 
ATOM      9  C   UNL     1       4.833   6.423  15.269  0.00  0.00    +0.000 C 
ATOM     10  C   UNL     1       5.362   4.126  16.029  0.00  0.00    +0.000 C 
ATOM     11  C   UNL     1       3.680   5.540  17.259  0.00  0.00    +0.000 C 
ENDBRANCH   6   8
BRANCH   4  12
ATOM     12  C   UNL     1       8.445   9.187  17.611  0.00  0.00    +0.000 C 
ATOM     13  C   UNL     1       8.898  10.047  18.538  0.00  0.00    +0.000 C 
BRANCH  13  14
ATOM     14  C   UNL     1       9.458  11.372  18.228  0.00  0.00    +0.000 A 
ATOM     15  C   UNL     1      10.772  11.453  17.747  0.00  0.00    +0.000 A 
ATOM     16  C   UNL     1      11.342  12.689  17.424  0.00  0.00    +0.000 A 
ATOM     17  C   UNL     1      10.600  13.857  17.572  0.00  0.00    +0.000 A 
ATOM     18  C   UNL     1       9.286  13.792  18.032  0.00  0.00    +0.000 A 
ATOM     19  C   UNL     1       8.712  12.559  18.350  0.00  0.00    +0.000 A 
ENDBRANCH  13  14
ENDBRANCH   4  12
BRANCH   7  20
ATOM     20  O   UNL     1       6.163   4.104  18.733  0.00  0.00    +0.000 OA
BRANCH  20  21
ATOM     21  C   UNL     1       5.148   3.958  19.719  0.00  0.00    +0.000 C 
BRANCH  21  22
ATOM     22  C   UNL     1       4.648   2.503  19.798  0.00  0.00    +0.000 C 
BRANCH  22  23
ATOM     23  O   UNL     1       5.156   1.821  20.952  0.00  0.00    +0.000 OA
ATOM     24  H   UNL     1       5.816   2.397  21.374  0.00  0.00    +0.000 HD
ENDBRANCH  22  23
BRANCH  22  25
ATOM     25  C   UNL     1       3.105   2.474  19.855  0.00  0.00    +0.000 C 
BRANCH  25  26
ATOM     26  N   UNL     1       2.588   3.118  21.066  0.00  0.00    +0.000 NA
ATOM     27  H   UNL     1       3.330   3.682  21.483  0.00  0.00    +0.000 HD
BRANCH  26  28
ATOM     28  C   UNL     1       1.411   3.962  20.843  0.00  0.00    +0.000 C 
ATOM     29  C   UNL     1       1.773   5.430  20.606  0.00  0.00    +0.000 C 
ATOM     30  C   UNL     1       0.676   3.417  19.615  0.00  0.00    +0.000 C 
ENDBRANCH  26  28
ENDBRANCH  25  26
ENDBRANCH  22  25
ENDBRANCH  21  22
ENDBRANCH  20  21
ENDBRANCH   7  20
TORSDOF 10
ENDMDL
MODEL 5
REMARK VINA RESULT:      -7.9      0.776      1.478
REMARK  Name = 
REMARK  16 active torsions:
REMARK  status: ('A' for Active; 'I' for Inactive)
REMARK    1  A    between atoms: C_1  and  C_2
REMARK    2  A    between atoms: C_4  and  C_5
REMARK    3  A    between atoms: C_6  and  C_7
REMARK    4  A    between atoms: C_14  and  C_15
REMARK    5  A    between atoms: C_15  and  C_16
REMARK    6  A    between atoms: C_15  and  C_17
REMARK    7  A    between atoms: C_15  and  C_18
REMARK    8  A    between atoms: C_19  and  O_20
REMARK    9  A    between atoms: O_20  and  C_21
REMARK   10  A    between atoms: C_21  and  C_22
REMARK   11  A    between atoms: C_22  and  O_23
REMARK   12  A    between atoms: C_22  and  C_24
REMARK   13  A    between atoms: C_24  and  N_25
REMARK   14  A    between atoms: N_25  and  C_26
REMARK   15  A    between atoms: C_26  and  C_27
REMARK   16  A    between atoms: C_26  and  C_28
REMARK                            x       y       z     vdW  Elec       q    Type
REMARK                         _______ _______ _______ _____ _____    ______ ____
ROOT
ATOM      1  C   UNL     1       4.741   7.176  16.060  0.00  0.00    +0.000 C 
ATOM      2  C   UNL     1       3.981   6.675  17.263  0.00  0.00    +0.000 A 
ATOM      3  C   UNL     1       3.175   7.639  17.901  0.00  0.00    +0.000 A 
ATOM      4  C   UNL     1       2.355   7.318  18.978  0.00  0.00    +0.000 A 
ATOM      5  C   UNL     1       2.371   6.003  19.448  0.00  0.00    +0.000 A 
ATOM      6  C   UNL     1       3.154   4.979  18.859  0.00  0.00    +0.000 A 
ATOM      7  C   UNL     1       3.981   5.340  17.752  0.00  0.00    +0.000 A 
ENDROOT
BRANCH   6   8
ATOM      8  C   UNL     1       3.058   3.527  19.417  0.00  0.00    +0.000 C 
ATOM      9  C   UNL     1       2.273   3.448  20.757  0.00  0.00    +0.000 C 
ATOM     10  C   UNL     1       2.309   2.606  18.428  0.00  0.00    +0.000 C 
ATOM     11  C   UNL     1       4.446   2.920  19.722  0.00  0.00    +0.000 C 
ENDBRANCH   6   8
BRANCH   4  12
ATOM     12  C   UNL     1       1.537   8.382  19.586  0.00  0.00    +0.000 C 
ATOM     13  C   UNL     1       1.419   8.602  20.906  0.00  0.00    +0.000 C 
BRANCH  13  14
ATOM     14  C   UNL     1       0.560   9.642  21.494  0.00  0.00    +0.000 A 
ATOM     15  C   UNL     1      -0.168   9.340  22.653  0.00  0.00    +0.000 A 
ATOM     16  C   UNL     1      -0.986  10.300  23.257  0.00  0.00    +0.000 A 
ATOM     17  C   UNL     1      -1.080  11.577  22.709  0.00  0.00    +0.000 A 
ATOM     18  C   UNL     1      -0.350  11.898  21.567  0.00  0.00    +0.000 A 
ATOM     19  C   UNL     1       0.473  10.943  20.965  0.00  0.00    +0.000 A 
ENDBRANCH  13  14
ENDBRANCH   4  12
BRANCH   7  20
ATOM     20  O   UNL     1       4.673   4.294  17.190  0.00  0.00    +0.000 OA
BRANCH  20  21
ATOM     21  C   UNL     1       4.936   4.325  15.791  0.00  0.00    +0.000 C 
BRANCH  21  22
ATOM     22  C   UNL     1       6.439   4.160  15.499  0.00  0.00    +0.000 C 
BRANCH  22  23
ATOM     23  O   UNL     1       6.885   5.041  14.459  0.00  0.00    +0.000 OA
ATOM     24  H   UNL     1       6.422   4.796  13.640  0.00  0.00    +0.000 HD
ENDBRANCH  22  23
BRANCH  22  25
ATOM     25  C   UNL     1       7.263   4.454  16.772  0.00  0.00    +0.000 C 
BRANCH  25  26
ATOM     26  N   UNL     1       7.687   5.855  16.842  0.00  0.00    +0.000 NA
ATOM     27  H   UNL     1       7.215   6.380  16.103  0.00  0.00    +0.000 HD
BRANCH  26  28
ATOM     28  C   UNL     1       7.426   6.499  18.132  0.00  0.00    +0.000 C 
ATOM     29  C   UNL     1       7.965   5.692  19.315  0.00  0.00    +0.000 C 
ATOM     30  C   UNL     1       8.101   7.874  18.107  0.00  0.00    +0.000 C 
ENDBRANCH  26  28
ENDBRANCH  25  26
ENDBRANCH  22  25
ENDBRANCH  21  22
ENDBRANCH  20  21
ENDBRANCH   7  20
TORSDOF 10
ENDMDL
MODEL 6
REMARK VINA RESULT:      -7.8      1.733      2.888
REMARK  Name = 
REMARK  16 active torsions:
REMARK  status: ('A' for Active; 'I' for Inactive)
REMARK    1  A    between atoms: C_1  and  C_2
REMARK    2  A    between atoms: C_4  and  C_5
REMARK    3  A    between atoms: C_6  and  C_7
REMARK    4  A    between atoms: C_14  and  C_15
REMARK    5  A    between atoms: C_15  and  C_16
REMARK    6  A    between atoms: C_15  and  C_17
REMARK    7  A    between atoms: C_15  and  C_18
REMARK    8  A    between atoms: C_19  and  O_20
REMARK    9  A    between atoms: O_20  and  C_21
REMARK   10  A    between atoms: C_21  and  C_22
REMARK   11  A    between atoms: C_22  and  O_23
REMARK   12  A    between atoms: C_22  and  C_24
REMARK   13  A    between atoms: C_24  and  N_25
REMARK   14  A    between atoms: N_25  and  C_26
REMARK   15  A    between atoms: C_26  and  C_27
REMARK   16  A    between atoms: C_26  and  C_28
REMARK                            x       y       z     vdW  Elec       q    Type
REMARK                         _______ _______ _______ _____ _____    ______ ____
ROOT
ATOM      1  C   UNL     1       4.569   7.311  16.904  0.00  0.00    +0.000 C 
ATOM      2  C   UNL     1       3.817   6.513  17.941  0.00  0.00    +0.000 A 
ATOM      3  C   UNL     1       2.985   7.274  18.786  0.00  0.00    +0.000 A 
ATOM      4  C   UNL     1       2.169   6.681  19.745  0.00  0.00    +0.000 A 
ATOM      5  C   UNL     1       2.216   5.292  19.880  0.00  0.00    +0.000 A 
ATOM      6  C   UNL     1       3.026   4.461  19.067  0.00  0.00    +0.000 A 
ATOM      7  C   UNL     1       3.848   5.100  18.089  0.00  0.00    +0.000 A 
ENDROOT
BRANCH   6   8
ATOM      8  C   UNL     1       2.964   2.915  19.253  0.00  0.00    +0.000 C 
ATOM      9  C   UNL     1       2.753   2.155  17.914  0.00  0.00    +0.000 C 
ATOM     10  C   UNL     1       4.286   2.379  19.847  0.00  0.00    +0.000 C 
ATOM     11  C   UNL     1       1.789   2.477  20.158  0.00  0.00    +0.000 C 
ENDBRANCH   6   8
BRANCH   4  12
ATOM     12  C   UNL     1       1.323   7.546  20.586  0.00  0.00    +0.000 C 
ATOM     13  C   UNL     1       1.027   8.829  20.317  0.00  0.00    +0.000 C 
BRANCH  13  14
ATOM     14  C   UNL     1       0.216   9.687  21.195  0.00  0.00    +0.000 A 
ATOM     15  C   UNL     1       0.064   9.323  22.540  0.00  0.00    +0.000 A 
ATOM     16  C   UNL     1      -0.685  10.115  23.417  0.00  0.00    +0.000 A 
ATOM     17  C   UNL     1      -1.283  11.285  22.958  0.00  0.00    +0.000 A 
ATOM     18  C   UNL     1      -1.127  11.670  21.628  0.00  0.00    +0.000 A 
ATOM     19  C   UNL     1      -0.376  10.884  20.751  0.00  0.00    +0.000 A 
ENDBRANCH  13  14
ENDBRANCH   4  12
BRANCH   7  20
ATOM     20  O   UNL     1       4.568   4.239  17.296  0.00  0.00    +0.000 OA
BRANCH  20  21
ATOM     21  C   UNL     1       5.969   4.449  17.161  0.00  0.00    +0.000 C 
BRANCH  21  22
ATOM     22  C   UNL     1       6.329   4.935  15.744  0.00  0.00    +0.000 C 
BRANCH  22  23
ATOM     23  O   UNL     1       7.623   5.552  15.699  0.00  0.00    +0.000 OA
ATOM     24  H   UNL     1       8.276   4.864  15.483  0.00  0.00    +0.000 HD
ENDBRANCH  22  23
BRANCH  22  25
ATOM     25  C   UNL     1       6.323   3.746  14.758  0.00  0.00    +0.000 C 
BRANCH  25  26
ATOM     26  N   UNL     1       5.524   4.029  13.562  0.00  0.00    +0.000 NA
ATOM     27  H   UNL     1       5.631   5.015  13.318  0.00  0.00    +0.000 HD
BRANCH  26  28
ATOM     28  C   UNL     1       5.869   3.207  12.399  0.00  0.00    +0.000 C 
ATOM     29  C   UNL     1       4.686   3.000  11.450  0.00  0.00    +0.000 C 
ATOM     30  C   UNL     1       7.002   3.916  11.650  0.00  0.00    +0.000 C 
ENDBRANCH  26  28
ENDBRANCH  25  26
ENDBRANCH  22  25
ENDBRANCH  21  22
ENDBRANCH  20  21
ENDBRANCH   7  20
TORSDOF 10
ENDMDL
MODEL 7
REMARK VINA RESULT:      -7.8      1.611      2.862
REMARK  Name = 
REMARK  16 active torsions:
REMARK  status: ('A' for Active; 'I' for Inactive)
REMARK    1  A    between atoms: C_1  and  C_2
REMARK    2  A    between atoms: C_4  and  C_5
REMARK    3  A    between atoms: C_6  and  C_7
REMARK    4  A    between atoms: C_14  and  C_15
REMARK    5  A    between atoms: C_15  and  C_16
REMARK    6  A    between atoms: C_15  and  C_17
REMARK    7  A    between atoms: C_15  and  C_18
REMARK    8  A    between atoms: C_19  and  O_20
REMARK    9  A    between atoms: O_20  and  C_21
REMARK   10  A    between atoms: C_21  and  C_22
REMARK   11  A    between atoms: C_22  and  O_23
REMARK   12  A    between atoms: C_22  and  C_24
REMARK   13  A    between atoms: C_24  and  N_25
REMARK   14  A    between atoms: N_25  and  C_26
REMARK   15  A    between atoms: C_26  and  C_27
REMARK   16  A    between atoms: C_26  and  C_28
REMARK                            x       y       z     vdW  Elec       q    Type
REMARK                         _______ _______ _______ _____ _____    ______ ____
ROOT
ATOM      1  C   UNL     1       4.494   6.968  17.217  0.00  0.00    +0.000 C 
ATOM      2  C   UNL     1       3.726   6.295  18.328  0.00  0.00    +0.000 A 
ATOM      3  C   UNL     1       2.818   7.128  19.012  0.00  0.00    +0.000 A 
ATOM      4  C   UNL     1       1.982   6.642  20.011  0.00  0.00    +0.000 A 
ATOM      5  C   UNL     1       2.085   5.293  20.357  0.00  0.00    +0.000 A 
ATOM      6  C   UNL     1       2.973   4.394  19.715  0.00  0.00    +0.000 A 
ATOM      7  C   UNL     1       3.814   4.923  18.689  0.00  0.00    +0.000 A 
ENDROOT
BRANCH   6   8
ATOM      8  C   UNL     1       2.971   2.892  20.130  0.00  0.00    +0.000 C 
ATOM      9  C   UNL     1       4.402   2.290  20.216  0.00  0.00    +0.000 C 
ATOM     10  C   UNL     1       2.345   2.708  21.531  0.00  0.00    +0.000 C 
ATOM     11  C   UNL     1       2.216   2.001  19.118  0.00  0.00    +0.000 C 
ENDBRANCH   6   8
BRANCH   4  12
ATOM     12  C   UNL     1       1.055   7.576  20.675  0.00  0.00    +0.000 C 
ATOM     13  C   UNL     1       1.086   8.913  20.545  0.00  0.00    +0.000 C 
BRANCH  13  14
ATOM     14  C   UNL     1       0.179   9.830  21.252  0.00  0.00    +0.000 A 
ATOM     15  C   UNL     1      -0.097   9.594  22.607  0.00  0.00    +0.000 A 
ATOM     16  C   UNL     1      -0.941  10.446  23.326  0.00  0.00    +0.000 A 
ATOM     17  C   UNL     1      -1.514  11.549  22.698  0.00  0.00    +0.000 A 
ATOM     18  C   UNL     1      -1.237  11.807  21.357  0.00  0.00    +0.000 A 
ATOM     19  C   UNL     1      -0.389  10.961  20.638  0.00  0.00    +0.000 A 
ENDBRANCH  13  14
ENDBRANCH   4  12
BRANCH   7  20
ATOM     20  O   UNL     1       4.613   3.993  18.068  0.00  0.00    +0.000 OA
BRANCH  20  21
ATOM     21  C   UNL     1       4.526   3.859  16.653  0.00  0.00    +0.000 C 
BRANCH  21  22
ATOM     22  C   UNL     1       5.781   4.422  15.959  0.00  0.00    +0.000 C 
BRANCH  22  23
ATOM     23  O   UNL     1       6.958   3.672  16.286  0.00  0.00    +0.000 OA
ATOM     24  H   UNL     1       7.362   3.371  15.454  0.00  0.00    +0.000 HD
ENDBRANCH  22  23
BRANCH  22  25
ATOM     25  C   UNL     1       5.596   4.396  14.426  0.00  0.00    +0.000 C 
BRANCH  25  26
ATOM     26  N   UNL     1       6.175   3.192  13.823  0.00  0.00    +0.000 NA
ATOM     27  H   UNL     1       5.639   2.378  14.130  0.00  0.00    +0.000 HD
BRANCH  26  28
ATOM     28  C   UNL     1       6.220   3.213  12.359  0.00  0.00    +0.000 C 
ATOM     29  C   UNL     1       4.838   3.398  11.728  0.00  0.00    +0.000 C 
ATOM     30  C   UNL     1       7.127   4.375  11.941  0.00  0.00    +0.000 C 
ENDBRANCH  26  28
ENDBRANCH  25  26
ENDBRANCH  22  25
ENDBRANCH  21  22
ENDBRANCH  20  21
ENDBRANCH   7  20
TORSDOF 10
ENDMDL
MODEL 8
REMARK VINA RESULT:      -7.8      1.775      2.884
REMARK  Name = 
REMARK  16 active torsions:
REMARK  status: ('A' for Active; 'I' for Inactive)
REMARK    1  A    between atoms: C_1  and  C_2
REMARK    2  A    between atoms: C_4  and  C_5
REMARK    3  A    between atoms: C_6  and  C_7
REMARK    4  A    between atoms: C_14  and  C_15
REMARK    5  A    between atoms: C_15  and  C_16
REMARK    6  A    between atoms: C_15  and  C_17
REMARK    7  A    between atoms: C_15  and  C_18
REMARK    8  A    between atoms: C_19  and  O_20
REMARK    9  A    between atoms: O_20  and  C_21
REMARK   10  A    between atoms: C_21  and  C_22
REMARK   11  A    between atoms: C_22  and  O_23
REMARK   12  A    between atoms: C_22  and  C_24
REMARK   13  A    between atoms: C_24  and  N_25
REMARK   14  A    between atoms: N_25  and  C_26
REMARK   15  A    between atoms: C_26  and  C_27
REMARK   16  A    between atoms: C_26  and  C_28
REMARK                            x       y       z     vdW  Elec       q    Type
REMARK                         _______ _______ _______ _____ _____    ______ ____
ROOT
ATOM      1  C   UNL     1       4.455   7.216  16.597  0.00  0.00    +0.000 C 
ATOM      2  C   UNL     1       3.746   6.435  17.676  0.00  0.00    +0.000 A 
ATOM      3  C   UNL     1       3.005   7.216  18.585  0.00  0.00    +0.000 A 
ATOM      4  C   UNL     1       2.236   6.643  19.593  0.00  0.00    +0.000 A 
ATOM      5  C   UNL     1       2.239   5.251  19.711  0.00  0.00    +0.000 A 
ATOM      6  C   UNL     1       2.959   4.400  18.836  0.00  0.00    +0.000 A 
ATOM      7  C   UNL     1       3.734   5.020  17.809  0.00  0.00    +0.000 A 
ENDROOT
BRANCH   6   8
ATOM      8  C   UNL     1       2.850   2.856  19.011  0.00  0.00    +0.000 C 
ATOM      9  C   UNL     1       1.698   2.438  19.967  0.00  0.00    +0.000 C 
ATOM     10  C   UNL     1       2.555   2.167  17.660  0.00  0.00    +0.000 C 
ATOM     11  C   UNL     1       4.129   2.241  19.623  0.00  0.00    +0.000 C 
ENDBRANCH   6   8
BRANCH   4  12
ATOM     12  C   UNL     1       1.484   7.528  20.500  0.00  0.00    +0.000 C 
ATOM     13  C   UNL     1       1.119   8.789  20.215  0.00  0.00    +0.000 C 
BRANCH  13  14
ATOM     14  C   UNL     1       0.407   9.671  21.153  0.00  0.00    +0.000 A 
ATOM     15  C   UNL     1       0.089  10.974  20.744  0.00  0.00    +0.000 A 
ATOM     16  C   UNL     1      -0.600  11.845  21.595  0.00  0.00    +0.000 A 
ATOM     17  C   UNL     1      -0.984  11.418  22.863  0.00  0.00    +0.000 A 
ATOM     18  C   UNL     1      -0.691  10.120  23.278  0.00  0.00    +0.000 A 
ATOM     19  C   UNL     1      -0.008   9.247  22.429  0.00  0.00    +0.000 A 
ENDBRANCH  13  14
ENDBRANCH   4  12
BRANCH   7  20
ATOM     20  O   UNL     1       4.364   4.142  16.959  0.00  0.00    +0.000 OA
BRANCH  20  21
ATOM     21  C   UNL     1       5.783   4.052  17.004  0.00  0.00    +0.000 C 
BRANCH  21  22
ATOM     22  C   UNL     1       6.419   4.557  15.695  0.00  0.00    +0.000 C 
BRANCH  22  23
ATOM     23  O   UNL     1       7.834   4.750  15.824  0.00  0.00    +0.000 OA
ATOM     24  H   UNL     1       8.278   4.118  15.233  0.00  0.00    +0.000 HD
ENDBRANCH  22  23
BRANCH  22  25
ATOM     25  C   UNL     1       6.167   3.545  14.556  0.00  0.00    +0.000 C 
BRANCH  25  26
ATOM     26  N   UNL     1       5.129   4.006  13.631  0.00  0.00    +0.000 NA
ATOM     27  H   UNL     1       4.946   4.996  13.806  0.00  0.00    +0.000 HD
BRANCH  26  28
ATOM     28  C   UNL     1       5.458   3.822  12.216  0.00  0.00    +0.000 C 
ATOM     29  C   UNL     1       6.636   2.867  12.003  0.00  0.00    +0.000 C 
ATOM     30  C   UNL     1       4.216   3.256  11.521  0.00  0.00    +0.000 C 
ENDBRANCH  26  28
ENDBRANCH  25  26
ENDBRANCH  22  25
ENDBRANCH  21  22
ENDBRANCH  20  21
ENDBRANCH   7  20
TORSDOF 10
ENDMDL
MODEL 9
REMARK VINA RESULT:      -7.7      1.735      2.930
REMARK  Name = 
REMARK  16 active torsions:
REMARK  status: ('A' for Active; 'I' for Inactive)
REMARK    1  A    between atoms: C_1  and  C_2
REMARK    2  A    between atoms: C_4  and  C_5
REMARK    3  A    between atoms: C_6  and  C_7
REMARK    4  A    between atoms: C_14  and  C_15
REMARK    5  A    between atoms: C_15  and  C_16
REMARK    6  A    between atoms: C_15  and  C_17
REMARK    7  A    between atoms: C_15  and  C_18
REMARK    8  A    between atoms: C_19  and  O_20
REMARK    9  A    between atoms: O_20  and  C_21
REMARK   10  A    between atoms: C_21  and  C_22
REMARK   11  A    between atoms: C_22  and  O_23
REMARK   12  A    between atoms: C_22  and  C_24
REMARK   13  A    between atoms: C_24  and  N_25
REMARK   14  A    between atoms: N_25  and  C_26
REMARK   15  A    between atoms: C_26  and  C_27
REMARK   16  A    between atoms: C_26  and  C_28
REMARK                            x       y       z     vdW  Elec       q    Type
REMARK                         _______ _______ _______ _____ _____    ______ ____
ROOT
ATOM      1  C   UNL     1       4.800   7.250  16.197  0.00  0.00    +0.000 C 
ATOM      2  C   UNL     1       3.922   6.775  17.328  0.00  0.00    +0.000 A 
ATOM      3  C   UNL     1       3.220   7.793  18.003  0.00  0.00    +0.000 A 
ATOM      4  C   UNL     1       2.313   7.513  19.020  0.00  0.00    +0.000 A 
ATOM      5  C   UNL     1       2.132   6.180  19.391  0.00  0.00    +0.000 A 
ATOM      6  C   UNL     1       2.800   5.101  18.760  0.00  0.00    +0.000 A 
ATOM      7  C   UNL     1       3.721   5.422  17.716  0.00  0.00    +0.000 A 
ENDROOT
BRANCH   6   8
ATOM      8  C   UNL     1       2.486   3.641  19.204  0.00  0.00    +0.000 C 
ATOM      9  C   UNL     1       1.248   3.551  20.140  0.00  0.00    +0.000 C 
ATOM     10  C   UNL     1       2.164   2.752  17.982  0.00  0.00    +0.000 C 
ATOM     11  C   UNL     1       3.647   3.005  20.002  0.00  0.00    +0.000 C 
ENDBRANCH   6   8
BRANCH   4  12
ATOM     12  C   UNL     1       1.613   8.635  19.672  0.00  0.00    +0.000 C 
ATOM     13  C   UNL     1       0.710   8.507  20.659  0.00  0.00    +0.000 C 
BRANCH  13  14
ATOM     14  C   UNL     1      -0.011   9.638  21.265  0.00  0.00    +0.000 A 
ATOM     15  C   UNL     1      -0.376   9.558  22.617  0.00  0.00    +0.000 A 
ATOM     16  C   UNL     1      -1.049  10.613  23.241  0.00  0.00    +0.000 A 
ATOM     17  C   UNL     1      -1.357  11.764  22.521  0.00  0.00    +0.000 A 
ATOM     18  C   UNL     1      -0.986  11.867  21.182  0.00  0.00    +0.000 A 
ATOM     19  C   UNL     1      -0.309  10.817  20.557  0.00  0.00    +0.000 A 
ENDBRANCH  13  14
ENDBRANCH   4  12
BRANCH   7  20
ATOM     20  O   UNL     1       4.296   4.333  17.106  0.00  0.00    +0.000 OA
BRANCH  20  21
ATOM     21  C   UNL     1       5.657   4.031  17.395  0.00  0.00    +0.000 C 
BRANCH  21  22
ATOM     22  C   UNL     1       6.586   4.478  16.250  0.00  0.00    +0.000 C 
BRANCH  22  23
ATOM     23  O   UNL     1       7.960   4.521  16.658  0.00  0.00    +0.000 OA
ATOM     24  H   UNL     1       8.037   5.165  17.383  0.00  0.00    +0.000 HD
ENDBRANCH  22  23
BRANCH  22  25
ATOM     25  C   UNL     1       6.463   3.507  15.056  0.00  0.00    +0.000 C 
BRANCH  25  26
ATOM     26  N   UNL     1       5.658   4.072  13.969  0.00  0.00    +0.000 NA
ATOM     27  H   UNL     1       5.883   5.064  13.873  0.00  0.00    +0.000 HD
BRANCH  26  28
ATOM     28  C   UNL     1       5.845   3.410  12.675  0.00  0.00    +0.000 C 
ATOM     29  C   UNL     1       4.603   3.494  11.784  0.00  0.00    +0.000 C 
ATOM     30  C   UNL     1       7.020   4.094  11.970  0.00  0.00    +0.000 C 
ENDBRANCH  26  28
ENDBRANCH  25  26
ENDBRANCH  22  25
ENDBRANCH  21  22
ENDBRANCH  20  21
ENDBRANCH   7  20
TORSDOF 10
ENDMDL
