MODEL 1
REMARK VINA RESULT:      -7.0      0.000      0.000
REMARK  Name = 
REMARK  6 active torsions:
REMARK  status: ('A' for Active; 'I' for Inactive)
REMARK    1  A    between atoms: C_1  and  O_2
REMARK    2  A    between atoms: O_2  and  C_3
REMARK    3  A    between atoms: C_8  and  O_9
REMARK    4  A    between atoms: O_9  and  C_10
REMARK    5  A    between atoms: C_11  and  C_12
REMARK    6  A    between atoms: C_15  and  N_16
REMARK                            x       y       z     vdW  Elec       q    Type
REMARK                         _______ _______ _______ _____ _____    ______ ____
ROOT
ATOM      1  C   UNL     1       2.881   5.951  19.239  0.00  0.00    +0.000 A 
ATOM      2  C   UNL     1       4.016   5.147  19.405  0.00  0.00    +0.000 A 
ATOM      3  C   UNL     1       5.163   5.364  18.639  0.00  0.00    +0.000 A 
ATOM      4  C   UNL     1       5.165   6.355  17.650  0.00  0.00    +0.000 A 
ATOM      5  C   UNL     1       4.047   7.198  17.523  0.00  0.00    +0.000 A 
ATOM      6  C   UNL     1       2.912   7.023  18.328  0.00  0.00    +0.000 A 
ATOM      7  C   UNL     1       6.361   6.450  16.709  0.00  0.00    +0.000 C 
ATOM      8  N   UNL     1       7.648   6.333  17.422  0.00  0.00    +0.000 NA
ATOM      9  C   UNL     1       7.655   5.420  18.578  0.00  0.00    +0.000 C 
ATOM     10  C   UNL     1       6.411   4.549  18.823  0.00  0.00    +0.000 C 
ATOM     11  H   UNL     1       7.914   7.260  17.750  0.00  0.00    +0.000 HD
ENDROOT
BRANCH   7  12
ATOM     12  C   UNL     1       6.250   5.499  15.505  0.00  0.00    +0.000 A 
ATOM     13  C   UNL     1       7.300   5.431  14.566  0.00  0.00    +0.000 A 
ATOM     14  C   UNL     1       7.222   4.595  13.446  0.00  0.00    +0.000 A 
ATOM     15  C   UNL     1       6.085   3.803  13.256  0.00  0.00    +0.000 A 
ATOM     16  C   UNL     1       5.045   3.826  14.189  0.00  0.00    +0.000 A 
ATOM     17  C   UNL     1       5.136   4.663  15.305  0.00  0.00    +0.000 A 
BRANCH  15  18
ATOM     18  N   UNL     1       5.979   2.943  12.073  0.00  0.00    +0.000 N 
ATOM     19  O   UNL     1       7.031   2.490  11.592  0.00  0.00    +0.000 OA
ATOM     20  O   UNL     1       4.848   2.722  11.618  0.00  0.00    +0.000 OA
ENDBRANCH  15  18
ENDBRANCH   7  12
BRANCH   1  22
ATOM     21  C   UNL     1       1.741   4.236  20.423  0.00  0.00    +0.000 C 
ATOM     22  O   UNL     1       1.844   5.612  20.072  0.00  0.00    +0.000 OA
ENDBRANCH   1  22
BRANCH   6  23
ATOM     23  O   UNL     1       1.823   7.851  18.294  0.00  0.00    +0.000 OA
ATOM     24  C   UNL     1       2.007   9.203  17.906  0.00  0.00    +0.000 C 
ENDBRANCH   6  23
TORSDOF 4
ENDMDL
MODEL 2
REMARK VINA RESULT:      -6.9      0.240      1.223
REMARK  Name = 
REMARK  6 active torsions:
REMARK  status: ('A' for Active; 'I' for Inactive)
REMARK    1  A    between atoms: C_1  and  O_2
REMARK    2  A    between atoms: O_2  and  C_3
REMARK    3  A    between atoms: C_8  and  O_9
REMARK    4  A    between atoms: O_9  and  C_10
REMARK    5  A    between atoms: C_11  and  C_12
REMARK    6  A    between atoms: C_15  and  N_16
REMARK                            x       y       z     vdW  Elec       q    Type
REMARK                         _______ _______ _______ _____ _____    ______ ____
ROOT
ATOM      1  C   UNL     1       2.903   5.752  19.104  0.00  0.00    +0.000 A 
ATOM      2  C   UNL     1       4.049   4.959  19.246  0.00  0.00    +0.000 A 
ATOM      3  C   UNL     1       5.195   5.220  18.493  0.00  0.00    +0.000 A 
ATOM      4  C   UNL     1       5.187   6.245  17.540  0.00  0.00    +0.000 A 
ATOM      5  C   UNL     1       4.057   7.076  17.438  0.00  0.00    +0.000 A 
ATOM      6  C   UNL     1       2.921   6.855  18.231  0.00  0.00    +0.000 A 
ATOM      7  C   UNL     1       6.385   6.392  16.609  0.00  0.00    +0.000 C 
ATOM      8  N   UNL     1       7.671   6.268  17.323  0.00  0.00    +0.000 NA
ATOM      9  C   UNL     1       7.687   5.315  18.446  0.00  0.00    +0.000 C 
ATOM     10  C   UNL     1       6.455   4.418  18.654  0.00  0.00    +0.000 C 
ATOM     11  H   UNL     1       7.922   7.187  17.684  0.00  0.00    +0.000 HD
ENDROOT
BRANCH   7  12
ATOM     12  C   UNL     1       6.294   5.482  15.371  0.00  0.00    +0.000 A 
ATOM     13  C   UNL     1       5.153   4.679  15.173  0.00  0.00    +0.000 A 
ATOM     14  C   UNL     1       5.047   3.823  14.071  0.00  0.00    +0.000 A 
ATOM     15  C   UNL     1       6.089   3.767  13.140  0.00  0.00    +0.000 A 
ATOM     16  C   UNL     1       7.217   4.578  13.294  0.00  0.00    +0.000 A 
ATOM     17  C   UNL     1       7.310   5.431  14.398  0.00  0.00    +0.000 A 
BRANCH  15  18
ATOM     18  N   UNL     1       6.004   2.854  11.996  0.00  0.00    +0.000 N 
ATOM     19  O   UNL     1       4.875   2.594  11.548  0.00  0.00    +0.000 OA
ATOM     20  O   UNL     1       7.061   2.391  11.544  0.00  0.00    +0.000 OA
ENDBRANCH  15  18
ENDBRANCH   7  12
BRANCH   1  22
ATOM     21  C   UNL     1       2.205   4.516  21.009  0.00  0.00    +0.000 C 
ATOM     22  O   UNL     1       1.867   5.369  19.919  0.00  0.00    +0.000 OA
ENDBRANCH   1  22
BRANCH   6  23
ATOM     23  O   UNL     1       1.821   7.669  18.221  0.00  0.00    +0.000 OA
ATOM     24  C   UNL     1       1.971   9.014  17.799  0.00  0.00    +0.000 C 
ENDBRANCH   6  23
TORSDOF 4
ENDMDL
MODEL 3
REMARK VINA RESULT:      -6.6      3.930      7.564
REMARK  Name = 
REMARK  6 active torsions:
REMARK  status: ('A' for Active; 'I' for Inactive)
REMARK    1  A    between atoms: C_1  and  O_2
REMARK    2  A    between atoms: O_2  and  C_3
REMARK    3  A    between atoms: C_8  and  O_9
REMARK    4  A    between atoms: O_9  and  C_10
REMARK    5  A    between atoms: C_11  and  C_12
REMARK    6  A    between atoms: C_15  and  N_16
REMARK                            x       y       z     vdW  Elec       q    Type
REMARK                         _______ _______ _______ _____ _____    ______ ____
ROOT
ATOM      1  C   UNL     1       6.615   5.484  18.554  0.00  0.00    +0.000 A 
ATOM      2  C   UNL     1       5.597   4.754  19.181  0.00  0.00    +0.000 A 
ATOM      3  C   UNL     1       4.254   5.018  18.903  0.00  0.00    +0.000 A 
ATOM      4  C   UNL     1       3.913   6.063  18.036  0.00  0.00    +0.000 A 
ATOM      5  C   UNL     1       4.935   6.757  17.364  0.00  0.00    +0.000 A 
ATOM      6  C   UNL     1       6.286   6.459  17.595  0.00  0.00    +0.000 A 
ATOM      7  C   UNL     1       2.445   6.445  17.890  0.00  0.00    +0.000 C 
ATOM      8  N   UNL     1       1.566   5.267  17.761  0.00  0.00    +0.000 NA
ATOM      9  C   UNL     1       1.974   4.080  18.531  0.00  0.00    +0.000 C 
ATOM     10  C   UNL     1       3.140   4.224  19.523  0.00  0.00    +0.000 C 
ATOM     11  H   UNL     1       1.528   5.007  16.776  0.00  0.00    +0.000 HD
ENDROOT
BRANCH   7  12
ATOM     12  C   UNL     1       1.974   7.430  18.975  0.00  0.00    +0.000 A 
ATOM     13  C   UNL     1       1.607   8.744  18.618  0.00  0.00    +0.000 A 
ATOM     14  C   UNL     1       1.197   9.673  19.582  0.00  0.00    +0.000 A 
ATOM     15  C   UNL     1       1.142   9.291  20.927  0.00  0.00    +0.000 A 
ATOM     16  C   UNL     1       1.468   7.985  21.303  0.00  0.00    +0.000 A 
ATOM     17  C   UNL     1       1.873   7.065  20.331  0.00  0.00    +0.000 A 
BRANCH  15  18
ATOM     18  N   UNL     1       0.741  10.261  21.950  0.00  0.00    +0.000 N 
ATOM     19  O   UNL     1       0.500   9.832  23.090  0.00  0.00    +0.000 OA
ATOM     20  O   UNL     1       0.660  11.452  21.618  0.00  0.00    +0.000 OA
ENDBRANCH  15  18
ENDBRANCH   7  12
BRANCH   1  22
ATOM     21  C   UNL     1       8.324   5.557  20.202  0.00  0.00    +0.000 C 
ATOM     22  O   UNL     1       7.877   5.097  18.931  0.00  0.00    +0.000 OA
ENDBRANCH   1  22
BRANCH   6  23
ATOM     23  O   UNL     1       7.319   7.055  16.924  0.00  0.00    +0.000 OA
ATOM     24  C   UNL     1       7.903   8.226  17.472  0.00  0.00    +0.000 C 
ENDBRANCH   6  23
TORSDOF 4
ENDMDL
MODEL 4
REMARK VINA RESULT:      -6.6      1.641      2.452
REMARK  Name = 
REMARK  6 active torsions:
REMARK  status: ('A' for Active; 'I' for Inactive)
REMARK    1  A    between atoms: C_1  and  O_2
REMARK    2  A    between atoms: O_2  and  C_3
REMARK    3  A    between atoms: C_8  and  O_9
REMARK    4  A    between atoms: O_9  and  C_10
REMARK    5  A    between atoms: C_11  and  C_12
REMARK    6  A    between atoms: C_15  and  N_16
REMARK                            x       y       z     vdW  Elec       q    Type
REMARK                         _______ _______ _______ _____ _____    ______ ____
ROOT
ATOM      1  C   UNL     1       3.927   3.794  19.437  0.00  0.00    +0.000 A 
ATOM      2  C   UNL     1       5.307   3.972  19.275  0.00  0.00    +0.000 A 
ATOM      3  C   UNL     1       5.805   4.804  18.270  0.00  0.00    +0.000 A 
ATOM      4  C   UNL     1       4.925   5.421  17.373  0.00  0.00    +0.000 A 
ATOM      5  C   UNL     1       3.540   5.287  17.572  0.00  0.00    +0.000 A 
ATOM      6  C   UNL     1       3.030   4.498  18.614  0.00  0.00    +0.000 A 
ATOM      7  C   UNL     1       5.502   6.175  16.181  0.00  0.00    +0.000 C 
ATOM      8  N   UNL     1       6.648   7.026  16.554  0.00  0.00    +0.000 NA
ATOM      9  C   UNL     1       7.519   6.493  17.615  0.00  0.00    +0.000 C 
ATOM     10  C   UNL     1       7.277   5.053  18.098  0.00  0.00    +0.000 C 
ATOM     11  H   UNL     1       6.286   7.927  16.865  0.00  0.00    +0.000 HD
ENDROOT
BRANCH   7  12
ATOM     12  C   UNL     1       5.798   5.258  14.981  0.00  0.00    +0.000 A 
ATOM     13  C   UNL     1       4.781   4.432  14.461  0.00  0.00    +0.000 A 
ATOM     14  C   UNL     1       5.023   3.569  13.386  0.00  0.00    +0.000 A 
ATOM     15  C   UNL     1       6.296   3.528  12.808  0.00  0.00    +0.000 A 
ATOM     16  C   UNL     1       7.313   4.362  13.282  0.00  0.00    +0.000 A 
ATOM     17  C   UNL     1       7.059   5.222  14.354  0.00  0.00    +0.000 A 
BRANCH  15  18
ATOM     18  N   UNL     1       6.570   2.609  11.700  0.00  0.00    +0.000 N 
ATOM     19  O   UNL     1       5.642   1.878  11.312  0.00  0.00    +0.000 OA
ATOM     20  O   UNL     1       7.711   2.608  11.217  0.00  0.00    +0.000 OA
ENDBRANCH  15  18
ENDBRANCH   7  12
BRANCH   1  22
ATOM     21  C   UNL     1       4.471   1.842  20.679  0.00  0.00    +0.000 C 
ATOM     22  O   UNL     1       3.602   2.952  20.472  0.00  0.00    +0.000 OA
ENDBRANCH   1  22
BRANCH   6  23
ATOM     23  O   UNL     1       1.695   4.383  18.895  0.00  0.00    +0.000 OA
ATOM     24  C   UNL     1       1.027   3.182  18.546  0.00  0.00    +0.000 C 
ENDBRANCH   6  23
TORSDOF 4
ENDMDL
MODEL 5
REMARK VINA RESULT:      -6.6      3.349      7.340
REMARK  Name = 
REMARK  6 active torsions:
REMARK  status: ('A' for Active; 'I' for Inactive)
REMARK    1  A    between atoms: C_1  and  O_2
REMARK    2  A    between atoms: O_2  and  C_3
REMARK    3  A    between atoms: C_8  and  O_9
REMARK    4  A    between atoms: O_9  and  C_10
REMARK    5  A    between atoms: C_11  and  C_12
REMARK    6  A    between atoms: C_15  and  N_16
REMARK                            x       y       z     vdW  Elec       q    Type
REMARK                         _______ _______ _______ _____ _____    ______ ____
ROOT
ATOM      1  C   UNL     1       6.540   4.847  18.041  0.00  0.00    +0.000 A 
ATOM      2  C   UNL     1       5.675   4.384  19.041  0.00  0.00    +0.000 A 
ATOM      3  C   UNL     1       4.294   4.562  18.929  0.00  0.00    +0.000 A 
ATOM      4  C   UNL     1       3.767   5.264  17.838  0.00  0.00    +0.000 A 
ATOM      5  C   UNL     1       4.629   5.677  16.808  0.00  0.00    +0.000 A 
ATOM      6  C   UNL     1       6.012   5.452  16.886  0.00  0.00    +0.000 A 
ATOM      7  C   UNL     1       2.280   5.600  17.832  0.00  0.00    +0.000 C 
ATOM      8  N   UNL     1       1.443   4.460  18.254  0.00  0.00    +0.000 NA
ATOM      9  C   UNL     1       2.027   3.591  19.290  0.00  0.00    +0.000 C 
ATOM     10  C   UNL     1       3.336   4.039  19.961  0.00  0.00    +0.000 C 
ATOM     11  H   UNL     1       1.251   3.887  17.433  0.00  0.00    +0.000 HD
ENDROOT
BRANCH   7  12
ATOM     12  C   UNL     1       1.958   6.897  18.593  0.00  0.00    +0.000 A 
ATOM     13  C   UNL     1       1.790   6.867  19.993  0.00  0.00    +0.000 A 
ATOM     14  C   UNL     1       1.473   8.024  20.714  0.00  0.00    +0.000 A 
ATOM     15  C   UNL     1       1.328   9.239  20.037  0.00  0.00    +0.000 A 
ATOM     16  C   UNL     1       1.523   9.304  18.654  0.00  0.00    +0.000 A 
ATOM     17  C   UNL     1       1.842   8.142  17.945  0.00  0.00    +0.000 A 
BRANCH  15  18
ATOM     18  N   UNL     1       0.970  10.453  20.776  0.00  0.00    +0.000 N 
ATOM     19  O   UNL     1       0.672  11.464  20.117  0.00  0.00    +0.000 OA
ATOM     20  O   UNL     1       0.990  10.405  22.014  0.00  0.00    +0.000 OA
ENDBRANCH  15  18
ENDBRANCH   7  12
BRANCH   1  22
ATOM     21  C   UNL     1       8.447   5.307  19.380  0.00  0.00    +0.000 C 
ATOM     22  O   UNL     1       7.863   4.587  18.299  0.00  0.00    +0.000 OA
ENDBRANCH   1  22
BRANCH   6  23
ATOM     23  O   UNL     1       6.890   5.773  15.886  0.00  0.00    +0.000 OA
ATOM     24  C   UNL     1       7.041   4.876  14.798  0.00  0.00    +0.000 C 
ENDBRANCH   6  23
TORSDOF 4
ENDMDL
MODEL 6
REMARK VINA RESULT:      -6.6      3.350      7.302
REMARK  Name = 
REMARK  6 active torsions:
REMARK  status: ('A' for Active; 'I' for Inactive)
REMARK    1  A    between atoms: C_1  and  O_2
REMARK    2  A    between atoms: O_2  and  C_3
REMARK    3  A    between atoms: C_8  and  O_9
REMARK    4  A    between atoms: O_9  and  C_10
REMARK    5  A    between atoms: C_11  and  C_12
REMARK    6  A    between atoms: C_15  and  N_16
REMARK                            x       y       z     vdW  Elec       q    Type
REMARK                         _______ _______ _______ _____ _____    ______ ____
ROOT
ATOM      1  C   UNL     1       6.534   4.818  18.034  0.00  0.00    +0.000 A 
ATOM      2  C   UNL     1       5.689   4.313  19.031  0.00  0.00    +0.000 A 
ATOM      3  C   UNL     1       4.304   4.462  18.935  0.00  0.00    +0.000 A 
ATOM      4  C   UNL     1       3.751   5.175  17.864  0.00  0.00    +0.000 A 
ATOM      5  C   UNL     1       4.594   5.632  16.837  0.00  0.00    +0.000 A 
ATOM      6  C   UNL     1       5.982   5.437  16.898  0.00  0.00    +0.000 A 
ATOM      7  C   UNL     1       2.256   5.476  17.878  0.00  0.00    +0.000 C 
ATOM      8  N   UNL     1       1.450   4.308  18.282  0.00  0.00    +0.000 NA
ATOM      9  C   UNL     1       2.063   3.430  19.293  0.00  0.00    +0.000 C 
ATOM     10  C   UNL     1       3.368   3.893  19.962  0.00  0.00    +0.000 C 
ATOM     11  H   UNL     1       1.264   3.749  17.450  0.00  0.00    +0.000 HD
ENDROOT
BRANCH   7  12
ATOM     12  C   UNL     1       1.911   6.748  18.672  0.00  0.00    +0.000 A 
ATOM     13  C   UNL     1       1.756   7.976  17.997  0.00  0.00    +0.000 A 
ATOM     14  C   UNL     1       1.466   9.157  18.691  0.00  0.00    +0.000 A 
ATOM     15  C   UNL     1       1.318   9.120  20.081  0.00  0.00    +0.000 A 
ATOM     16  C   UNL     1       1.432   7.910  20.771  0.00  0.00    +0.000 A 
ATOM     17  C   UNL     1       1.720   6.737  20.067  0.00  0.00    +0.000 A 
BRANCH  15  18
ATOM     18  N   UNL     1       1.041  10.354  20.823  0.00  0.00    +0.000 N 
ATOM     19  O   UNL     1       0.802  11.381  20.166  0.00  0.00    +0.000 OA
ATOM     20  O   UNL     1       1.066  10.303  22.061  0.00  0.00    +0.000 OA
ENDBRANCH  15  18
ENDBRANCH   7  12
BRANCH   1  22
ATOM     21  C   UNL     1       8.448   5.309  19.354  0.00  0.00    +0.000 C 
ATOM     22  O   UNL     1       7.865   4.584  18.275  0.00  0.00    +0.000 OA
ENDBRANCH   1  22
BRANCH   6  23
ATOM     23  O   UNL     1       6.843   5.801  15.898  0.00  0.00    +0.000 OA
ATOM     24  C   UNL     1       7.093   4.884  14.846  0.00  0.00    +0.000 C 
ENDBRANCH   6  23
TORSDOF 4
ENDMDL
MODEL 7
REMARK VINA RESULT:      -6.4      3.896      7.573
REMARK  Name = 
REMARK  6 active torsions:
REMARK  status: ('A' for Active; 'I' for Inactive)
REMARK    1  A    between atoms: C_1  and  O_2
REMARK    2  A    between atoms: O_2  and  C_3
REMARK    3  A    between atoms: C_8  and  O_9
REMARK    4  A    between atoms: O_9  and  C_10
REMARK    5  A    between atoms: C_11  and  C_12
REMARK    6  A    between atoms: C_15  and  N_16
REMARK                            x       y       z     vdW  Elec       q    Type
REMARK                         _______ _______ _______ _____ _____    ______ ____
ROOT
ATOM      1  C   UNL     1       6.639   5.438  18.572  0.00  0.00    +0.000 A 
ATOM      2  C   UNL     1       5.620   4.732  19.223  0.00  0.00    +0.000 A 
ATOM      3  C   UNL     1       4.278   4.992  18.939  0.00  0.00    +0.000 A 
ATOM      4  C   UNL     1       3.939   6.010  18.040  0.00  0.00    +0.000 A 
ATOM      5  C   UNL     1       4.962   6.679  17.346  0.00  0.00    +0.000 A 
ATOM      6  C   UNL     1       6.312   6.384  17.584  0.00  0.00    +0.000 A 
ATOM      7  C   UNL     1       2.471   6.394  17.885  0.00  0.00    +0.000 C 
ATOM      8  N   UNL     1       1.588   5.215  17.793  0.00  0.00    +0.000 NA
ATOM      9  C   UNL     1       1.994   4.051  18.599  0.00  0.00    +0.000 C 
ATOM     10  C   UNL     1       3.162   4.222  19.585  0.00  0.00    +0.000 C 
ATOM     11  H   UNL     1       1.548   4.924  16.817  0.00  0.00    +0.000 HD
ENDROOT
BRANCH   7  12
ATOM     12  C   UNL     1       2.006   7.414  18.939  0.00  0.00    +0.000 A 
ATOM     13  C   UNL     1       1.861   7.017  20.284  0.00  0.00    +0.000 A 
ATOM     14  C   UNL     1       1.418   7.913  21.264  0.00  0.00    +0.000 A 
ATOM     15  C   UNL     1       1.119   9.231  20.907  0.00  0.00    +0.000 A 
ATOM     16  C   UNL     1       1.286   9.660  19.587  0.00  0.00    +0.000 A 
ATOM     17  C   UNL     1       1.733   8.757  18.617  0.00  0.00    +0.000 A 
BRANCH  15  18
ATOM     18  N   UNL     1       0.627  10.172  21.917  0.00  0.00    +0.000 N 
ATOM     19  O   UNL     1       0.518  11.366  21.591  0.00  0.00    +0.000 OA
ATOM     20  O   UNL     1       0.354   9.725  23.040  0.00  0.00    +0.000 OA
ENDBRANCH  15  18
ENDBRANCH   7  12
BRANCH   1  22
ATOM     21  C   UNL     1       8.337   5.526  20.232  0.00  0.00    +0.000 C 
ATOM     22  O   UNL     1       7.901   5.059  18.959  0.00  0.00    +0.000 OA
ENDBRANCH   1  22
BRANCH   6  23
ATOM     23  O   UNL     1       7.346   6.956  16.893  0.00  0.00    +0.000 OA
ATOM     24  C   UNL     1       7.932   8.143  17.401  0.00  0.00    +0.000 C 
ENDBRANCH   6  23
TORSDOF 4
ENDMDL
MODEL 8
REMARK VINA RESULT:      -6.4      1.638      2.218
REMARK  Name = 
REMARK  6 active torsions:
REMARK  status: ('A' for Active; 'I' for Inactive)
REMARK    1  A    between atoms: C_1  and  O_2
REMARK    2  A    between atoms: O_2  and  C_3
REMARK    3  A    between atoms: C_8  and  O_9
REMARK    4  A    between atoms: O_9  and  C_10
REMARK    5  A    between atoms: C_11  and  C_12
REMARK    6  A    between atoms: C_15  and  N_16
REMARK                            x       y       z     vdW  Elec       q    Type
REMARK                         _______ _______ _______ _____ _____    ______ ____
ROOT
ATOM      1  C   UNL     1       3.857   3.862  19.444  0.00  0.00    +0.000 A 
ATOM      2  C   UNL     1       5.238   4.037  19.286  0.00  0.00    +0.000 A 
ATOM      3  C   UNL     1       5.742   4.842  18.262  0.00  0.00    +0.000 A 
ATOM      4  C   UNL     1       4.866   5.434  17.343  0.00  0.00    +0.000 A 
ATOM      5  C   UNL     1       3.480   5.304  17.537  0.00  0.00    +0.000 A 
ATOM      6  C   UNL     1       2.964   4.543  18.597  0.00  0.00    +0.000 A 
ATOM      7  C   UNL     1       5.450   6.156  16.134  0.00  0.00    +0.000 C 
ATOM      8  N   UNL     1       6.593   7.018  16.491  0.00  0.00    +0.000 NA
ATOM      9  C   UNL     1       7.458   6.514  17.572  0.00  0.00    +0.000 C 
ATOM     10  C   UNL     1       7.214   5.088  18.091  0.00  0.00    +0.000 C 
ATOM     11  H   UNL     1       6.228   7.926  16.776  0.00  0.00    +0.000 HD
ENDROOT
BRANCH   7  12
ATOM     12  C   UNL     1       5.754   5.207  14.962  0.00  0.00    +0.000 A 
ATOM     13  C   UNL     1       7.042   5.190  14.389  0.00  0.00    +0.000 A 
ATOM     14  C   UNL     1       7.347   4.356  13.306  0.00  0.00    +0.000 A 
ATOM     15  C   UNL     1       6.358   3.516  12.785  0.00  0.00    +0.000 A 
ATOM     16  C   UNL     1       5.082   3.489  13.356  0.00  0.00    +0.000 A 
ATOM     17  C   UNL     1       4.791   4.323  14.439  0.00  0.00    +0.000 A 
BRANCH  15  18
ATOM     18  N   UNL     1       6.655   2.658  11.634  0.00  0.00    +0.000 N 
ATOM     19  O   UNL     1       5.770   1.875  11.253  0.00  0.00    +0.000 OA
ATOM     20  O   UNL     1       7.774   2.759  11.110  0.00  0.00    +0.000 OA
ENDBRANCH  15  18
ENDBRANCH   7  12
BRANCH   1  22
ATOM     21  C   UNL     1       4.374   1.925  20.719  0.00  0.00    +0.000 C 
ATOM     22  O   UNL     1       3.527   3.049  20.500  0.00  0.00    +0.000 OA
ENDBRANCH   1  22
BRANCH   6  23
ATOM     23  O   UNL     1       1.628   4.435  18.872  0.00  0.00    +0.000 OA
ATOM     24  C   UNL     1       0.952   3.242  18.510  0.00  0.00    +0.000 C 
ENDBRANCH   6  23
TORSDOF 4
ENDMDL
MODEL 9
REMARK VINA RESULT:      -6.4      2.126      6.853
REMARK  Name = 
REMARK  6 active torsions:
REMARK  status: ('A' for Active; 'I' for Inactive)
REMARK    1  A    between atoms: C_1  and  O_2
REMARK    2  A    between atoms: O_2  and  C_3
REMARK    3  A    between atoms: C_8  and  O_9
REMARK    4  A    between atoms: O_9  and  C_10
REMARK    5  A    between atoms: C_11  and  C_12
REMARK    6  A    between atoms: C_15  and  N_16
REMARK                            x       y       z     vdW  Elec       q    Type
REMARK                         _______ _______ _______ _____ _____    ______ ____
ROOT
ATOM      1  C   UNL     1       6.877   5.007  13.978  0.00  0.00    +0.000 A 
ATOM      2  C   UNL     1       7.460   5.482  15.160  0.00  0.00    +0.000 A 
ATOM      3  C   UNL     1       6.883   5.205  16.401  0.00  0.00    +0.000 A 
ATOM      4  C   UNL     1       5.676   4.499  16.469  0.00  0.00    +0.000 A 
ATOM      5  C   UNL     1       5.122   3.975  15.288  0.00  0.00    +0.000 A 
ATOM      6  C   UNL     1       5.727   4.199  14.042  0.00  0.00    +0.000 A 
ATOM      7  C   UNL     1       4.977   4.368  17.818  0.00  0.00    +0.000 C 
ATOM      8  N   UNL     1       5.914   4.030  18.906  0.00  0.00    +0.000 NA
ATOM      9  C   UNL     1       7.259   4.621  18.796  0.00  0.00    +0.000 C 
ATOM     10  C   UNL     1       7.506   5.661  17.690  0.00  0.00    +0.000 C 
ATOM     11  H   UNL     1       6.016   3.017  18.934  0.00  0.00    +0.000 HD
ENDROOT
BRANCH   7  12
ATOM     12  C   UNL     1       4.082   5.575  18.146  0.00  0.00    +0.000 A 
ATOM     13  C   UNL     1       3.305   5.574  19.322  0.00  0.00    +0.000 A 
ATOM     14  C   UNL     1       2.462   6.646  19.639  0.00  0.00    +0.000 A 
ATOM     15  C   UNL     1       2.393   7.746  18.778  0.00  0.00    +0.000 A 
ATOM     16  C   UNL     1       3.179   7.788  17.623  0.00  0.00    +0.000 A 
ATOM     17  C   UNL     1       4.019   6.713  17.318  0.00  0.00    +0.000 A 
BRANCH  15  18
ATOM     18  N   UNL     1       1.494   8.863  19.085  0.00  0.00    +0.000 N 
ATOM     19  O   UNL     1       1.283   9.697  18.189  0.00  0.00    +0.000 OA
ATOM     20  O   UNL     1       1.001   8.914  20.220  0.00  0.00    +0.000 OA
ENDBRANCH  15  18
ENDBRANCH   7  12
BRANCH   1  22
ATOM     21  C   UNL     1       8.899   5.831  13.043  0.00  0.00    +0.000 C 
ATOM     22  O   UNL     1       7.570   5.359  12.847  0.00  0.00    +0.000 OA
ENDBRANCH   1  22
BRANCH   6  23
ATOM     23  O   UNL     1       5.270   3.661  12.870  0.00  0.00    +0.000 OA
ATOM     24  C   UNL     1       6.086   2.723  12.187  0.00  0.00    +0.000 C 
ENDBRANCH   6  23
TORSDOF 4
ENDMDL
