MODEL 1
REMARK VINA RESULT:      -7.4      0.000      0.000
REMARK  Name = 
REMARK  12 active torsions:
REMARK  status: ('A' for Active; 'I' for Inactive)
REMARK    1  A    between atoms: C_1  and  C_2
REMARK    2  A    between atoms: C_2  and  C_3
REMARK    3  A    between atoms: C_3  and  C_4
REMARK    4  A    between atoms: C_4  and  C_5
REMARK    5  A    between atoms: C_5  and  C_6
REMARK    6  A    between atoms: C_6  and  C_7
REMARK    7  A    between atoms: C_7  and  C_8
REMARK    8  A    between atoms: C_8  and  O_9
REMARK    9  A    between atoms: O_9  and  C_10
REMARK   10  A    between atoms: C_14  and  N_15
REMARK   11  A    between atoms: N_15  and  C_16
REMARK   12  A    between atoms: C_20  and  N_21
REMARK                            x       y       z     vdW  Elec       q    Type
REMARK                         _______ _______ _______ _____ _____    ______ ____
ROOT
ATOM      1  C   UNL     1       3.315   6.841  18.244  0.00  0.00    +0.000 A 
ATOM      2  C   UNL     1       2.922   7.808  17.324  0.00  0.00    +0.000 A 
ATOM      3  C   UNL     1       1.989   8.780  17.688  0.00  0.00    +0.000 A 
ATOM      4  C   UNL     1       1.425   8.800  18.979  0.00  0.00    +0.000 A 
ATOM      5  C   UNL     1       0.457   9.755  19.381  0.00  0.00    +0.000 A 
ATOM      6  C   UNL     1      -0.026   9.709  20.687  0.00  0.00    +0.000 A 
ATOM      7  C   UNL     1       0.476   8.750  21.543  0.00  0.00    +0.000 A 
ATOM      8  N   UNL     1       1.388   7.824  21.186  0.00  0.00    +0.000 NA
ATOM      9  C   UNL     1       1.852   7.842  19.926  0.00  0.00    +0.000 A 
ATOM     10  C   UNL     1       2.781   6.879  19.535  0.00  0.00    +0.000 A 
ENDROOT
BRANCH   5  11
ATOM     11  N   UNL     1      -0.088  10.660  18.431  0.00  0.00    +0.000 N 
ATOM     12  H   UNL     1       0.596  10.842  17.697  0.00  0.00    +0.000 HD
BRANCH  11  13
ATOM     13  C   UNL     1      -1.424  10.788  17.993  0.00  0.00    +0.000 A 
ATOM     14  C   UNL     1      -1.910  10.066  16.893  0.00  0.00    +0.000 A 
ATOM     15  C   UNL     1      -3.261  10.105  16.532  0.00  0.00    +0.000 A 
ATOM     16  C   UNL     1      -4.161  10.851  17.288  0.00  0.00    +0.000 A 
ATOM     17  C   UNL     1      -3.695  11.563  18.397  0.00  0.00    +0.000 A 
ATOM     18  C   UNL     1      -2.334  11.540  18.748  0.00  0.00    +0.000 A 
BRANCH  17  19
ATOM     19  N   UNL     1      -4.649  12.310  19.226  0.00  0.00    +0.000 N 
ATOM     20  O   UNL     1      -5.856  12.165  18.993  0.00  0.00    +0.000 OA
ATOM     21  O   UNL     1      -4.186  13.044  20.113  0.00  0.00    +0.000 OA
ENDBRANCH  17  19
ENDBRANCH  11  13
ENDBRANCH   5  11
BRANCH   1  22
ATOM     22  O   UNL     1       4.209   5.829  17.986  0.00  0.00    +0.000 OA
BRANCH  22  23
ATOM     23  C   UNL     1       3.621   4.607  17.535  0.00  0.00    +0.000 C 
BRANCH  23  24
ATOM     24  C   UNL     1       4.205   3.428  18.302  0.00  0.00    +0.000 C 
BRANCH  24  25
ATOM     25  C   UNL     1       3.291   2.213  18.146  0.00  0.00    +0.000 C 
BRANCH  25  26
ATOM     26  C   UNL     1       1.832   2.624  17.987  0.00  0.00    +0.000 C 
BRANCH  26  27
ATOM     27  C   UNL     1       1.068   2.471  19.303  0.00  0.00    +0.000 C 
BRANCH  27  28
ATOM     28  C   UNL     1       0.903   3.826  19.986  0.00  0.00    +0.000 C 
BRANCH  28  30
ATOM     29  C   UNL     1       2.201   2.623  21.767  0.00  0.00    +0.000 C 
ATOM     30  C   UNL     1       1.851   3.978  21.173  0.00  0.00    +0.000 C 
ENDBRANCH  28  30
ENDBRANCH  27  28
ENDBRANCH  26  27
ENDBRANCH  25  26
ENDBRANCH  24  25
ENDBRANCH  23  24
ENDBRANCH  22  23
ENDBRANCH   1  22
TORSDOF 11
ENDMDL
MODEL 2
REMARK VINA RESULT:      -7.4      6.733      9.755
REMARK  Name = 
REMARK  12 active torsions:
REMARK  status: ('A' for Active; 'I' for Inactive)
REMARK    1  A    between atoms: C_1  and  C_2
REMARK    2  A    between atoms: C_2  and  C_3
REMARK    3  A    between atoms: C_3  and  C_4
REMARK    4  A    between atoms: C_4  and  C_5
REMARK    5  A    between atoms: C_5  and  C_6
REMARK    6  A    between atoms: C_6  and  C_7
REMARK    7  A    between atoms: C_7  and  C_8
REMARK    8  A    between atoms: C_8  and  O_9
REMARK    9  A    between atoms: O_9  and  C_10
REMARK   10  A    between atoms: C_14  and  N_15
REMARK   11  A    between atoms: N_15  and  C_16
REMARK   12  A    between atoms: C_20  and  N_21
REMARK                            x       y       z     vdW  Elec       q    Type
REMARK                         _______ _______ _______ _____ _____    ______ ____
ROOT
ATOM      1  C   UNL     1       7.852   7.005  18.361  0.00  0.00    +0.000 A 
ATOM      2  C   UNL     1       7.393   6.028  19.240  0.00  0.00    +0.000 A 
ATOM      3  C   UNL     1       6.583   4.993  18.772  0.00  0.00    +0.000 A 
ATOM      4  C   UNL     1       6.209   4.918  17.416  0.00  0.00    +0.000 A 
ATOM      5  C   UNL     1       5.368   3.897  16.905  0.00  0.00    +0.000 A 
ATOM      6  C   UNL     1       5.072   3.893  15.543  0.00  0.00    +0.000 A 
ATOM      7  C   UNL     1       5.629   4.871  14.744  0.00  0.00    +0.000 A 
ATOM      8  N   UNL     1       6.423   5.858  15.203  0.00  0.00    +0.000 NA
ATOM      9  C   UNL     1       6.705   5.889  16.516  0.00  0.00    +0.000 A 
ATOM     10  C   UNL     1       7.507   6.914  17.010  0.00  0.00    +0.000 A 
ENDROOT
BRANCH   5  11
ATOM     11  N   UNL     1       4.752   2.972  17.790  0.00  0.00    +0.000 N 
ATOM     12  H   UNL     1       5.456   2.556  18.397  0.00  0.00    +0.000 HD
BRANCH  11  13
ATOM     13  C   UNL     1       3.469   3.026  18.377  0.00  0.00    +0.000 A 
ATOM     14  C   UNL     1       2.303   2.882  17.612  0.00  0.00    +0.000 A 
ATOM     15  C   UNL     1       1.040   2.821  18.209  0.00  0.00    +0.000 A 
ATOM     16  C   UNL     1       0.923   2.874  19.595  0.00  0.00    +0.000 A 
ATOM     17  C   UNL     1       2.077   3.001  20.373  0.00  0.00    +0.000 A 
ATOM     18  C   UNL     1       3.346   3.083  19.772  0.00  0.00    +0.000 A 
BRANCH  17  19
ATOM     19  N   UNL     1       1.963   3.008  21.836  0.00  0.00    +0.000 N 
ATOM     20  O   UNL     1       2.613   3.855  22.463  0.00  0.00    +0.000 OA
ATOM     21  O   UNL     1       1.221   2.162  22.358  0.00  0.00    +0.000 OA
ENDBRANCH  17  19
ENDBRANCH  11  13
ENDBRANCH   5  11
BRANCH   1  22
ATOM     22  O   UNL     1       8.636   8.076  18.719  0.00  0.00    +0.000 OA
BRANCH  22  23
ATOM     23  C   UNL     1       8.277   9.316  18.106  0.00  0.00    +0.000 C 
BRANCH  23  24
ATOM     24  C   UNL     1       9.290  10.395  18.468  0.00  0.00    +0.000 C 
BRANCH  24  25
ATOM     25  C   UNL     1       9.399  10.507  19.988  0.00  0.00    +0.000 C 
BRANCH  25  26
ATOM     26  C   UNL     1      10.465  11.514  20.403  0.00  0.00    +0.000 C 
BRANCH  26  27
ATOM     27  C   UNL     1       9.881  12.594  21.314  0.00  0.00    +0.000 C 
BRANCH  27  28
ATOM     28  C   UNL     1       9.524  13.840  20.505  0.00  0.00    +0.000 C 
BRANCH  28  30
ATOM     29  C   UNL     1      11.610  15.063  19.831  0.00  0.00    +0.000 C 
ATOM     30  C   UNL     1      10.529  14.091  19.385  0.00  0.00    +0.000 C 
ENDBRANCH  28  30
ENDBRANCH  27  28
ENDBRANCH  26  27
ENDBRANCH  25  26
ENDBRANCH  24  25
ENDBRANCH  23  24
ENDBRANCH  22  23
ENDBRANCH   1  22
TORSDOF 11
ENDMDL
MODEL 3
REMARK VINA RESULT:      -7.4      3.391      9.203
REMARK  Name = 
REMARK  12 active torsions:
REMARK  status: ('A' for Active; 'I' for Inactive)
REMARK    1  A    between atoms: C_1  and  C_2
REMARK    2  A    between atoms: C_2  and  C_3
REMARK    3  A    between atoms: C_3  and  C_4
REMARK    4  A    between atoms: C_4  and  C_5
REMARK    5  A    between atoms: C_5  and  C_6
REMARK    6  A    between atoms: C_6  and  C_7
REMARK    7  A    between atoms: C_7  and  C_8
REMARK    8  A    between atoms: C_8  and  O_9
REMARK    9  A    between atoms: O_9  and  C_10
REMARK   10  A    between atoms: C_14  and  N_15
REMARK   11  A    between atoms: N_15  and  C_16
REMARK   12  A    between atoms: C_20  and  N_21
REMARK                            x       y       z     vdW  Elec       q    Type
REMARK                         _______ _______ _______ _____ _____    ______ ____
ROOT
ATOM      1  C   UNL     1       1.706   8.087  19.930  0.00  0.00    +0.000 A 
ATOM      2  C   UNL     1       2.217   7.962  18.642  0.00  0.00    +0.000 A 
ATOM      3  C   UNL     1       2.608   6.711  18.164  0.00  0.00    +0.000 A 
ATOM      4  C   UNL     1       2.502   5.559  18.968  0.00  0.00    +0.000 A 
ATOM      5  C   UNL     1       2.912   4.274  18.530  0.00  0.00    +0.000 A 
ATOM      6  C   UNL     1       2.746   3.190  19.389  0.00  0.00    +0.000 A 
ATOM      7  C   UNL     1       2.169   3.409  20.624  0.00  0.00    +0.000 A 
ATOM      8  N   UNL     1       1.781   4.619  21.071  0.00  0.00    +0.000 NA
ATOM      9  C   UNL     1       1.949   5.679  20.263  0.00  0.00    +0.000 A 
ATOM     10  C   UNL     1       1.571   6.941  20.718  0.00  0.00    +0.000 A 
ENDROOT
BRANCH   5  11
ATOM     11  N   UNL     1       3.581   4.125  17.286  0.00  0.00    +0.000 N 
ATOM     12  H   UNL     1       2.927   4.287  16.521  0.00  0.00    +0.000 HD
BRANCH  11  13
ATOM     13  C   UNL     1       4.916   4.441  16.954  0.00  0.00    +0.000 A 
ATOM     14  C   UNL     1       5.911   4.553  17.935  0.00  0.00    +0.000 A 
ATOM     15  C   UNL     1       7.254   4.752  17.597  0.00  0.00    +0.000 A 
ATOM     16  C   UNL     1       7.631   4.814  16.258  0.00  0.00    +0.000 A 
ATOM     17  C   UNL     1       6.653   4.689  15.268  0.00  0.00    +0.000 A 
ATOM     18  C   UNL     1       5.300   4.510  15.608  0.00  0.00    +0.000 A 
BRANCH  17  19
ATOM     19  N   UNL     1       7.052   4.705  13.855  0.00  0.00    +0.000 N 
ATOM     20  O   UNL     1       6.475   3.928  13.082  0.00  0.00    +0.000 OA
ATOM     21  O   UNL     1       7.945   5.498  13.520  0.00  0.00    +0.000 OA
ENDBRANCH  17  19
ENDBRANCH  11  13
ENDBRANCH   5  11
BRANCH   1  22
ATOM     22  O   UNL     1       1.311   9.271  20.506  0.00  0.00    +0.000 OA
BRANCH  22  23
ATOM     23  C   UNL     1       0.942  10.297  19.583  0.00  0.00    +0.000 C 
BRANCH  23  24
ATOM     24  C   UNL     1      -0.272  11.058  20.098  0.00  0.00    +0.000 C 
BRANCH  24  25
ATOM     25  C   UNL     1      -1.375  11.039  19.040  0.00  0.00    +0.000 C 
BRANCH  25  26
ATOM     26  C   UNL     1      -1.025  10.115  17.879  0.00  0.00    +0.000 C 
BRANCH  26  27
ATOM     27  C   UNL     1      -2.233   9.887  16.971  0.00  0.00    +0.000 C 
BRANCH  27  28
ATOM     28  C   UNL     1      -3.498  10.455  17.611  0.00  0.00    +0.000 C 
BRANCH  28  30
ATOM     29  C   UNL     1      -5.504  11.934  17.308  0.00  0.00    +0.000 C 
ATOM     30  C   UNL     1      -4.253  11.371  16.652  0.00  0.00    +0.000 C 
ENDBRANCH  28  30
ENDBRANCH  27  28
ENDBRANCH  26  27
ENDBRANCH  25  26
ENDBRANCH  24  25
ENDBRANCH  23  24
ENDBRANCH  22  23
ENDBRANCH   1  22
TORSDOF 11
ENDMDL
MODEL 4
REMARK VINA RESULT:      -7.3      3.412      9.178
REMARK  Name = 
REMARK  12 active torsions:
REMARK  status: ('A' for Active; 'I' for Inactive)
REMARK    1  A    between atoms: C_1  and  C_2
REMARK    2  A    between atoms: C_2  and  C_3
REMARK    3  A    between atoms: C_3  and  C_4
REMARK    4  A    between atoms: C_4  and  C_5
REMARK    5  A    between atoms: C_5  and  C_6
REMARK    6  A    between atoms: C_6  and  C_7
REMARK    7  A    between atoms: C_7  and  C_8
REMARK    8  A    between atoms: C_8  and  O_9
REMARK    9  A    between atoms: O_9  and  C_10
REMARK   10  A    between atoms: C_14  and  N_15
REMARK   11  A    between atoms: N_15  and  C_16
REMARK   12  A    between atoms: C_20  and  N_21
REMARK                            x       y       z     vdW  Elec       q    Type
REMARK                         _______ _______ _______ _____ _____    ______ ____
ROOT
ATOM      1  C   UNL     1       1.821   7.823  19.919  0.00  0.00    +0.000 A 
ATOM      2  C   UNL     1       2.424   7.661  18.676  0.00  0.00    +0.000 A 
ATOM      3  C   UNL     1       2.722   6.382  18.205  0.00  0.00    +0.000 A 
ATOM      4  C   UNL     1       2.429   5.238  18.972  0.00  0.00    +0.000 A 
ATOM      5  C   UNL     1       2.738   3.922  18.542  0.00  0.00    +0.000 A 
ATOM      6  C   UNL     1       2.388   2.851  19.360  0.00  0.00    +0.000 A 
ATOM      7  C   UNL     1       1.734   3.113  20.547  0.00  0.00    +0.000 A 
ATOM      8  N   UNL     1       1.437   4.352  20.987  0.00  0.00    +0.000 NA
ATOM      9  C   UNL     1       1.782   5.398  20.219  0.00  0.00    +0.000 A 
ATOM     10  C   UNL     1       1.501   6.687  20.668  0.00  0.00    +0.000 A 
ENDROOT
BRANCH   5  11
ATOM     11  N   UNL     1       3.492   3.720  17.354  0.00  0.00    +0.000 N 
ATOM     12  H   UNL     1       2.870   3.732  16.546  0.00  0.00    +0.000 HD
BRANCH  11  13
ATOM     13  C   UNL     1       4.805   4.141  17.056  0.00  0.00    +0.000 A 
ATOM     14  C   UNL     1       5.771   4.306  18.058  0.00  0.00    +0.000 A 
ATOM     15  C   UNL     1       7.100   4.612  17.750  0.00  0.00    +0.000 A 
ATOM     16  C   UNL     1       7.496   4.730  16.421  0.00  0.00    +0.000 A 
ATOM     17  C   UNL     1       6.549   4.552  15.409  0.00  0.00    +0.000 A 
ATOM     18  C   UNL     1       5.208   4.266  15.719  0.00  0.00    +0.000 A 
BRANCH  17  19
ATOM     19  N   UNL     1       6.972   4.627  14.005  0.00  0.00    +0.000 N 
ATOM     20  O   UNL     1       7.846   5.452  13.708  0.00  0.00    +0.000 OA
ATOM     21  O   UNL     1       6.426   3.858  13.199  0.00  0.00    +0.000 OA
ENDBRANCH  17  19
ENDBRANCH  11  13
ENDBRANCH   5  11
BRANCH   1  22
ATOM     22  O   UNL     1       1.504   9.034  20.486  0.00  0.00    +0.000 OA
BRANCH  22  23
ATOM     23  C   UNL     1       0.153   9.455  20.293  0.00  0.00    +0.000 C 
BRANCH  23  24
ATOM     24  C   UNL     1      -0.013  10.077  18.912  0.00  0.00    +0.000 C 
BRANCH  24  25
ATOM     25  C   UNL     1      -0.673  11.450  19.045  0.00  0.00    +0.000 C 
BRANCH  25  26
ATOM     26  C   UNL     1      -1.903  11.571  18.154  0.00  0.00    +0.000 C 
BRANCH  26  27
ATOM     27  C   UNL     1      -2.627  10.230  18.027  0.00  0.00    +0.000 C 
BRANCH  27  28
ATOM     28  C   UNL     1      -3.488  10.205  16.766  0.00  0.00    +0.000 C 
BRANCH  28  30
ATOM     29  C   UNL     1      -3.452  10.155  14.256  0.00  0.00    +0.000 C 
ATOM     30  C   UNL     1      -2.662   9.877  15.525  0.00  0.00    +0.000 C 
ENDBRANCH  28  30
ENDBRANCH  27  28
ENDBRANCH  26  27
ENDBRANCH  25  26
ENDBRANCH  24  25
ENDBRANCH  23  24
ENDBRANCH  22  23
ENDBRANCH   1  22
TORSDOF 11
ENDMDL
MODEL 5
REMARK VINA RESULT:      -7.3      3.745      5.843
REMARK  Name = 
REMARK  12 active torsions:
REMARK  status: ('A' for Active; 'I' for Inactive)
REMARK    1  A    between atoms: C_1  and  C_2
REMARK    2  A    between atoms: C_2  and  C_3
REMARK    3  A    between atoms: C_3  and  C_4
REMARK    4  A    between atoms: C_4  and  C_5
REMARK    5  A    between atoms: C_5  and  C_6
REMARK    6  A    between atoms: C_6  and  C_7
REMARK    7  A    between atoms: C_7  and  C_8
REMARK    8  A    between atoms: C_8  and  O_9
REMARK    9  A    between atoms: O_9  and  C_10
REMARK   10  A    between atoms: C_14  and  N_15
REMARK   11  A    between atoms: N_15  and  C_16
REMARK   12  A    between atoms: C_20  and  N_21
REMARK                            x       y       z     vdW  Elec       q    Type
REMARK                         _______ _______ _______ _____ _____    ______ ____
ROOT
ATOM      1  C   UNL     1       5.297   4.733  16.590  0.00  0.00    +0.000 A 
ATOM      2  C   UNL     1       5.293   6.107  16.805  0.00  0.00    +0.000 A 
ATOM      3  C   UNL     1       4.382   6.671  17.699  0.00  0.00    +0.000 A 
ATOM      4  C   UNL     1       3.451   5.871  18.390  0.00  0.00    +0.000 A 
ATOM      5  C   UNL     1       2.492   6.407  19.288  0.00  0.00    +0.000 A 
ATOM      6  C   UNL     1       1.627   5.533  19.943  0.00  0.00    +0.000 A 
ATOM      7  C   UNL     1       1.755   4.179  19.709  0.00  0.00    +0.000 A 
ATOM      8  N   UNL     1       2.649   3.643  18.855  0.00  0.00    +0.000 NA
ATOM      9  C   UNL     1       3.479   4.471  18.200  0.00  0.00    +0.000 A 
ATOM     10  C   UNL     1       4.396   3.935  17.298  0.00  0.00    +0.000 A 
ENDROOT
BRANCH   5  11
ATOM     11  N   UNL     1       2.348   7.815  19.419  0.00  0.00    +0.000 N 
ATOM     12  H   UNL     1       2.559   8.266  18.531  0.00  0.00    +0.000 HD
BRANCH  11  13
ATOM     13  C   UNL     1       1.434   8.542  20.213  0.00  0.00    +0.000 A 
ATOM     14  C   UNL     1       1.419   8.426  21.610  0.00  0.00    +0.000 A 
ATOM     15  C   UNL     1       0.594   9.231  22.401  0.00  0.00    +0.000 A 
ATOM     16  C   UNL     1      -0.216  10.194  21.806  0.00  0.00    +0.000 A 
ATOM     17  C   UNL     1      -0.200  10.333  20.415  0.00  0.00    +0.000 A 
ATOM     18  C   UNL     1       0.614   9.510  19.617  0.00  0.00    +0.000 A 
BRANCH  17  19
ATOM     19  N   UNL     1      -1.015  11.380  19.786  0.00  0.00    +0.000 N 
ATOM     20  O   UNL     1      -0.690  11.763  18.654  0.00  0.00    +0.000 OA
ATOM     21  O   UNL     1      -1.981  11.819  20.428  0.00  0.00    +0.000 OA
ENDBRANCH  17  19
ENDBRANCH  11  13
ENDBRANCH   5  11
BRANCH   1  22
ATOM     22  O   UNL     1       6.136   4.078  15.719  0.00  0.00    +0.000 OA
BRANCH  22  23
ATOM     23  C   UNL     1       7.109   4.906  15.081  0.00  0.00    +0.000 C 
BRANCH  23  24
ATOM     24  C   UNL     1       7.035   4.737  13.569  0.00  0.00    +0.000 C 
BRANCH  24  25
ATOM     25  C   UNL     1       5.931   3.740  13.218  0.00  0.00    +0.000 C 
BRANCH  25  26
ATOM     26  C   UNL     1       6.407   2.709  12.201  0.00  0.00    +0.000 C 
BRANCH  26  27
ATOM     27  C   UNL     1       5.309   2.387  11.187  0.00  0.00    +0.000 C 
BRANCH  27  28
ATOM     28  C   UNL     1       4.095   3.286  11.409  0.00  0.00    +0.000 C 
BRANCH  28  30
ATOM     29  C   UNL     1       2.892   4.392   9.502  0.00  0.00    +0.000 C 
ATOM     30  C   UNL     1       3.054   3.111  10.306  0.00  0.00    +0.000 C 
ENDBRANCH  28  30
ENDBRANCH  27  28
ENDBRANCH  26  27
ENDBRANCH  25  26
ENDBRANCH  24  25
ENDBRANCH  23  24
ENDBRANCH  22  23
ENDBRANCH   1  22
TORSDOF 11
ENDMDL
MODEL 6
REMARK VINA RESULT:      -7.3      3.952      9.420
REMARK  Name = 
REMARK  12 active torsions:
REMARK  status: ('A' for Active; 'I' for Inactive)
REMARK    1  A    between atoms: C_1  and  C_2
REMARK    2  A    between atoms: C_2  and  C_3
REMARK    3  A    between atoms: C_3  and  C_4
REMARK    4  A    between atoms: C_4  and  C_5
REMARK    5  A    between atoms: C_5  and  C_6
REMARK    6  A    between atoms: C_6  and  C_7
REMARK    7  A    between atoms: C_7  and  C_8
REMARK    8  A    between atoms: C_8  and  O_9
REMARK    9  A    between atoms: O_9  and  C_10
REMARK   10  A    between atoms: C_14  and  N_15
REMARK   11  A    between atoms: N_15  and  C_16
REMARK   12  A    between atoms: C_20  and  N_21
REMARK                            x       y       z     vdW  Elec       q    Type
REMARK                         _______ _______ _______ _____ _____    ______ ____
ROOT
ATOM      1  C   UNL     1       1.746   7.566  20.110  0.00  0.00    +0.000 A 
ATOM      2  C   UNL     1       2.335   7.515  18.851  0.00  0.00    +0.000 A 
ATOM      3  C   UNL     1       2.665   6.284  18.283  0.00  0.00    +0.000 A 
ATOM      4  C   UNL     1       2.419   5.078  18.969  0.00  0.00    +0.000 A 
ATOM      5  C   UNL     1       2.762   3.808  18.439  0.00  0.00    +0.000 A 
ATOM      6  C   UNL     1       2.458   2.669  19.181  0.00  0.00    +0.000 A 
ATOM      7  C   UNL     1       1.814   2.823  20.393  0.00  0.00    +0.000 A 
ATOM      8  N   UNL     1       1.486   4.017  20.925  0.00  0.00    +0.000 NA
ATOM      9  C   UNL     1       1.787   5.127  20.232  0.00  0.00    +0.000 A 
ATOM     10  C   UNL     1       1.473   6.370  20.777  0.00  0.00    +0.000 A 
ENDROOT
BRANCH   5  11
ATOM     11  N   UNL     1       3.504   3.717  17.230  0.00  0.00    +0.000 N 
ATOM     12  H   UNL     1       2.877   3.819  16.433  0.00  0.00    +0.000 HD
BRANCH  11  13
ATOM     13  C   UNL     1       4.821   4.149  16.964  0.00  0.00    +0.000 A 
ATOM     14  C   UNL     1       5.768   4.297  17.987  0.00  0.00    +0.000 A 
ATOM     15  C   UNL     1       7.101   4.613  17.709  0.00  0.00    +0.000 A 
ATOM     16  C   UNL     1       7.521   4.759  16.390  0.00  0.00    +0.000 A 
ATOM     17  C   UNL     1       6.592   4.598  15.358  0.00  0.00    +0.000 A 
ATOM     18  C   UNL     1       5.247   4.301  15.637  0.00  0.00    +0.000 A 
BRANCH  17  19
ATOM     19  N   UNL     1       7.040   4.703  13.963  0.00  0.00    +0.000 N 
ATOM     20  O   UNL     1       6.508   3.960  13.128  0.00  0.00    +0.000 OA
ATOM     21  O   UNL     1       7.926   5.531  13.705  0.00  0.00    +0.000 OA
ENDBRANCH  17  19
ENDBRANCH  11  13
ENDBRANCH   5  11
BRANCH   1  22
ATOM     22  O   UNL     1       1.400   8.723  20.768  0.00  0.00    +0.000 OA
BRANCH  22  23
ATOM     23  C   UNL     1       0.704   9.683  19.973  0.00  0.00    +0.000 C 
BRANCH  23  24
ATOM     24  C   UNL     1      -0.460  10.274  20.757  0.00  0.00    +0.000 C 
BRANCH  24  25
ATOM     25  C   UNL     1      -0.054  10.452  22.220  0.00  0.00    +0.000 C 
BRANCH  25  26
ATOM     26  C   UNL     1      -1.203  10.999  23.060  0.00  0.00    +0.000 C 
BRANCH  26  27
ATOM     27  C   UNL     1      -1.783  12.271  22.440  0.00  0.00    +0.000 C 
BRANCH  27  28
ATOM     28  C   UNL     1      -3.265  12.406  22.784  0.00  0.00    +0.000 C 
BRANCH  28  30
ATOM     29  C   UNL     1      -4.771  12.334  24.792  0.00  0.00    +0.000 C 
ATOM     30  C   UNL     1      -3.469  12.874  24.222  0.00  0.00    +0.000 C 
ENDBRANCH  28  30
ENDBRANCH  27  28
ENDBRANCH  26  27
ENDBRANCH  25  26
ENDBRANCH  24  25
ENDBRANCH  23  24
ENDBRANCH  22  23
ENDBRANCH   1  22
TORSDOF 11
ENDMDL
MODEL 7
REMARK VINA RESULT:      -7.2      3.714      5.986
REMARK  Name = 
REMARK  12 active torsions:
REMARK  status: ('A' for Active; 'I' for Inactive)
REMARK    1  A    between atoms: C_1  and  C_2
REMARK    2  A    between atoms: C_2  and  C_3
REMARK    3  A    between atoms: C_3  and  C_4
REMARK    4  A    between atoms: C_4  and  C_5
REMARK    5  A    between atoms: C_5  and  C_6
REMARK    6  A    between atoms: C_6  and  C_7
REMARK    7  A    between atoms: C_7  and  C_8
REMARK    8  A    between atoms: C_8  and  O_9
REMARK    9  A    between atoms: O_9  and  C_10
REMARK   10  A    between atoms: C_14  and  N_15
REMARK   11  A    between atoms: N_15  and  C_16
REMARK   12  A    between atoms: C_20  and  N_21
REMARK                            x       y       z     vdW  Elec       q    Type
REMARK                         _______ _______ _______ _____ _____    ______ ____
ROOT
ATOM      1  C   UNL     1       4.354   4.404  16.773  0.00  0.00    +0.000 A 
ATOM      2  C   UNL     1       4.667   5.550  17.496  0.00  0.00    +0.000 A 
ATOM      3  C   UNL     1       3.909   5.899  18.614  0.00  0.00    +0.000 A 
ATOM      4  C   UNL     1       2.817   5.111  19.028  0.00  0.00    +0.000 A 
ATOM      5  C   UNL     1       2.006   5.444  20.143  0.00  0.00    +0.000 A 
ATOM      6  C   UNL     1       0.961   4.590  20.489  0.00  0.00    +0.000 A 
ATOM      7  C   UNL     1       0.773   3.443  19.745  0.00  0.00    +0.000 A 
ATOM      8  N   UNL     1       1.520   3.107  18.676  0.00  0.00    +0.000 NA
ATOM      9  C   UNL     1       2.521   3.927  18.316  0.00  0.00    +0.000 A 
ATOM     10  C   UNL     1       3.290   3.604  17.200  0.00  0.00    +0.000 A 
ENDROOT
BRANCH   5  11
ATOM     11  N   UNL     1       2.191   6.683  20.814  0.00  0.00    +0.000 N 
ATOM     12  H   UNL     1       3.140   6.736  21.182  0.00  0.00    +0.000 HD
BRANCH  11  13
ATOM     13  C   UNL     1       1.636   7.946  20.513  0.00  0.00    +0.000 A 
ATOM     14  C   UNL     1       1.596   8.438  19.201  0.00  0.00    +0.000 A 
ATOM     15  C   UNL     1       0.944   9.635  18.889  0.00  0.00    +0.000 A 
ATOM     16  C   UNL     1       0.291  10.352  19.888  0.00  0.00    +0.000 A 
ATOM     17  C   UNL     1       0.309   9.866  21.198  0.00  0.00    +0.000 A 
ATOM     18  C   UNL     1       0.981   8.673  21.516  0.00  0.00    +0.000 A 
BRANCH  17  19
ATOM     19  N   UNL     1      -0.420  10.593  22.246  0.00  0.00    +0.000 N 
ATOM     20  O   UNL     1      -0.177  10.304  23.425  0.00  0.00    +0.000 OA
ATOM     21  O   UNL     1      -1.236  11.454  21.885  0.00  0.00    +0.000 OA
ENDBRANCH  17  19
ENDBRANCH  11  13
ENDBRANCH   5  11
BRANCH   1  22
ATOM     22  O   UNL     1       5.019   3.979  15.647  0.00  0.00    +0.000 OA
BRANCH  22  23
ATOM     23  C   UNL     1       6.417   3.743  15.827  0.00  0.00    +0.000 C 
BRANCH  23  24
ATOM     24  C   UNL     1       7.223   4.915  15.282  0.00  0.00    +0.000 C 
BRANCH  24  25
ATOM     25  C   UNL     1       6.715   5.282  13.888  0.00  0.00    +0.000 C 
BRANCH  25  26
ATOM     26  C   UNL     1       7.725   4.915  12.807  0.00  0.00    +0.000 C 
BRANCH  26  27
ATOM     27  C   UNL     1       7.086   4.039  11.729  0.00  0.00    +0.000 C 
BRANCH  27  28
ATOM     28  C   UNL     1       5.892   3.275  12.300  0.00  0.00    +0.000 C 
BRANCH  28  30
ATOM     29  C   UNL     1       6.590   1.184  11.099  0.00  0.00    +0.000 C 
ATOM     30  C   UNL     1       5.447   2.149  11.370  0.00  0.00    +0.000 C 
ENDBRANCH  28  30
ENDBRANCH  27  28
ENDBRANCH  26  27
ENDBRANCH  25  26
ENDBRANCH  24  25
ENDBRANCH  23  24
ENDBRANCH  22  23
ENDBRANCH   1  22
TORSDOF 11
ENDMDL
MODEL 8
REMARK VINA RESULT:      -7.2      3.436      8.798
REMARK  Name = 
REMARK  12 active torsions:
REMARK  status: ('A' for Active; 'I' for Inactive)
REMARK    1  A    between atoms: C_1  and  C_2
REMARK    2  A    between atoms: C_2  and  C_3
REMARK    3  A    between atoms: C_3  and  C_4
REMARK    4  A    between atoms: C_4  and  C_5
REMARK    5  A    between atoms: C_5  and  C_6
REMARK    6  A    between atoms: C_6  and  C_7
REMARK    7  A    between atoms: C_7  and  C_8
REMARK    8  A    between atoms: C_8  and  O_9
REMARK    9  A    between atoms: O_9  and  C_10
REMARK   10  A    between atoms: C_14  and  N_15
REMARK   11  A    between atoms: N_15  and  C_16
REMARK   12  A    between atoms: C_20  and  N_21
REMARK                            x       y       z     vdW  Elec       q    Type
REMARK                         _______ _______ _______ _____ _____    ______ ____
ROOT
ATOM      1  C   UNL     1       1.631   7.885  20.358  0.00  0.00    +0.000 A 
ATOM      2  C   UNL     1       2.021   7.939  19.024  0.00  0.00    +0.000 A 
ATOM      3  C   UNL     1       2.407   6.773  18.361  0.00  0.00    +0.000 A 
ATOM      4  C   UNL     1       2.416   5.530  19.023  0.00  0.00    +0.000 A 
ATOM      5  C   UNL     1       2.824   4.326  18.394  0.00  0.00    +0.000 A 
ATOM      6  C   UNL     1       2.776   3.140  19.124  0.00  0.00    +0.000 A 
ATOM      7  C   UNL     1       2.312   3.183  20.423  0.00  0.00    +0.000 A 
ATOM      8  N   UNL     1       1.928   4.312  21.049  0.00  0.00    +0.000 NA
ATOM      9  C   UNL     1       1.983   5.468  20.367  0.00  0.00    +0.000 A 
ATOM     10  C   UNL     1       1.609   6.648  21.007  0.00  0.00    +0.000 A 
ENDROOT
BRANCH   5  11
ATOM     11  N   UNL     1       3.377   4.358  17.085  0.00  0.00    +0.000 N 
ATOM     12  H   UNL     1       2.703   4.763  16.437  0.00  0.00    +0.000 HD
BRANCH  11  13
ATOM     13  C   UNL     1       4.718   4.559  16.695  0.00  0.00    +0.000 A 
ATOM     14  C   UNL     1       5.244   3.970  15.536  0.00  0.00    +0.000 A 
ATOM     15  C   UNL     1       6.536   4.261  15.089  0.00  0.00    +0.000 A 
ATOM     16  C   UNL     1       7.322   5.177  15.783  0.00  0.00    +0.000 A 
ATOM     17  C   UNL     1       6.807   5.785  16.932  0.00  0.00    +0.000 A 
ATOM     18  C   UNL     1       5.515   5.477  17.393  0.00  0.00    +0.000 A 
BRANCH  17  19
ATOM     19  N   UNL     1       7.613   6.788  17.639  0.00  0.00    +0.000 N 
ATOM     20  O   UNL     1       8.084   6.478  18.741  0.00  0.00    +0.000 OA
ATOM     21  O   UNL     1       7.772   7.888  17.089  0.00  0.00    +0.000 OA
ENDBRANCH  17  19
ENDBRANCH  11  13
ENDBRANCH   5  11
BRANCH   1  22
ATOM     22  O   UNL     1       1.253   8.973  21.110  0.00  0.00    +0.000 OA
BRANCH  22  23
ATOM     23  C   UNL     1       0.043   9.605  20.689  0.00  0.00    +0.000 C 
BRANCH  23  24
ATOM     24  C   UNL     1       0.348  10.953  20.049  0.00  0.00    +0.000 C 
BRANCH  24  25
ATOM     25  C   UNL     1      -0.234  10.993  18.636  0.00  0.00    +0.000 C 
BRANCH  25  26
ATOM     26  C   UNL     1      -1.490  10.136  18.521  0.00  0.00    +0.000 C 
BRANCH  26  27
ATOM     27  C   UNL     1      -1.874   9.912  17.058  0.00  0.00    +0.000 C 
BRANCH  27  28
ATOM     28  C   UNL     1      -2.518  11.169  16.476  0.00  0.00    +0.000 C 
BRANCH  28  30
ATOM     29  C   UNL     1      -4.944  11.416  17.075  0.00  0.00    +0.000 C 
ATOM     30  C   UNL     1      -3.956  10.911  16.034  0.00  0.00    +0.000 C 
ENDBRANCH  28  30
ENDBRANCH  27  28
ENDBRANCH  26  27
ENDBRANCH  25  26
ENDBRANCH  24  25
ENDBRANCH  23  24
ENDBRANCH  22  23
ENDBRANCH   1  22
TORSDOF 11
ENDMDL
MODEL 9
REMARK VINA RESULT:      -7.1      3.926      6.336
REMARK  Name = 
REMARK  12 active torsions:
REMARK  status: ('A' for Active; 'I' for Inactive)
REMARK    1  A    between atoms: C_1  and  C_2
REMARK    2  A    between atoms: C_2  and  C_3
REMARK    3  A    between atoms: C_3  and  C_4
REMARK    4  A    between atoms: C_4  and  C_5
REMARK    5  A    between atoms: C_5  and  C_6
REMARK    6  A    between atoms: C_6  and  C_7
REMARK    7  A    between atoms: C_7  and  C_8
REMARK    8  A    between atoms: C_8  and  O_9
REMARK    9  A    between atoms: O_9  and  C_10
REMARK   10  A    between atoms: C_14  and  N_15
REMARK   11  A    between atoms: N_15  and  C_16
REMARK   12  A    between atoms: C_20  and  N_21
REMARK                            x       y       z     vdW  Elec       q    Type
REMARK                         _______ _______ _______ _____ _____    ______ ____
ROOT
ATOM      1  C   UNL     1       5.122   5.068  17.138  0.00  0.00    +0.000 A 
ATOM      2  C   UNL     1       5.184   6.042  18.130  0.00  0.00    +0.000 A 
ATOM      3  C   UNL     1       4.206   6.091  19.123  0.00  0.00    +0.000 A 
ATOM      4  C   UNL     1       3.140   5.169  19.140  0.00  0.00    +0.000 A 
ATOM      5  C   UNL     1       2.112   5.200  20.117  0.00  0.00    +0.000 A 
ATOM      6  C   UNL     1       1.112   4.231  20.066  0.00  0.00    +0.000 A 
ATOM      7  C   UNL     1       1.176   3.268  19.079  0.00  0.00    +0.000 A 
ATOM      8  N   UNL     1       2.134   3.221  18.133  0.00  0.00    +0.000 NA
ATOM      9  C   UNL     1       3.097   4.156  18.156  0.00  0.00    +0.000 A 
ATOM     10  C   UNL     1       4.084   4.134  17.172  0.00  0.00    +0.000 A 
ENDROOT
BRANCH   5  11
ATOM     11  N   UNL     1       2.049   6.268  21.052  0.00  0.00    +0.000 N 
ATOM     12  H   UNL     1       2.893   6.274  21.624  0.00  0.00    +0.000 HD
BRANCH  11  13
ATOM     13  C   UNL     1       1.466   7.544  20.902  0.00  0.00    +0.000 A 
ATOM     14  C   UNL     1       1.053   8.299  22.008  0.00  0.00    +0.000 A 
ATOM     15  C   UNL     1       0.583   9.609  21.866  0.00  0.00    +0.000 A 
ATOM     16  C   UNL     1       0.545  10.200  20.606  0.00  0.00    +0.000 A 
ATOM     17  C   UNL     1       0.969   9.466  19.495  0.00  0.00    +0.000 A 
ATOM     18  C   UNL     1       1.422   8.143  19.635  0.00  0.00    +0.000 A 
BRANCH  17  19
ATOM     19  N   UNL     1       0.978  10.102  18.172  0.00  0.00    +0.000 N 
ATOM     20  O   UNL     1      -0.109  10.450  17.690  0.00  0.00    +0.000 OA
ATOM     21  O   UNL     1       2.075  10.254  17.615  0.00  0.00    +0.000 OA
ENDBRANCH  17  19
ENDBRANCH  11  13
ENDBRANCH   5  11
BRANCH   1  22
ATOM     22  O   UNL     1       6.020   4.942  16.104  0.00  0.00    +0.000 OA
BRANCH  22  23
ATOM     23  C   UNL     1       5.960   3.700  15.403  0.00  0.00    +0.000 C 
BRANCH  23  24
ATOM     24  C   UNL     1       6.447   3.879  13.970  0.00  0.00    +0.000 C 
BRANCH  24  25
ATOM     25  C   UNL     1       5.250   3.891  13.020  0.00  0.00    +0.000 C 
BRANCH  25  26
ATOM     26  C   UNL     1       5.543   3.124  11.736  0.00  0.00    +0.000 C 
BRANCH  26  27
ATOM     27  C   UNL     1       4.263   2.541  11.137  0.00  0.00    +0.000 C 
BRANCH  27  28
ATOM     28  C   UNL     1       3.265   3.653  10.822  0.00  0.00    +0.000 C 
BRANCH  28  30
ATOM     29  C   UNL     1       2.188   5.038   9.026  0.00  0.00    +0.000 C 
ATOM     30  C   UNL     1       3.227   3.971   9.330  0.00  0.00    +0.000 C 
ENDBRANCH  28  30
ENDBRANCH  27  28
ENDBRANCH  26  27
ENDBRANCH  25  26
ENDBRANCH  24  25
ENDBRANCH  23  24
ENDBRANCH  22  23
ENDBRANCH   1  22
TORSDOF 11
ENDMDL
