MODEL 1
REMARK VINA RESULT:      -9.6      0.000      0.000
REMARK  Name = 
REMARK  7 active torsions:
REMARK  status: ('A' for Active; 'I' for Inactive)
REMARK    1  A    between atoms: C_1  and  C_2
REMARK    2  A    between atoms: C_5  and  S_6
REMARK    3  A    between atoms: S_6  and  N_9
REMARK    4  A    between atoms: C_12  and  C_13
REMARK    5  A    between atoms: C_17  and  C_18
REMARK    6  A    between atoms: N_20  and  C_21
REMARK    7  A    between atoms: C_21  and  C_22
REMARK                            x       y       z     vdW  Elec       q    Type
REMARK                         _______ _______ _______ _____ _____    ______ ____
ROOT
ATOM      1  C   UNL     1       5.421   7.320  16.668  0.00  0.00    +0.000 C 
ATOM      2  C   UNL     1       4.740   6.418  17.678  0.00  0.00    +0.000 A 
ATOM      3  C   UNL     1       3.465   6.770  18.133  0.00  0.00    +0.000 A 
ATOM      4  C   UNL     1       2.623   5.863  18.836  0.00  0.00    +0.000 A 
ATOM      5  C   UNL     1       2.998   4.488  19.171  0.00  0.00    +0.000 A 
ATOM      6  C   UNL     1       4.398   4.311  18.739  0.00  0.00    +0.000 A 
ATOM      7  C   UNL     1       5.280   5.231  18.119  0.00  0.00    +0.000 A 
ENDROOT
BRANCH   7   8
ATOM      8  C   UNL     1       6.688   4.695  17.939  0.00  0.00    +0.000 C 
ATOM      9  O   UNL     1       7.537   4.872  18.811  0.00  0.00    +0.000 OA
ATOM     10  N   UNL     1       7.088   4.179  16.734  0.00  0.00    +0.000 N 
ATOM     11  H   UNL     1       8.059   3.890  16.697  0.00  0.00    +0.000 HD
BRANCH  10  12
ATOM     12  C   UNL     1       6.223   3.737  15.678  0.00  0.00    +0.000 C 
BRANCH  12  13
ATOM     13  C   UNL     1       6.582   4.206  14.307  0.00  0.00    +0.000 A 
ATOM     14  C   UNL     1       6.079   3.531  13.196  0.00  0.00    +0.000 A 
ATOM     15  C   UNL     1       6.587   3.849  11.947  0.00  0.00    +0.000 A 
ATOM     16  C   UNL     1       7.562   4.836  11.848  0.00  0.00    +0.000 A 
ATOM     17  C   UNL     1       7.978   5.475  13.002  0.00  0.00    +0.000 A 
ATOM     18  N   UNL     1       7.509   5.193  14.231  0.00  0.00    +0.000 NA
ENDBRANCH  12  13
ENDBRANCH  10  12
ENDBRANCH   7   8
BRANCH   5  19
ATOM     19  S   UNL     1       1.282   2.831  19.572  0.00  0.00    +0.000 S 
ATOM     20  O   UNL     1       0.362   2.330  18.555  0.00  0.00    +0.000 OA
ATOM     21  O   UNL     1       1.225   2.064  20.809  0.00  0.00    +0.000 OA
BRANCH  19  22
ATOM     22  N   UNL     1       0.813   4.326  19.830  0.00  0.00    +0.000 NA
ATOM     23  C   UNL     1       1.187   4.227  17.963  0.00  0.00    +0.000 C 
ATOM     24  C   UNL     1       2.442   2.779  17.593  0.00  0.00    +0.000 C 
ATOM     25  C   UNL     1       3.556   2.163  19.055  0.00  0.00    +0.000 C 
ATOM     26  C   UNL     1       4.191   0.805  18.791  0.00  0.00    +0.000 C 
ATOM     27  C   UNL     1       3.416   2.843  20.772  0.00  0.00    +0.000 C 
ATOM     28  C   UNL     1       2.092   4.101  21.186  0.00  0.00    +0.000 C 
ENDBRANCH  19  22
ENDBRANCH   5  19
TORSDOF 5
ENDMDL
MODEL 2
REMARK VINA RESULT:      -8.0      2.775      7.276
REMARK  Name = 
REMARK  7 active torsions:
REMARK  status: ('A' for Active; 'I' for Inactive)
REMARK    1  A    between atoms: C_1  and  C_2
REMARK    2  A    between atoms: C_5  and  S_6
REMARK    3  A    between atoms: S_6  and  N_9
REMARK    4  A    between atoms: C_12  and  C_13
REMARK    5  A    between atoms: C_17  and  C_18
REMARK    6  A    between atoms: N_20  and  C_21
REMARK    7  A    between atoms: C_21  and  C_22
REMARK                            x       y       z     vdW  Elec       q    Type
REMARK                         _______ _______ _______ _____ _____    ______ ____
ROOT
ATOM      1  C   UNL     1       0.578   2.231  19.131  0.00  0.00    +0.000 C 
ATOM      2  C   UNL     1       2.044   2.580  18.980  0.00  0.00    +0.000 A 
ATOM      3  C   UNL     1       2.763   1.999  17.930  0.00  0.00    +0.000 A 
ATOM      4  C   UNL     1       4.040   2.474  17.518  0.00  0.00    +0.000 A 
ATOM      5  C   UNL     1       4.739   3.596  18.148  0.00  0.00    +0.000 A 
ATOM      6  C   UNL     1       3.920   4.016  19.301  0.00  0.00    +0.000 A 
ATOM      7  C   UNL     1       2.691   3.496  19.779  0.00  0.00    +0.000 A 
ENDROOT
BRANCH   7   8
ATOM      8  C   UNL     1       2.224   4.135  21.074  0.00  0.00    +0.000 C 
ATOM      9  O   UNL     1       1.980   3.439  22.058  0.00  0.00    +0.000 OA
ATOM     10  N   UNL     1       1.886   5.462  21.112  0.00  0.00    +0.000 N 
ATOM     11  H   UNL     1       1.540   5.786  22.010  0.00  0.00    +0.000 HD
BRANCH  10  12
ATOM     12  C   UNL     1       2.257   6.455  20.146  0.00  0.00    +0.000 C 
BRANCH  12  13
ATOM     13  C   UNL     1       1.628   7.798  20.322  0.00  0.00    +0.000 A 
ATOM     14  C   UNL     1       0.930   8.081  21.494  0.00  0.00    +0.000 A 
ATOM     15  C   UNL     1       0.182   9.247  21.550  0.00  0.00    +0.000 A 
ATOM     16  C   UNL     1       0.169  10.091  20.445  0.00  0.00    +0.000 A 
ATOM     17  C   UNL     1       0.918   9.744  19.335  0.00  0.00    +0.000 A 
ATOM     18  N   UNL     1       1.654   8.622  19.245  0.00  0.00    +0.000 NA
ENDBRANCH  12  13
ENDBRANCH  10  12
ENDBRANCH   7   8
BRANCH   5  19
ATOM     19  S   UNL     1       6.409   4.829  16.905  0.00  0.00    +0.000 S 
ATOM     20  O   UNL     1       6.301   6.241  16.550  0.00  0.00    +0.000 OA
ATOM     21  O   UNL     1       7.733   4.282  16.642  0.00  0.00    +0.000 OA
BRANCH  19  22
ATOM     22  N   UNL     1       5.326   4.106  15.996  0.00  0.00    +0.000 NA
ATOM     23  C   UNL     1       6.768   4.535  14.824  0.00  0.00    +0.000 C 
ATOM     24  C   UNL     1       7.806   6.026  15.535  0.00  0.00    +0.000 C 
ATOM     25  C   UNL     1       6.936   7.195  16.813  0.00  0.00    +0.000 C 
ATOM     26  C   UNL     1       7.915   8.058  17.597  0.00  0.00    +0.000 C 
ATOM     27  C   UNL     1       5.211   6.901  17.422  0.00  0.00    +0.000 C 
ATOM     28  C   UNL     1       4.269   5.373  16.891  0.00  0.00    +0.000 C 
ENDBRANCH  19  22
ENDBRANCH   5  19
TORSDOF 5
ENDMDL
MODEL 3
REMARK VINA RESULT:      -8.0      5.323      8.114
REMARK  Name = 
REMARK  7 active torsions:
REMARK  status: ('A' for Active; 'I' for Inactive)
REMARK    1  A    between atoms: C_1  and  C_2
REMARK    2  A    between atoms: C_5  and  S_6
REMARK    3  A    between atoms: S_6  and  N_9
REMARK    4  A    between atoms: C_12  and  C_13
REMARK    5  A    between atoms: C_17  and  C_18
REMARK    6  A    between atoms: N_20  and  C_21
REMARK    7  A    between atoms: C_21  and  C_22
REMARK                            x       y       z     vdW  Elec       q    Type
REMARK                         _______ _______ _______ _____ _____    ______ ____
ROOT
ATOM      1  C   UNL     1      -0.439  10.740  21.423  0.00  0.00    +0.000 C 
ATOM      2  C   UNL     1       0.554   9.696  20.956  0.00  0.00    +0.000 A 
ATOM      3  C   UNL     1       0.886   8.654  21.828  0.00  0.00    +0.000 A 
ATOM      4  C   UNL     1       1.561   7.477  21.397  0.00  0.00    +0.000 A 
ATOM      5  C   UNL     1       1.991   7.237  20.018  0.00  0.00    +0.000 A 
ATOM      6  C   UNL     1       1.683   8.463  19.256  0.00  0.00    +0.000 A 
ATOM      7  C   UNL     1       1.093   9.677  19.689  0.00  0.00    +0.000 A 
ENDROOT
BRANCH   7   8
ATOM      8  C   UNL     1       1.054  10.749  18.616  0.00  0.00    +0.000 C 
ATOM      9  O   UNL     1       1.991  11.536  18.489  0.00  0.00    +0.000 OA
ATOM     10  N   UNL     1      -0.093  10.980  17.904  0.00  0.00    +0.000 N 
ATOM     11  H   UNL     1      -0.036  11.748  17.244  0.00  0.00    +0.000 HD
BRANCH  10  12
ATOM     12  C   UNL     1      -1.205  10.082  17.784  0.00  0.00    +0.000 C 
BRANCH  12  13
ATOM     13  C   UNL     1      -2.526  10.623  18.223  0.00  0.00    +0.000 A 
ATOM     14  C   UNL     1      -3.693  10.164  17.614  0.00  0.00    +0.000 A 
ATOM     15  C   UNL     1      -4.881  10.825  17.886  0.00  0.00    +0.000 A 
ATOM     16  C   UNL     1      -4.865  11.905  18.763  0.00  0.00    +0.000 A 
ATOM     17  C   UNL     1      -3.664  12.270  19.344  0.00  0.00    +0.000 A 
ATOM     18  N   UNL     1      -2.493  11.654  19.104  0.00  0.00    +0.000 NA
ENDBRANCH  12  13
ENDBRANCH  10  12
ENDBRANCH   7   8
BRANCH   5  19
ATOM     19  S   UNL     1       2.329   4.973  19.235  0.00  0.00    +0.000 S 
ATOM     20  O   UNL     1       3.630   4.397  18.908  0.00  0.00    +0.000 OA
ATOM     21  O   UNL     1       1.266   3.979  19.270  0.00  0.00    +0.000 OA
BRANCH  19  22
ATOM     22  N   UNL     1       2.058   6.027  18.077  0.00  0.00    +0.000 NA
ATOM     23  C   UNL     1       1.455   4.352  17.392  0.00  0.00    +0.000 C 
ATOM     24  C   UNL     1       2.353   2.878  18.302  0.00  0.00    +0.000 C 
ATOM     25  C   UNL     1       4.043   3.257  19.172  0.00  0.00    +0.000 C 
ATOM     26  C   UNL     1       4.456   2.184  20.170  0.00  0.00    +0.000 C 
ATOM     27  C   UNL     1       4.778   4.957  19.227  0.00  0.00    +0.000 C 
ATOM     28  C   UNL     1       3.840   6.416  18.520  0.00  0.00    +0.000 C 
ENDBRANCH  19  22
ENDBRANCH   5  19
TORSDOF 5
ENDMDL
MODEL 4
REMARK VINA RESULT:      -7.6      3.415      5.136
REMARK  Name = 
REMARK  7 active torsions:
REMARK  status: ('A' for Active; 'I' for Inactive)
REMARK    1  A    between atoms: C_1  and  C_2
REMARK    2  A    between atoms: C_5  and  S_6
REMARK    3  A    between atoms: S_6  and  N_9
REMARK    4  A    between atoms: C_12  and  C_13
REMARK    5  A    between atoms: C_17  and  C_18
REMARK    6  A    between atoms: N_20  and  C_21
REMARK    7  A    between atoms: C_21  and  C_22
REMARK                            x       y       z     vdW  Elec       q    Type
REMARK                         _______ _______ _______ _____ _____    ______ ____
ROOT
ATOM      1  C   UNL     1       8.028   5.845  15.576  0.00  0.00    +0.000 C 
ATOM      2  C   UNL     1       6.793   5.856  16.455  0.00  0.00    +0.000 A 
ATOM      3  C   UNL     1       5.541   5.725  15.846  0.00  0.00    +0.000 A 
ATOM      4  C   UNL     1       4.358   5.425  16.581  0.00  0.00    +0.000 A 
ATOM      5  C   UNL     1       4.320   5.241  18.032  0.00  0.00    +0.000 A 
ATOM      6  C   UNL     1       5.676   5.530  18.535  0.00  0.00    +0.000 A 
ATOM      7  C   UNL     1       6.843   5.917  17.829  0.00  0.00    +0.000 A 
ENDROOT
BRANCH   7   8
ATOM      8  C   UNL     1       8.021   6.236  18.732  0.00  0.00    +0.000 C 
ATOM      9  O   UNL     1       8.503   5.366  19.456  0.00  0.00    +0.000 OA
ATOM     10  N   UNL     1       8.441   7.530  18.897  0.00  0.00    +0.000 N 
ATOM     11  H   UNL     1       9.203   7.647  19.555  0.00  0.00    +0.000 HD
BRANCH  10  12
ATOM     12  C   UNL     1       8.133   8.632  18.032  0.00  0.00    +0.000 C 
BRANCH  12  13
ATOM     13  C   UNL     1       8.739   9.943  18.413  0.00  0.00    +0.000 A 
ATOM     14  C   UNL     1       9.327  10.089  19.668  0.00  0.00    +0.000 A 
ATOM     15  C   UNL     1       9.693  11.361  20.079  0.00  0.00    +0.000 A 
ATOM     16  C   UNL     1       9.473  12.435  19.223  0.00  0.00    +0.000 A 
ATOM     17  C   UNL     1       8.912  12.190  17.983  0.00  0.00    +0.000 A 
ATOM     18  N   UNL     1       8.544  10.971  17.550  0.00  0.00    +0.000 NA
ENDBRANCH  12  13
ENDBRANCH  10  12
ENDBRANCH   7   8
BRANCH   5  19
ATOM     19  S   UNL     1       2.540   3.948  19.039  0.00  0.00    +0.000 S 
ATOM     20  O   UNL     1       2.085   2.648  18.554  0.00  0.00    +0.000 OA
ATOM     21  O   UNL     1       1.975   4.294  20.336  0.00  0.00    +0.000 OA
BRANCH  19  22
ATOM     22  N   UNL     1       2.048   4.979  17.934  0.00  0.00    +0.000 NA
ATOM     23  C   UNL     1       2.374   6.024  19.496  0.00  0.00    +0.000 C 
ATOM     24  C   UNL     1       2.251   4.917  21.098  0.00  0.00    +0.000 C 
ATOM     25  C   UNL     1       1.241   3.267  20.972  0.00  0.00    +0.000 C 
ATOM     26  C   UNL     1       1.530   2.300  22.112  0.00  0.00    +0.000 C 
ATOM     27  C   UNL     1       0.471   2.687  19.390  0.00  0.00    +0.000 C 
ATOM     28  C   UNL     1       0.736   3.644  17.802  0.00  0.00    +0.000 C 
ENDBRANCH  19  22
ENDBRANCH   5  19
TORSDOF 5
ENDMDL
MODEL 5
REMARK VINA RESULT:      -7.6      5.574      8.315
REMARK  Name = 
REMARK  7 active torsions:
REMARK  status: ('A' for Active; 'I' for Inactive)
REMARK    1  A    between atoms: C_1  and  C_2
REMARK    2  A    between atoms: C_5  and  S_6
REMARK    3  A    between atoms: S_6  and  N_9
REMARK    4  A    between atoms: C_12  and  C_13
REMARK    5  A    between atoms: C_17  and  C_18
REMARK    6  A    between atoms: N_20  and  C_21
REMARK    7  A    between atoms: C_21  and  C_22
REMARK                            x       y       z     vdW  Elec       q    Type
REMARK                         _______ _______ _______ _____ _____    ______ ____
ROOT
ATOM      1  C   UNL     1      -0.587  10.828  21.549  0.00  0.00    +0.000 C 
ATOM      2  C   UNL     1       0.413   9.825  21.011  0.00  0.00    +0.000 A 
ATOM      3  C   UNL     1       0.718   8.704  21.791  0.00  0.00    +0.000 A 
ATOM      4  C   UNL     1       1.399   7.568  21.269  0.00  0.00    +0.000 A 
ATOM      5  C   UNL     1       1.862   7.454  19.886  0.00  0.00    +0.000 A 
ATOM      6  C   UNL     1       1.580   8.748  19.234  0.00  0.00    +0.000 A 
ATOM      7  C   UNL     1       0.985   9.920  19.763  0.00  0.00    +0.000 A 
ENDROOT
BRANCH   7   8
ATOM      8  C   UNL     1       0.978  11.088  18.794  0.00  0.00    +0.000 C 
ATOM      9  O   UNL     1       1.914  11.886  18.775  0.00  0.00    +0.000 OA
ATOM     10  N   UNL     1      -0.144  11.381  18.065  0.00  0.00    +0.000 N 
ATOM     11  H   UNL     1      -0.068  12.207  17.481  0.00  0.00    +0.000 HD
BRANCH  10  12
ATOM     12  C   UNL     1      -1.245  10.495  17.820  0.00  0.00    +0.000 C 
BRANCH  12  13
ATOM     13  C   UNL     1      -2.601  11.120  17.854  0.00  0.00    +0.000 A 
ATOM     14  C   UNL     1      -3.002  11.829  18.985  0.00  0.00    +0.000 A 
ATOM     15  C   UNL     1      -4.329  12.219  19.080  0.00  0.00    +0.000 A 
ATOM     16  C   UNL     1      -5.200  11.903  18.043  0.00  0.00    +0.000 A 
ATOM     17  C   UNL     1      -4.705  11.224  16.944  0.00  0.00    +0.000 A 
ATOM     18  N   UNL     1      -3.425  10.829  16.817  0.00  0.00    +0.000 NA
ENDBRANCH  12  13
ENDBRANCH  10  12
ENDBRANCH   7   8
BRANCH   5  19
ATOM     19  S   UNL     1       2.211   5.271  18.904  0.00  0.00    +0.000 S 
ATOM     20  O   UNL     1       2.124   4.011  19.636  0.00  0.00    +0.000 OA
ATOM     21  O   UNL     1       2.298   5.079  17.462  0.00  0.00    +0.000 OA
BRANCH  19  22
ATOM     22  N   UNL     1       3.536   5.957  19.447  0.00  0.00    +0.000 NA
ATOM     23  C   UNL     1       4.094   4.853  17.996  0.00  0.00    +0.000 C 
ATOM     24  C   UNL     1       2.811   3.412  17.700  0.00  0.00    +0.000 C 
ATOM     25  C   UNL     1       1.654   2.925  19.177  0.00  0.00    +0.000 C 
ATOM     26  C   UNL     1       0.449   2.101  18.746  0.00  0.00    +0.000 C 
ATOM     27  C   UNL     1       1.679   3.817  20.801  0.00  0.00    +0.000 C 
ATOM     28  C   UNL     1       2.773   5.318  21.039  0.00  0.00    +0.000 C 
ENDBRANCH  19  22
ENDBRANCH   5  19
TORSDOF 5
ENDMDL
MODEL 6
REMARK VINA RESULT:      -7.5      2.988      4.584
REMARK  Name = 
REMARK  7 active torsions:
REMARK  status: ('A' for Active; 'I' for Inactive)
REMARK    1  A    between atoms: C_1  and  C_2
REMARK    2  A    between atoms: C_5  and  S_6
REMARK    3  A    between atoms: S_6  and  N_9
REMARK    4  A    between atoms: C_12  and  C_13
REMARK    5  A    between atoms: C_17  and  C_18
REMARK    6  A    between atoms: N_20  and  C_21
REMARK    7  A    between atoms: C_21  and  C_22
REMARK                            x       y       z     vdW  Elec       q    Type
REMARK                         _______ _______ _______ _____ _____    ______ ____
ROOT
ATOM      1  C   UNL     1       3.830   1.804  18.330  0.00  0.00    +0.000 C 
ATOM      2  C   UNL     1       3.353   3.237  18.206  0.00  0.00    +0.000 A 
ATOM      3  C   UNL     1       1.979   3.474  18.091  0.00  0.00    +0.000 A 
ATOM      4  C   UNL     1       1.406   4.766  18.268  0.00  0.00    +0.000 A 
ATOM      5  C   UNL     1       2.180   5.971  18.568  0.00  0.00    +0.000 A 
ATOM      6  C   UNL     1       3.603   5.584  18.535  0.00  0.00    +0.000 A 
ATOM      7  C   UNL     1       4.195   4.324  18.272  0.00  0.00    +0.000 A 
ENDROOT
BRANCH   7   8
ATOM      8  C   UNL     1       5.711   4.365  18.217  0.00  0.00    +0.000 C 
ATOM      9  O   UNL     1       6.361   4.714  19.201  0.00  0.00    +0.000 OA
ATOM     10  N   UNL     1       6.369   4.201  17.026  0.00  0.00    +0.000 N 
ATOM     11  H   UNL     1       7.377   4.292  17.082  0.00  0.00    +0.000 HD
BRANCH  10  12
ATOM     12  C   UNL     1       5.819   3.626  15.832  0.00  0.00    +0.000 C 
BRANCH  12  13
ATOM     13  C   UNL     1       6.353   4.168  14.546  0.00  0.00    +0.000 A 
ATOM     14  C   UNL     1       5.942   3.603  13.340  0.00  0.00    +0.000 A 
ATOM     15  C   UNL     1       6.602   3.977  12.181  0.00  0.00    +0.000 A 
ATOM     16  C   UNL     1       7.633   4.907  12.262  0.00  0.00    +0.000 A 
ATOM     17  C   UNL     1       7.951   5.438  13.500  0.00  0.00    +0.000 A 
ATOM     18  N   UNL     1       7.334   5.099  14.646  0.00  0.00    +0.000 NA
ENDBRANCH  12  13
ENDBRANCH  10  12
ENDBRANCH   7   8
BRANCH   5  19
ATOM     19  S   UNL     1       1.113   7.851  19.655  0.00  0.00    +0.000 S 
ATOM     20  O   UNL     1       1.008   9.189  19.080  0.00  0.00    +0.000 OA
ATOM     21  O   UNL     1       0.302   7.689  20.855  0.00  0.00    +0.000 OA
BRANCH  19  22
ATOM     22  N   UNL     1       2.653   7.687  20.006  0.00  0.00    +0.000 NA
ATOM     23  C   UNL     1       1.901   8.664  21.461  0.00  0.00    +0.000 C 
ATOM     24  C   UNL     1       0.278   9.590  20.897  0.00  0.00    +0.000 C 
ATOM     25  C   UNL     1       0.055   9.935  19.003  0.00  0.00    +0.000 C 
ATOM     26  C   UNL     1      -1.377  10.283  18.623  0.00  0.00    +0.000 C 
ATOM     27  C   UNL     1       1.275   9.359  17.733  0.00  0.00    +0.000 C 
ATOM     28  C   UNL     1       2.742   8.311  18.238  0.00  0.00    +0.000 C 
ENDBRANCH  19  22
ENDBRANCH   5  19
TORSDOF 5
ENDMDL
MODEL 7
REMARK VINA RESULT:      -7.5      5.543      7.835
REMARK  Name = 
REMARK  7 active torsions:
REMARK  status: ('A' for Active; 'I' for Inactive)
REMARK    1  A    between atoms: C_1  and  C_2
REMARK    2  A    between atoms: C_5  and  S_6
REMARK    3  A    between atoms: S_6  and  N_9
REMARK    4  A    between atoms: C_12  and  C_13
REMARK    5  A    between atoms: C_17  and  C_18
REMARK    6  A    between atoms: N_20  and  C_21
REMARK    7  A    between atoms: C_21  and  C_22
REMARK                            x       y       z     vdW  Elec       q    Type
REMARK                         _______ _______ _______ _____ _____    ______ ____
ROOT
ATOM      1  C   UNL     1      -0.464  10.794  21.660  0.00  0.00    +0.000 C 
ATOM      2  C   UNL     1       0.500   9.809  21.032  0.00  0.00    +0.000 A 
ATOM      3  C   UNL     1       1.168   8.906  21.865  0.00  0.00    +0.000 A 
ATOM      4  C   UNL     1       1.852   7.762  21.365  0.00  0.00    +0.000 A 
ATOM      5  C   UNL     1       1.945   7.418  19.945  0.00  0.00    +0.000 A 
ATOM      6  C   UNL     1       1.306   8.518  19.197  0.00  0.00    +0.000 A 
ATOM      7  C   UNL     1       0.699   9.707  19.673  0.00  0.00    +0.000 A 
ENDROOT
BRANCH   7   8
ATOM      8  C   UNL     1       0.258  10.648  18.567  0.00  0.00    +0.000 C 
ATOM      9  O   UNL     1      -0.612  10.304  17.768  0.00  0.00    +0.000 OA
ATOM     10  N   UNL     1       0.946  11.808  18.324  0.00  0.00    +0.000 N 
ATOM     11  H   UNL     1       0.605  12.346  17.535  0.00  0.00    +0.000 HD
BRANCH  10  12
ATOM     12  C   UNL     1       1.853  12.455  19.228  0.00  0.00    +0.000 C 
BRANCH  12  13
ATOM     13  C   UNL     1       2.227  13.858  18.877  0.00  0.00    +0.000 A 
ATOM     14  C   UNL     1       1.334  14.894  19.143  0.00  0.00    +0.000 A 
ATOM     15  C   UNL     1       1.609  16.149  18.624  0.00  0.00    +0.000 A 
ATOM     16  C   UNL     1       2.766  16.328  17.873  0.00  0.00    +0.000 A 
ATOM     17  C   UNL     1       3.610  15.248  17.687  0.00  0.00    +0.000 A 
ATOM     18  N   UNL     1       3.376  14.017  18.174  0.00  0.00    +0.000 NA
ENDBRANCH  12  13
ENDBRANCH  10  12
ENDBRANCH   7   8
BRANCH   5  19
ATOM     19  S   UNL     1       2.353   5.128  19.281  0.00  0.00    +0.000 S 
ATOM     20  O   UNL     1       3.675   4.559  19.039  0.00  0.00    +0.000 OA
ATOM     21  O   UNL     1       1.303   4.118  19.313  0.00  0.00    +0.000 OA
BRANCH  19  22
ATOM     22  N   UNL     1       2.119   6.124  18.066  0.00  0.00    +0.000 NA
ATOM     23  C   UNL     1       1.487   4.429  17.462  0.00  0.00    +0.000 C 
ATOM     24  C   UNL     1       2.341   2.986  18.460  0.00  0.00    +0.000 C 
ATOM     25  C   UNL     1       4.028   3.374  19.331  0.00  0.00    +0.000 C 
ATOM     26  C   UNL     1       4.406   2.347  20.389  0.00  0.00    +0.000 C 
ATOM     27  C   UNL     1       4.800   5.058  19.306  0.00  0.00    +0.000 C 
ATOM     28  C   UNL     1       3.904   6.497  18.511  0.00  0.00    +0.000 C 
ENDBRANCH  19  22
ENDBRANCH   5  19
TORSDOF 5
ENDMDL
MODEL 8
REMARK VINA RESULT:      -7.4      9.113     11.534
REMARK  Name = 
REMARK  7 active torsions:
REMARK  status: ('A' for Active; 'I' for Inactive)
REMARK    1  A    between atoms: C_1  and  C_2
REMARK    2  A    between atoms: C_5  and  S_6
REMARK    3  A    between atoms: S_6  and  N_9
REMARK    4  A    between atoms: C_12  and  C_13
REMARK    5  A    between atoms: C_17  and  C_18
REMARK    6  A    between atoms: N_20  and  C_21
REMARK    7  A    between atoms: C_21  and  C_22
REMARK                            x       y       z     vdW  Elec       q    Type
REMARK                         _______ _______ _______ _____ _____    ______ ____
ROOT
ATOM      1  C   UNL     1       1.200   8.290  20.878  0.00  0.00    +0.000 C 
ATOM      2  C   UNL     1       0.437   9.589  21.035  0.00  0.00    +0.000 A 
ATOM      3  C   UNL     1      -0.325   9.779  22.192  0.00  0.00    +0.000 A 
ATOM      4  C   UNL     1      -0.830  11.053  22.579  0.00  0.00    +0.000 A 
ATOM      5  C   UNL     1      -0.624  12.283  21.812  0.00  0.00    +0.000 A 
ATOM      6  C   UNL     1       0.082  11.901  20.574  0.00  0.00    +0.000 A 
ATOM      7  C   UNL     1       0.512  10.625  20.131  0.00  0.00    +0.000 A 
ENDROOT
BRANCH   7   8
ATOM      8  C   UNL     1       1.104  10.635  18.734  0.00  0.00    +0.000 C 
ATOM      9  O   UNL     1       2.230  11.089  18.538  0.00  0.00    +0.000 OA
ATOM     10  N   UNL     1       0.329  10.321  17.648  0.00  0.00    +0.000 N 
ATOM     11  H   UNL     1       0.800  10.402  16.753  0.00  0.00    +0.000 HD
BRANCH  10  12
ATOM     12  C   UNL     1      -0.920   9.617  17.680  0.00  0.00    +0.000 C 
BRANCH  12  13
ATOM     13  C   UNL     1      -2.137  10.445  17.424  0.00  0.00    +0.000 A 
ATOM     14  C   UNL     1      -2.769  11.084  18.488  0.00  0.00    +0.000 A 
ATOM     15  C   UNL     1      -4.005  11.669  18.264  0.00  0.00    +0.000 A 
ATOM     16  C   UNL     1      -4.557  11.610  16.989  0.00  0.00    +0.000 A 
ATOM     17  C   UNL     1      -3.842  10.981  15.985  0.00  0.00    +0.000 A 
ATOM     18  N   UNL     1      -2.642  10.402  16.165  0.00  0.00    +0.000 NA
ENDBRANCH  12  13
ENDBRANCH  10  12
ENDBRANCH   7   8
BRANCH   5  19
ATOM     19  S   UNL     1      -0.757  14.431  22.917  0.00  0.00    +0.000 S 
ATOM     20  O   UNL     1      -1.842  14.839  23.805  0.00  0.00    +0.000 OA
ATOM     21  O   UNL     1       0.367  15.357  22.940  0.00  0.00    +0.000 OA
BRANCH  19  22
ATOM     22  N   UNL     1      -1.416  14.403  21.472  0.00  0.00    +0.000 NA
ATOM     23  C   UNL     1      -0.848  16.204  21.736  0.00  0.00    +0.000 C 
ATOM     24  C   UNL     1      -0.718  16.608  23.641  0.00  0.00    +0.000 C 
ATOM     25  C   UNL     1      -1.735  15.500  24.863  0.00  0.00    +0.000 C 
ATOM     26  C   UNL     1      -1.271  15.621  26.308  0.00  0.00    +0.000 C 
ATOM     27  C   UNL     1      -2.746  14.055  24.295  0.00  0.00    +0.000 C 
ATOM     28  C   UNL     1      -2.733  13.542  22.494  0.00  0.00    +0.000 C 
ENDBRANCH  19  22
ENDBRANCH   5  19
TORSDOF 5
ENDMDL
MODEL 9
REMARK VINA RESULT:      -7.4      5.478      8.218
REMARK  Name = 
REMARK  7 active torsions:
REMARK  status: ('A' for Active; 'I' for Inactive)
REMARK    1  A    between atoms: C_1  and  C_2
REMARK    2  A    between atoms: C_5  and  S_6
REMARK    3  A    between atoms: S_6  and  N_9
REMARK    4  A    between atoms: C_12  and  C_13
REMARK    5  A    between atoms: C_17  and  C_18
REMARK    6  A    between atoms: N_20  and  C_21
REMARK    7  A    between atoms: C_21  and  C_22
REMARK                            x       y       z     vdW  Elec       q    Type
REMARK                         _______ _______ _______ _____ _____    ______ ____
ROOT
ATOM      1  C   UNL     1       1.798  12.652  19.450  0.00  0.00    +0.000 C 
ATOM      2  C   UNL     1       1.511  11.214  19.071  0.00  0.00    +0.000 A 
ATOM      3  C   UNL     1       2.212  10.653  17.999  0.00  0.00    +0.000 A 
ATOM      4  C   UNL     1       2.244   9.252  17.750  0.00  0.00    +0.000 A 
ATOM      5  C   UNL     1       1.544   8.259  18.566  0.00  0.00    +0.000 A 
ATOM      6  C   UNL     1       0.760   9.006  19.569  0.00  0.00    +0.000 A 
ATOM      7  C   UNL     1       0.647  10.404  19.774  0.00  0.00    +0.000 A 
ENDROOT
BRANCH   7   8
ATOM      8  C   UNL     1      -0.360  10.781  20.845  0.00  0.00    +0.000 C 
ATOM      9  O   UNL     1      -0.247  10.339  21.988  0.00  0.00    +0.000 OA
ATOM     10  N   UNL     1      -1.506  11.456  20.516  0.00  0.00    +0.000 N 
ATOM     11  H   UNL     1      -2.139  11.620  21.292  0.00  0.00    +0.000 HD
BRANCH  10  12
ATOM     12  C   UNL     1      -1.733  12.192  19.307  0.00  0.00    +0.000 C 
BRANCH  12  13
ATOM     13  C   UNL     1      -2.525  11.484  18.256  0.00  0.00    +0.000 A 
ATOM     14  C   UNL     1      -1.860  10.793  17.245  0.00  0.00    +0.000 A 
ATOM     15  C   UNL     1      -2.602  10.325  16.171  0.00  0.00    +0.000 A 
ATOM     16  C   UNL     1      -3.974  10.548  16.152  0.00  0.00    +0.000 A 
ATOM     17  C   UNL     1      -4.552  11.216  17.217  0.00  0.00    +0.000 A 
ATOM     18  N   UNL     1      -3.866  11.686  18.274  0.00  0.00    +0.000 NA
ENDBRANCH  12  13
ENDBRANCH  10  12
ENDBRANCH   7   8
BRANCH   5  19
ATOM     19  S   UNL     1       2.312   5.965  18.600  0.00  0.00    +0.000 S 
ATOM     20  O   UNL     1       1.930   4.979  19.607  0.00  0.00    +0.000 OA
ATOM     21  O   UNL     1       3.020   5.373  17.474  0.00  0.00    +0.000 OA
BRANCH  19  22
ATOM     22  N   UNL     1       3.259   6.978  19.374  0.00  0.00    +0.000 NA
ATOM     23  C   UNL     1       4.419   5.647  18.652  0.00  0.00    +0.000 C 
ATOM     24  C   UNL     1       3.444   3.987  18.338  0.00  0.00    +0.000 C 
ATOM     25  C   UNL     1       1.804   3.709  19.334  0.00  0.00    +0.000 C 
ATOM     26  C   UNL     1       0.926   2.613  18.746  0.00  0.00    +0.000 C 
ATOM     27  C   UNL     1       1.113   4.978  20.493  0.00  0.00    +0.000 C 
ATOM     28  C   UNL     1       1.937   6.650  20.665  0.00  0.00    +0.000 C 
ENDBRANCH  19  22
ENDBRANCH   5  19
TORSDOF 5
ENDMDL
