MODEL 1
REMARK VINA RESULT:      -7.4      0.000      0.000
REMARK  Name = 
REMARK  8 active torsions:
REMARK  status: ('A' for Active; 'I' for Inactive)
REMARK    1  A    between atoms: C_1  and  C_2
REMARK    2  A    between atoms: C_2  and  O_3
REMARK    3  A    between atoms: O_3  and  C_4
REMARK    4  A    between atoms: C_9  and  N_10
REMARK    5  A    between atoms: C_11  and  C_13
REMARK    6  A    between atoms: C_13  and  S_14
REMARK    7  A    between atoms: S_14  and  C_15
REMARK    8  A    between atoms: N_19  and  C_20
REMARK                            x       y       z     vdW  Elec       q    Type
REMARK                         _______ _______ _______ _____ _____    ______ ____
ROOT
ATOM      1  N   UNL     1       0.802   9.230  18.980  0.00  0.00    +0.000 N 
ATOM      2  C   UNL     1       1.864   9.373  18.090  0.00  0.00    +0.000 C 
ATOM      3  O   UNL     1       2.231  10.421  17.567  0.00  0.00    +0.000 OA
ATOM      4  H   UNL     1       0.810   8.409  19.590  0.00  0.00    +0.000 HD
ENDROOT
BRANCH   1  10
ATOM      5  C   UNL     1      -1.214  10.565  18.460  0.00  0.00    +0.000 A 
ATOM      6  C   UNL     1      -2.133  11.553  18.869  0.00  0.00    +0.000 A 
ATOM      7  C   UNL     1      -1.993  12.227  20.079  0.00  0.00    +0.000 A 
ATOM      8  C   UNL     1      -0.918  11.940  20.900  0.00  0.00    +0.000 A 
ATOM      9  C   UNL     1       0.002  10.964  20.519  0.00  0.00    +0.000 A 
ATOM     10  C   UNL     1      -0.137  10.244  19.321  0.00  0.00    +0.000 A 
BRANCH   5  11
ATOM     11  O   UNL     1      -1.333   9.895  17.253  0.00  0.00    +0.000 OA
BRANCH  11  13
ATOM     12  C   UNL     1      -2.817  10.368  15.354  0.00  0.00    +0.000 C 
ATOM     13  C   UNL     1      -2.680   9.799  16.752  0.00  0.00    +0.000 C 
ENDBRANCH  11  13
ENDBRANCH   5  11
ENDBRANCH   1  10
BRANCH   2  14
ATOM     14  C   UNL     1       2.616   8.087  17.778  0.00  0.00    +0.000 C 
BRANCH  14  15
ATOM     15  S   UNL     1       2.552   6.948  19.182  0.00  0.00    +0.000 S 
BRANCH  15  16
ATOM     16  C   UNL     1       2.872   5.440  18.383  0.00  0.00    +0.000 A 
ATOM     17  N   UNL     1       1.905   4.598  18.078  0.00  0.00    +0.000 NA
ATOM     18  C   UNL     1       2.493   3.658  17.285  0.00  0.00    +0.000 A 
ATOM     19  C   UNL     1       3.830   3.916  17.125  0.00  0.00    +0.000 A 
ATOM     20  N   UNL     1       4.102   5.048  17.874  0.00  0.00    +0.000 N 
BRANCH  20  21
ATOM     21  C   UNL     1       5.401   5.610  18.049  0.00  0.00    +0.000 A 
ATOM     22  C   UNL     1       6.179   5.218  19.149  0.00  0.00    +0.000 A 
ATOM     23  C   UNL     1       7.450   5.765  19.339  0.00  0.00    +0.000 A 
ATOM     24  C   UNL     1       7.943   6.716  18.450  0.00  0.00    +0.000 A 
ATOM     25  C   UNL     1       7.167   7.125  17.369  0.00  0.00    +0.000 A 
ATOM     26  C   UNL     1       5.897   6.576  17.167  0.00  0.00    +0.000 A 
ENDBRANCH  20  21
ENDBRANCH  15  16
ENDBRANCH  14  15
ENDBRANCH   2  14
TORSDOF 7
ENDMDL
MODEL 2
REMARK VINA RESULT:      -7.2      1.059      2.534
REMARK  Name = 
REMARK  8 active torsions:
REMARK  status: ('A' for Active; 'I' for Inactive)
REMARK    1  A    between atoms: C_1  and  C_2
REMARK    2  A    between atoms: C_2  and  O_3
REMARK    3  A    between atoms: O_3  and  C_4
REMARK    4  A    between atoms: C_9  and  N_10
REMARK    5  A    between atoms: C_11  and  C_13
REMARK    6  A    between atoms: C_13  and  S_14
REMARK    7  A    between atoms: S_14  and  C_15
REMARK    8  A    between atoms: N_19  and  C_20
REMARK                            x       y       z     vdW  Elec       q    Type
REMARK                         _______ _______ _______ _____ _____    ______ ____
ROOT
ATOM      1  N   UNL     1       0.617   9.179  18.574  0.00  0.00    +0.000 N 
ATOM      2  C   UNL     1       1.854   9.406  17.976  0.00  0.00    +0.000 C 
ATOM      3  O   UNL     1       2.303  10.499  17.640  0.00  0.00    +0.000 OA
ATOM      4  H   UNL     1       0.505   8.309  19.102  0.00  0.00    +0.000 HD
ENDROOT
BRANCH   1  10
ATOM      5  C   UNL     1      -0.438  10.962  19.926  0.00  0.00    +0.000 A 
ATOM      6  C   UNL     1      -1.452  11.934  20.041  0.00  0.00    +0.000 A 
ATOM      7  C   UNL     1      -2.425  12.097  19.057  0.00  0.00    +0.000 A 
ATOM      8  C   UNL     1      -2.414  11.278  17.943  0.00  0.00    +0.000 A 
ATOM      9  C   UNL     1      -1.419  10.312  17.805  0.00  0.00    +0.000 A 
ATOM     10  C   UNL     1      -0.405  10.151  18.764  0.00  0.00    +0.000 A 
BRANCH   5  11
ATOM     11  O   UNL     1       0.528  10.779  20.901  0.00  0.00    +0.000 OA
BRANCH  11  13
ATOM     12  C   UNL     1      -0.403   8.899  22.179  0.00  0.00    +0.000 C 
ATOM     13  C   UNL     1       0.017  10.355  22.179  0.00  0.00    +0.000 C 
ENDBRANCH  11  13
ENDBRANCH   5  11
ENDBRANCH   1  10
BRANCH   2  14
ATOM     14  C   UNL     1       2.695   8.159  17.749  0.00  0.00    +0.000 C 
BRANCH  14  15
ATOM     15  S   UNL     1       2.558   7.027  19.154  0.00  0.00    +0.000 S 
BRANCH  15  16
ATOM     16  C   UNL     1       2.888   5.511  18.375  0.00  0.00    +0.000 A 
ATOM     17  N   UNL     1       1.922   4.677  18.045  0.00  0.00    +0.000 NA
ATOM     18  C   UNL     1       2.524   3.726  17.276  0.00  0.00    +0.000 A 
ATOM     19  C   UNL     1       3.869   3.970  17.156  0.00  0.00    +0.000 A 
ATOM     20  N   UNL     1       4.129   5.104  17.907  0.00  0.00    +0.000 N 
BRANCH  20  21
ATOM     21  C   UNL     1       5.427   5.652  18.119  0.00  0.00    +0.000 A 
ATOM     22  C   UNL     1       5.935   6.594  17.210  0.00  0.00    +0.000 A 
ATOM     23  C   UNL     1       7.209   7.134  17.398  0.00  0.00    +0.000 A 
ATOM     24  C   UNL     1       7.990   6.727  18.477  0.00  0.00    +0.000 A 
ATOM     25  C   UNL     1       7.500   5.777  19.370  0.00  0.00    +0.000 A 
ATOM     26  C   UNL     1       6.223   5.237  19.193  0.00  0.00    +0.000 A 
ENDBRANCH  20  21
ENDBRANCH  15  16
ENDBRANCH  14  15
ENDBRANCH   2  14
TORSDOF 7
ENDMDL
MODEL 3
REMARK VINA RESULT:      -7.2      1.152      2.484
REMARK  Name = 
REMARK  8 active torsions:
REMARK  status: ('A' for Active; 'I' for Inactive)
REMARK    1  A    between atoms: C_1  and  C_2
REMARK    2  A    between atoms: C_2  and  O_3
REMARK    3  A    between atoms: O_3  and  C_4
REMARK    4  A    between atoms: C_9  and  N_10
REMARK    5  A    between atoms: C_11  and  C_13
REMARK    6  A    between atoms: C_13  and  S_14
REMARK    7  A    between atoms: S_14  and  C_15
REMARK    8  A    between atoms: N_19  and  C_20
REMARK                            x       y       z     vdW  Elec       q    Type
REMARK                         _______ _______ _______ _____ _____    ______ ____
ROOT
ATOM      1  N   UNL     1       0.690   9.124  18.598  0.00  0.00    +0.000 N 
ATOM      2  C   UNL     1       1.912   9.364  17.972  0.00  0.00    +0.000 C 
ATOM      3  O   UNL     1       2.310  10.449  17.558  0.00  0.00    +0.000 OA
ATOM      4  H   UNL     1       0.621   8.289  19.184  0.00  0.00    +0.000 HD
ENDROOT
BRANCH   1  10
ATOM      5  C   UNL     1      -0.579  10.765  19.945  0.00  0.00    +0.000 A 
ATOM      6  C   UNL     1      -1.623  11.710  20.007  0.00  0.00    +0.000 A 
ATOM      7  C   UNL     1      -2.459  11.948  18.919  0.00  0.00    +0.000 A 
ATOM      8  C   UNL     1      -2.281  11.233  17.750  0.00  0.00    +0.000 A 
ATOM      9  C   UNL     1      -1.252  10.296  17.663  0.00  0.00    +0.000 A 
ATOM     10  C   UNL     1      -0.371  10.063  18.732  0.00  0.00    +0.000 A 
BRANCH   5  11
ATOM     11  O   UNL     1       0.254  10.508  21.022  0.00  0.00    +0.000 OA
BRANCH  11  13
ATOM     12  C   UNL     1       0.029   9.498  23.249  0.00  0.00    +0.000 C 
ATOM     13  C   UNL     1      -0.383  10.613  22.310  0.00  0.00    +0.000 C 
ENDBRANCH  11  13
ENDBRANCH   5  11
ENDBRANCH   1  10
BRANCH   2  14
ATOM     14  C   UNL     1       2.805   8.141  17.822  0.00  0.00    +0.000 C 
BRANCH  14  15
ATOM     15  S   UNL     1       2.575   7.002  19.208  0.00  0.00    +0.000 S 
BRANCH  15  16
ATOM     16  C   UNL     1       2.860   5.481  18.421  0.00  0.00    +0.000 A 
ATOM     17  N   UNL     1       1.873   4.663  18.115  0.00  0.00    +0.000 NA
ATOM     18  C   UNL     1       2.441   3.702  17.332  0.00  0.00    +0.000 A 
ATOM     19  C   UNL     1       3.786   3.924  17.179  0.00  0.00    +0.000 A 
ATOM     20  N   UNL     1       4.083   5.053  17.923  0.00  0.00    +0.000 N 
BRANCH  20  21
ATOM     21  C   UNL     1       5.395   5.581  18.103  0.00  0.00    +0.000 A 
ATOM     22  C   UNL     1       6.140   5.207  19.232  0.00  0.00    +0.000 A 
ATOM     23  C   UNL     1       7.423   5.722  19.428  0.00  0.00    +0.000 A 
ATOM     24  C   UNL     1       7.962   6.624  18.514  0.00  0.00    +0.000 A 
ATOM     25  C   UNL     1       7.219   7.015  17.404  0.00  0.00    +0.000 A 
ATOM     26  C   UNL     1       5.937   6.499  17.197  0.00  0.00    +0.000 A 
ENDBRANCH  20  21
ENDBRANCH  15  16
ENDBRANCH  14  15
ENDBRANCH   2  14
TORSDOF 7
ENDMDL
MODEL 4
REMARK VINA RESULT:      -7.2      2.576      8.300
REMARK  Name = 
REMARK  8 active torsions:
REMARK  status: ('A' for Active; 'I' for Inactive)
REMARK    1  A    between atoms: C_1  and  C_2
REMARK    2  A    between atoms: C_2  and  O_3
REMARK    3  A    between atoms: O_3  and  C_4
REMARK    4  A    between atoms: C_9  and  N_10
REMARK    5  A    between atoms: C_11  and  C_13
REMARK    6  A    between atoms: C_13  and  S_14
REMARK    7  A    between atoms: S_14  and  C_15
REMARK    8  A    between atoms: N_19  and  C_20
REMARK                            x       y       z     vdW  Elec       q    Type
REMARK                         _______ _______ _______ _____ _____    ______ ____
ROOT
ATOM      1  N   UNL     1       2.120   6.631  20.267  0.00  0.00    +0.000 N 
ATOM      2  C   UNL     1       1.701   7.951  20.113  0.00  0.00    +0.000 C 
ATOM      3  O   UNL     1       1.565   8.545  19.047  0.00  0.00    +0.000 OA
ATOM      4  H   UNL     1       1.870   6.160  21.140  0.00  0.00    +0.000 HD
ENDROOT
BRANCH   1  10
ATOM      5  C   UNL     1       2.012   4.530  18.966  0.00  0.00    +0.000 A 
ATOM      6  C   UNL     1       2.513   3.756  17.901  0.00  0.00    +0.000 A 
ATOM      7  C   UNL     1       3.584   4.188  17.123  0.00  0.00    +0.000 A 
ATOM      8  C   UNL     1       4.190   5.398  17.406  0.00  0.00    +0.000 A 
ATOM      9  C   UNL     1       3.709   6.183  18.453  0.00  0.00    +0.000 A 
ATOM     10  C   UNL     1       2.607   5.789  19.229  0.00  0.00    +0.000 A 
BRANCH   5  11
ATOM     11  O   UNL     1       0.955   4.108  19.757  0.00  0.00    +0.000 OA
BRANCH  11  13
ATOM     12  C   UNL     1       1.788   2.939  21.750  0.00  0.00    +0.000 C 
ATOM     13  C   UNL     1       1.148   2.825  20.381  0.00  0.00    +0.000 C 
ENDBRANCH  11  13
ENDBRANCH   5  11
ENDBRANCH   1  10
BRANCH   2  14
ATOM     14  C   UNL     1       1.382   8.678  21.411  0.00  0.00    +0.000 C 
BRANCH  14  15
ATOM     15  S   UNL     1      -0.293   9.360  21.372  0.00  0.00    +0.000 S 
BRANCH  15  16
ATOM     16  C   UNL     1       0.041  10.998  20.902  0.00  0.00    +0.000 A 
ATOM     17  N   UNL     1       0.935  11.731  21.533  0.00  0.00    +0.000 NA
ATOM     18  C   UNL     1       1.079  12.850  20.767  0.00  0.00    +0.000 A 
ATOM     19  C   UNL     1       0.251  12.807  19.675  0.00  0.00    +0.000 A 
ATOM     20  N   UNL     1      -0.467  11.627  19.775  0.00  0.00    +0.000 N 
BRANCH  20  21
ATOM     21  C   UNL     1      -1.504  11.234  18.879  0.00  0.00    +0.000 A 
ATOM     22  C   UNL     1      -1.242  10.257  17.906  0.00  0.00    +0.000 A 
ATOM     23  C   UNL     1      -2.244   9.867  17.015  0.00  0.00    +0.000 A 
ATOM     24  C   UNL     1      -3.503  10.460  17.074  0.00  0.00    +0.000 A 
ATOM     25  C   UNL     1      -3.762  11.445  18.023  0.00  0.00    +0.000 A 
ATOM     26  C   UNL     1      -2.767  11.835  18.924  0.00  0.00    +0.000 A 
ENDBRANCH  20  21
ENDBRANCH  15  16
ENDBRANCH  14  15
ENDBRANCH   2  14
TORSDOF 7
ENDMDL
MODEL 5
REMARK VINA RESULT:      -7.2      4.428      6.584
REMARK  Name = 
REMARK  8 active torsions:
REMARK  status: ('A' for Active; 'I' for Inactive)
REMARK    1  A    between atoms: C_1  and  C_2
REMARK    2  A    between atoms: C_2  and  O_3
REMARK    3  A    between atoms: O_3  and  C_4
REMARK    4  A    between atoms: C_9  and  N_10
REMARK    5  A    between atoms: C_11  and  C_13
REMARK    6  A    between atoms: C_13  and  S_14
REMARK    7  A    between atoms: S_14  and  C_15
REMARK    8  A    between atoms: N_19  and  C_20
REMARK                            x       y       z     vdW  Elec       q    Type
REMARK                         _______ _______ _______ _____ _____    ______ ____
ROOT
ATOM      1  N   UNL     1       3.640   5.796  19.384  0.00  0.00    +0.000 N 
ATOM      2  C   UNL     1       3.097   6.352  18.227  0.00  0.00    +0.000 C 
ATOM      3  O   UNL     1       2.052   6.006  17.683  0.00  0.00    +0.000 OA
ATOM      4  H   UNL     1       4.300   6.371  19.914  0.00  0.00    +0.000 HD
ENDROOT
BRANCH   1  10
ATOM      5  C   UNL     1       3.656   3.347  19.727  0.00  0.00    +0.000 A 
ATOM      6  C   UNL     1       3.171   2.237  20.447  0.00  0.00    +0.000 A 
ATOM      7  C   UNL     1       2.208   2.375  21.444  0.00  0.00    +0.000 A 
ATOM      8  C   UNL     1       1.696   3.627  21.730  0.00  0.00    +0.000 A 
ATOM      9  C   UNL     1       2.163   4.741  21.034  0.00  0.00    +0.000 A 
ATOM     10  C   UNL     1       3.161   4.634  20.051  0.00  0.00    +0.000 A 
BRANCH   5  11
ATOM     11  O   UNL     1       4.605   3.224  18.725  0.00  0.00    +0.000 OA
BRANCH  11  13
ATOM     12  C   UNL     1       2.671   2.472  17.410  0.00  0.00    +0.000 C 
ATOM     13  C   UNL     1       4.060   3.078  17.400  0.00  0.00    +0.000 C 
ENDBRANCH  11  13
ENDBRANCH   5  11
ENDBRANCH   1  10
BRANCH   2  14
ATOM     14  C   UNL     1       3.899   7.497  17.629  0.00  0.00    +0.000 C 
BRANCH  14  15
ATOM     15  S   UNL     1       4.723   6.977  16.104  0.00  0.00    +0.000 S 
BRANCH  15  16
ATOM     16  C   UNL     1       6.072   6.098  16.755  0.00  0.00    +0.000 A 
ATOM     17  N   UNL     1       6.416   6.195  18.023  0.00  0.00    +0.000 NA
ATOM     18  C   UNL     1       7.351   5.222  18.211  0.00  0.00    +0.000 A 
ATOM     19  C   UNL     1       7.595   4.543  17.045  0.00  0.00    +0.000 A 
ATOM     20  N   UNL     1       6.804   5.135  16.075  0.00  0.00    +0.000 N 
BRANCH  20  21
ATOM     21  C   UNL     1       6.818   4.782  14.694  0.00  0.00    +0.000 A 
ATOM     22  C   UNL     1       5.934   3.799  14.224  0.00  0.00    +0.000 A 
ATOM     23  C   UNL     1       5.941   3.435  12.876  0.00  0.00    +0.000 A 
ATOM     24  C   UNL     1       6.840   4.032  11.995  0.00  0.00    +0.000 A 
ATOM     25  C   UNL     1       7.734   4.992  12.460  0.00  0.00    +0.000 A 
ATOM     26  C   UNL     1       7.727   5.368  13.806  0.00  0.00    +0.000 A 
ENDBRANCH  20  21
ENDBRANCH  15  16
ENDBRANCH  14  15
ENDBRANCH   2  14
TORSDOF 7
ENDMDL
MODEL 6
REMARK VINA RESULT:      -7.1      2.876      4.036
REMARK  Name = 
REMARK  8 active torsions:
REMARK  status: ('A' for Active; 'I' for Inactive)
REMARK    1  A    between atoms: C_1  and  C_2
REMARK    2  A    between atoms: C_2  and  O_3
REMARK    3  A    between atoms: O_3  and  C_4
REMARK    4  A    between atoms: C_9  and  N_10
REMARK    5  A    between atoms: C_11  and  C_13
REMARK    6  A    between atoms: C_13  and  S_14
REMARK    7  A    between atoms: S_14  and  C_15
REMARK    8  A    between atoms: N_19  and  C_20
REMARK                            x       y       z     vdW  Elec       q    Type
REMARK                         _______ _______ _______ _____ _____    ______ ____
ROOT
ATOM      1  N   UNL     1       2.536   6.176  20.440  0.00  0.00    +0.000 N 
ATOM      2  C   UNL     1       1.784   5.008  20.536  0.00  0.00    +0.000 C 
ATOM      3  O   UNL     1       0.737   4.772  19.939  0.00  0.00    +0.000 OA
ATOM      4  H   UNL     1       3.523   6.120  20.703  0.00  0.00    +0.000 HD
ENDROOT
BRANCH   1  10
ATOM      5  C   UNL     1       1.383   8.364  20.392  0.00  0.00    +0.000 A 
ATOM      6  C   UNL     1       1.060   9.530  19.669  0.00  0.00    +0.000 A 
ATOM      7  C   UNL     1       1.454   9.703  18.344  0.00  0.00    +0.000 A 
ATOM      8  C   UNL     1       2.165   8.703  17.707  0.00  0.00    +0.000 A 
ATOM      9  C   UNL     1       2.499   7.542  18.402  0.00  0.00    +0.000 A 
ATOM     10  C   UNL     1       2.148   7.359  19.750  0.00  0.00    +0.000 A 
BRANCH   5  11
ATOM     11  O   UNL     1       0.989   8.173  21.706  0.00  0.00    +0.000 OA
BRANCH  11  13
ATOM     12  C   UNL     1      -0.263   9.679  23.187  0.00  0.00    +0.000 C 
ATOM     13  C   UNL     1      -0.310   8.707  22.025  0.00  0.00    +0.000 C 
ENDBRANCH  11  13
ENDBRANCH   5  11
ENDBRANCH   1  10
BRANCH   2  14
ATOM     14  C   UNL     1       2.357   3.952  21.469  0.00  0.00    +0.000 C 
BRANCH  14  15
ATOM     15  S   UNL     1       3.893   3.268  20.801  0.00  0.00    +0.000 S 
BRANCH  15  16
ATOM     16  C   UNL     1       3.408   2.929  19.169  0.00  0.00    +0.000 A 
ATOM     17  N   UNL     1       2.493   2.022  18.892  0.00  0.00    +0.000 NA
ATOM     18  C   UNL     1       2.222   2.188  17.566  0.00  0.00    +0.000 A 
ATOM     19  C   UNL     1       2.991   3.187  17.028  0.00  0.00    +0.000 A 
ATOM     20  N   UNL     1       3.804   3.647  18.050  0.00  0.00    +0.000 N 
BRANCH  20  21
ATOM     21  C   UNL     1       4.820   4.635  17.892  0.00  0.00    +0.000 A 
ATOM     22  C   UNL     1       5.876   4.693  18.815  0.00  0.00    +0.000 A 
ATOM     23  C   UNL     1       6.874   5.660  18.679  0.00  0.00    +0.000 A 
ATOM     24  C   UNL     1       6.816   6.585  17.639  0.00  0.00    +0.000 A 
ATOM     25  C   UNL     1       5.760   6.546  16.733  0.00  0.00    +0.000 A 
ATOM     26  C   UNL     1       4.761   5.576  16.857  0.00  0.00    +0.000 A 
ENDBRANCH  20  21
ENDBRANCH  15  16
ENDBRANCH  14  15
ENDBRANCH   2  14
TORSDOF 7
ENDMDL
MODEL 7
REMARK VINA RESULT:      -7.1      1.014      1.014
REMARK  Name = 
REMARK  8 active torsions:
REMARK  status: ('A' for Active; 'I' for Inactive)
REMARK    1  A    between atoms: C_1  and  C_2
REMARK    2  A    between atoms: C_2  and  O_3
REMARK    3  A    between atoms: O_3  and  C_4
REMARK    4  A    between atoms: C_9  and  N_10
REMARK    5  A    between atoms: C_11  and  C_13
REMARK    6  A    between atoms: C_13  and  S_14
REMARK    7  A    between atoms: S_14  and  C_15
REMARK    8  A    between atoms: N_19  and  C_20
REMARK                            x       y       z     vdW  Elec       q    Type
REMARK                         _______ _______ _______ _____ _____    ______ ____
ROOT
ATOM      1  N   UNL     1       0.950   9.470  18.215  0.00  0.00    +0.000 N 
ATOM      2  C   UNL     1       1.554   8.621  19.140  0.00  0.00    +0.000 C 
ATOM      3  O   UNL     1       1.389   8.645  20.357  0.00  0.00    +0.000 OA
ATOM      4  H   UNL     1       0.896   9.145  17.247  0.00  0.00    +0.000 HD
ENDROOT
BRANCH   1  10
ATOM      5  C   UNL     1      -1.173  10.730  18.048  0.00  0.00    +0.000 A 
ATOM      6  C   UNL     1      -1.925  11.861  18.423  0.00  0.00    +0.000 A 
ATOM      7  C   UNL     1      -1.388  12.862  19.229  0.00  0.00    +0.000 A 
ATOM      8  C   UNL     1      -0.080  12.762  19.664  0.00  0.00    +0.000 A 
ATOM      9  C   UNL     1       0.683  11.650  19.309  0.00  0.00    +0.000 A 
ATOM     10  C   UNL     1       0.154  10.608  18.529  0.00  0.00    +0.000 A 
BRANCH   5  11
ATOM     11  O   UNL     1      -1.688   9.732  17.237  0.00  0.00    +0.000 OA
BRANCH  11  13
ATOM     12  C   UNL     1      -2.921  10.262  15.181  0.00  0.00    +0.000 C 
ATOM     13  C   UNL     1      -2.982  10.024  16.676  0.00  0.00    +0.000 C 
ENDBRANCH  11  13
ENDBRANCH   5  11
ENDBRANCH   1  10
BRANCH   2  14
ATOM     14  C   UNL     1       2.484   7.578  18.540  0.00  0.00    +0.000 C 
BRANCH  14  15
ATOM     15  S   UNL     1       2.696   6.180  19.668  0.00  0.00    +0.000 S 
BRANCH  15  16
ATOM     16  C   UNL     1       3.093   4.919  18.543  0.00  0.00    +0.000 A 
ATOM     17  N   UNL     1       2.205   4.022  18.165  0.00  0.00    +0.000 NA
ATOM     18  C   UNL     1       2.797   3.349  17.138  0.00  0.00    +0.000 A 
ATOM     19  C   UNL     1       4.061   3.825  16.902  0.00  0.00    +0.000 A 
ATOM     20  N   UNL     1       4.286   4.817  17.843  0.00  0.00    +0.000 N 
BRANCH  20  21
ATOM     21  C   UNL     1       5.519   5.515  18.000  0.00  0.00    +0.000 A 
ATOM     22  C   UNL     1       6.390   5.152  19.040  0.00  0.00    +0.000 A 
ATOM     23  C   UNL     1       7.597   5.832  19.214  0.00  0.00    +0.000 A 
ATOM     24  C   UNL     1       7.934   6.888  18.370  0.00  0.00    +0.000 A 
ATOM     25  C   UNL     1       7.064   7.267  17.351  0.00  0.00    +0.000 A 
ATOM     26  C   UNL     1       5.858   6.586  17.165  0.00  0.00    +0.000 A 
ENDBRANCH  20  21
ENDBRANCH  15  16
ENDBRANCH  14  15
ENDBRANCH   2  14
TORSDOF 7
ENDMDL
MODEL 8
REMARK VINA RESULT:      -7.0      3.884      7.351
REMARK  Name = 
REMARK  8 active torsions:
REMARK  status: ('A' for Active; 'I' for Inactive)
REMARK    1  A    between atoms: C_1  and  C_2
REMARK    2  A    between atoms: C_2  and  O_3
REMARK    3  A    between atoms: O_3  and  C_4
REMARK    4  A    between atoms: C_9  and  N_10
REMARK    5  A    between atoms: C_11  and  C_13
REMARK    6  A    between atoms: C_13  and  S_14
REMARK    7  A    between atoms: S_14  and  C_15
REMARK    8  A    between atoms: N_19  and  C_20
REMARK                            x       y       z     vdW  Elec       q    Type
REMARK                         _______ _______ _______ _____ _____    ______ ____
ROOT
ATOM      1  N   UNL     1       5.099   4.066  17.617  0.00  0.00    +0.000 N 
ATOM      2  C   UNL     1       4.683   3.056  18.483  0.00  0.00    +0.000 C 
ATOM      3  O   UNL     1       5.040   2.912  19.648  0.00  0.00    +0.000 OA
ATOM      4  H   UNL     1       4.495   4.277  16.819  0.00  0.00    +0.000 HD
ENDROOT
BRANCH   1  10
ATOM      5  C   UNL     1       6.579   5.905  16.879  0.00  0.00    +0.000 A 
ATOM      6  C   UNL     1       7.569   6.851  17.212  0.00  0.00    +0.000 A 
ATOM      7  C   UNL     1       8.119   6.915  18.490  0.00  0.00    +0.000 A 
ATOM      8  C   UNL     1       7.702   6.021  19.459  0.00  0.00    +0.000 A 
ATOM      9  C   UNL     1       6.721   5.079  19.154  0.00  0.00    +0.000 A 
ATOM     10  C   UNL     1       6.123   5.017  17.884  0.00  0.00    +0.000 A 
BRANCH   5  11
ATOM     11  O   UNL     1       6.032   5.821  15.609  0.00  0.00    +0.000 OA
BRANCH  11  13
ATOM     12  C   UNL     1       6.005   3.966  13.999  0.00  0.00    +0.000 C 
ATOM     13  C   UNL     1       6.813   5.059  14.669  0.00  0.00    +0.000 C 
ENDBRANCH  11  13
ENDBRANCH   5  11
ENDBRANCH   1  10
BRANCH   2  14
ATOM     14  C   UNL     1       3.685   2.074  17.887  0.00  0.00    +0.000 C 
BRANCH  14  15
ATOM     15  S   UNL     1       2.013   2.763  17.909  0.00  0.00    +0.000 S 
BRANCH  15  16
ATOM     16  C   UNL     1       1.811   3.057  19.608  0.00  0.00    +0.000 A 
ATOM     17  N   UNL     1       1.640   2.072  20.467  0.00  0.00    +0.000 NA
ATOM     18  C   UNL     1       1.739   2.653  21.696  0.00  0.00    +0.000 A 
ATOM     19  C   UNL     1       1.949   4.003  21.585  0.00  0.00    +0.000 A 
ATOM     20  N   UNL     1       1.951   4.289  20.230  0.00  0.00    +0.000 N 
BRANCH  20  21
ATOM     21  C   UNL     1       2.056   5.601  19.681  0.00  0.00    +0.000 A 
ATOM     22  C   UNL     1       1.792   6.713  20.496  0.00  0.00    +0.000 A 
ATOM     23  C   UNL     1       1.882   8.004  19.971  0.00  0.00    +0.000 A 
ATOM     24  C   UNL     1       2.213   8.193  18.631  0.00  0.00    +0.000 A 
ATOM     25  C   UNL     1       2.454   7.093  17.813  0.00  0.00    +0.000 A 
ATOM     26  C   UNL     1       2.374   5.798  18.333  0.00  0.00    +0.000 A 
ENDBRANCH  20  21
ENDBRANCH  15  16
ENDBRANCH  14  15
ENDBRANCH   2  14
TORSDOF 7
ENDMDL
MODEL 9
REMARK VINA RESULT:      -7.0      1.626      3.231
REMARK  Name = 
REMARK  8 active torsions:
REMARK  status: ('A' for Active; 'I' for Inactive)
REMARK    1  A    between atoms: C_1  and  C_2
REMARK    2  A    between atoms: C_2  and  O_3
REMARK    3  A    between atoms: O_3  and  C_4
REMARK    4  A    between atoms: C_9  and  N_10
REMARK    5  A    between atoms: C_11  and  C_13
REMARK    6  A    between atoms: C_13  and  S_14
REMARK    7  A    between atoms: S_14  and  C_15
REMARK    8  A    between atoms: N_19  and  C_20
REMARK                            x       y       z     vdW  Elec       q    Type
REMARK                         _______ _______ _______ _____ _____    ______ ____
ROOT
ATOM      1  N   UNL     1       0.464   9.737  18.662  0.00  0.00    +0.000 N 
ATOM      2  C   UNL     1       1.701  10.145  18.168  0.00  0.00    +0.000 C 
ATOM      3  O   UNL     1       2.081  11.306  18.043  0.00  0.00    +0.000 OA
ATOM      4  H   UNL     1       0.398   8.784  19.029  0.00  0.00    +0.000 HD
ENDROOT
BRANCH   1  10
ATOM      5  C   UNL     1      -1.720  10.736  18.072  0.00  0.00    +0.000 A 
ATOM      6  C   UNL     1      -2.794  11.569  18.444  0.00  0.00    +0.000 A 
ATOM      7  C   UNL     1      -2.797  12.264  19.651  0.00  0.00    +0.000 A 
ATOM      8  C   UNL     1      -1.715  12.155  20.504  0.00  0.00    +0.000 A 
ATOM      9  C   UNL     1      -0.642  11.334  20.159  0.00  0.00    +0.000 A 
ATOM     10  C   UNL     1      -0.631  10.593  18.966  0.00  0.00    +0.000 A 
BRANCH   5  11
ATOM     11  O   UNL     1      -1.698  10.047  16.870  0.00  0.00    +0.000 OA
BRANCH  11  13
ATOM     12  C   UNL     1      -3.008  10.160  14.795  0.00  0.00    +0.000 C 
ATOM     13  C   UNL     1      -2.993   9.836  16.276  0.00  0.00    +0.000 C 
ENDBRANCH  11  13
ENDBRANCH   5  11
ENDBRANCH   1  10
BRANCH   2  14
ATOM     14  C   UNL     1       2.638   9.013  17.772  0.00  0.00    +0.000 C 
BRANCH  14  15
ATOM     15  S   UNL     1       2.412   7.583  18.856  0.00  0.00    +0.000 S 
BRANCH  15  16
ATOM     16  C   UNL     1       3.396   6.407  18.042  0.00  0.00    +0.000 A 
ATOM     17  N   UNL     1       4.281   6.756  17.130  0.00  0.00    +0.000 NA
ATOM     18  C   UNL     1       4.997   5.623  16.881  0.00  0.00    +0.000 A 
ATOM     19  C   UNL     1       4.531   4.573  17.630  0.00  0.00    +0.000 A 
ATOM     20  N   UNL     1       3.456   5.057  18.356  0.00  0.00    +0.000 N 
BRANCH  20  21
ATOM     21  C   UNL     1       2.630   4.262  19.203  0.00  0.00    +0.000 A 
ATOM     22  C   UNL     1       2.906   4.204  20.578  0.00  0.00    +0.000 A 
ATOM     23  C   UNL     1       2.111   3.423  21.421  0.00  0.00    +0.000 A 
ATOM     24  C   UNL     1       1.054   2.683  20.898  0.00  0.00    +0.000 A 
ATOM     25  C   UNL     1       0.789   2.720  19.532  0.00  0.00    +0.000 A 
ATOM     26  C   UNL     1       1.574   3.505  18.683  0.00  0.00    +0.000 A 
ENDBRANCH  20  21
ENDBRANCH  15  16
ENDBRANCH  14  15
ENDBRANCH   2  14
TORSDOF 7
ENDMDL
