MODEL 1
REMARK VINA RESULT:      -8.2      0.000      0.000
REMARK  Name = 
REMARK  8 active torsions:
REMARK  status: ('A' for Active; 'I' for Inactive)
REMARK    1  A    between atoms: C_1  and  C_2
REMARK    2  A    between atoms: C_4  and  N_5
REMARK    3  A    between atoms: C_9  and  O_10
REMARK    4  A    between atoms: C_9  and  C_11
REMARK    5  A    between atoms: C_11  and  N_12
REMARK    6  A    between atoms: N_12  and  C_13
REMARK    7  A    between atoms: N_12  and  C_14
REMARK    8  A    between atoms: C_18  and  C_19
REMARK                            x       y       z     vdW  Elec       q    Type
REMARK                         _______ _______ _______ _____ _____    ______ ____
ROOT
ATOM      1  C   UNL     1       1.821   3.321  21.289  0.00  0.00    +0.000 C 
ATOM      2  C   UNL     1       2.316   4.442  20.431  0.00  0.00    +0.000 A 
ATOM      3  C   UNL     1       1.779   5.705  20.533  0.00  0.00    +0.000 A 
ATOM      4  C   UNL     1       2.322   6.718  19.759  0.00  0.00    +0.000 A 
ATOM      5  N   UNL     1       3.347   6.456  18.927  0.00  0.00    +0.000 NA
ATOM      6  C   UNL     1       3.797   5.185  18.852  0.00  0.00    +0.000 A 
ATOM      7  N   UNL     1       3.318   4.163  19.585  0.00  0.00    +0.000 NA
ENDROOT
BRANCH   4   8
ATOM      8  N   UNL     1       1.837   8.016  19.864  0.00  0.00    +0.000 N 
ATOM      9  C   UNL     1       1.253   8.471  21.118  0.00  0.00    +0.000 C 
ATOM     10  C   UNL     1      -0.149   9.054  20.881  0.00  0.00    +0.000 C 
ATOM     11  C   UNL     1      -0.140  10.373  20.104  0.00  0.00    +0.000 C 
ATOM     12  C   UNL     1      -0.125  10.269  18.555  0.00  0.00    +0.000 C 
ATOM     13  C   UNL     1       0.815   9.191  17.989  0.00  0.00    +0.000 C 
ATOM     14  C   UNL     1       2.088   9.000  18.810  0.00  0.00    +0.000 C 
BRANCH  12  15
ATOM     15  O   UNL     1       0.379  11.546  18.111  0.00  0.00    +0.000 OA
ATOM     16  H   UNL     1       0.225  11.608  17.153  0.00  0.00    +0.000 HD
ENDBRANCH  12  15
BRANCH  12  17
ATOM     17  C   UNL     1      -1.590  10.059  18.024  0.00  0.00    +0.000 C 
BRANCH  17  18
ATOM     18  N   UNL     1      -2.317  11.237  17.488  0.00  0.00    +0.000 NA
ATOM     19  C   UNL     1      -2.685  10.991  16.088  0.00  0.00    +0.000 C 
ATOM     20  C   UNL     1      -3.519  11.569  18.255  0.00  0.00    +0.000 C 
ENDBRANCH  17  18
ENDBRANCH  12  17
ENDBRANCH   4   8
BRANCH   6  21
ATOM     21  C   UNL     1       4.900   4.872  17.915  0.00  0.00    +0.000 A 
ATOM     22  C   UNL     1       4.663   4.430  16.602  0.00  0.00    +0.000 A 
ATOM     23  C   UNL     1       5.716   4.145  15.725  0.00  0.00    +0.000 A 
ATOM     24  C   UNL     1       7.036   4.292  16.141  0.00  0.00    +0.000 A 
ATOM     25  C   UNL     1       7.305   4.722  17.436  0.00  0.00    +0.000 A 
ATOM     26  C   UNL     1       6.250   5.006  18.309  0.00  0.00    +0.000 A 
ENDBRANCH   6  21
TORSDOF 5
ENDMDL
MODEL 2
REMARK VINA RESULT:      -8.1      0.310      1.006
REMARK  Name = 
REMARK  8 active torsions:
REMARK  status: ('A' for Active; 'I' for Inactive)
REMARK    1  A    between atoms: C_1  and  C_2
REMARK    2  A    between atoms: C_4  and  N_5
REMARK    3  A    between atoms: C_9  and  O_10
REMARK    4  A    between atoms: C_9  and  C_11
REMARK    5  A    between atoms: C_11  and  N_12
REMARK    6  A    between atoms: N_12  and  C_13
REMARK    7  A    between atoms: N_12  and  C_14
REMARK    8  A    between atoms: C_18  and  C_19
REMARK                            x       y       z     vdW  Elec       q    Type
REMARK                         _______ _______ _______ _____ _____    ______ ____
ROOT
ATOM      1  C   UNL     1       1.806   3.487  21.323  0.00  0.00    +0.000 C 
ATOM      2  C   UNL     1       2.296   4.610  20.464  0.00  0.00    +0.000 A 
ATOM      3  C   UNL     1       1.734   5.864  20.545  0.00  0.00    +0.000 A 
ATOM      4  C   UNL     1       2.272   6.879  19.772  0.00  0.00    +0.000 A 
ATOM      5  N   UNL     1       3.317   6.631  18.961  0.00  0.00    +0.000 NA
ATOM      6  C   UNL     1       3.793   5.368  18.907  0.00  0.00    +0.000 A 
ATOM      7  N   UNL     1       3.319   4.343  19.640  0.00  0.00    +0.000 NA
ENDROOT
BRANCH   4   8
ATOM      8  N   UNL     1       1.760   8.169  19.855  0.00  0.00    +0.000 N 
ATOM      9  C   UNL     1       1.255   8.666  21.128  0.00  0.00    +0.000 C 
ATOM     10  C   UNL     1      -0.176   9.203  20.968  0.00  0.00    +0.000 C 
ATOM     11  C   UNL     1      -0.258  10.486  20.137  0.00  0.00    +0.000 C 
ATOM     12  C   UNL     1      -0.351  10.313  18.596  0.00  0.00    +0.000 C 
ATOM     13  C   UNL     1       0.575   9.234  18.010  0.00  0.00    +0.000 C 
ATOM     14  C   UNL     1       1.908   9.111  18.744  0.00  0.00    +0.000 C 
BRANCH  12  15
ATOM     15  O   UNL     1       0.084  11.581  18.062  0.00  0.00    +0.000 OA
ATOM     16  H   UNL     1      -0.640  11.939  17.522  0.00  0.00    +0.000 HD
ENDBRANCH  12  15
BRANCH  12  17
ATOM     17  C   UNL     1      -1.844  10.044  18.183  0.00  0.00    +0.000 C 
BRANCH  17  18
ATOM     18  N   UNL     1      -2.470  10.950  17.187  0.00  0.00    +0.000 NA
ATOM     19  C   UNL     1      -2.527  10.281  15.881  0.00  0.00    +0.000 C 
ATOM     20  C   UNL     1      -3.815  11.383  17.571  0.00  0.00    +0.000 C 
ENDBRANCH  17  18
ENDBRANCH  12  17
ENDBRANCH   4   8
BRANCH   6  21
ATOM     21  C   UNL     1       4.919   5.068  17.994  0.00  0.00    +0.000 A 
ATOM     22  C   UNL     1       6.256   5.062  18.433  0.00  0.00    +0.000 A 
ATOM     23  C   UNL     1       7.310   4.769  17.559  0.00  0.00    +0.000 A 
ATOM     24  C   UNL     1       7.054   4.477  16.222  0.00  0.00    +0.000 A 
ATOM     25  C   UNL     1       5.744   4.480  15.756  0.00  0.00    +0.000 A 
ATOM     26  C   UNL     1       4.694   4.772  16.632  0.00  0.00    +0.000 A 
ENDBRANCH   6  21
TORSDOF 5
ENDMDL
MODEL 3
REMARK VINA RESULT:      -7.6      3.292      5.654
REMARK  Name = 
REMARK  8 active torsions:
REMARK  status: ('A' for Active; 'I' for Inactive)
REMARK    1  A    between atoms: C_1  and  C_2
REMARK    2  A    between atoms: C_4  and  N_5
REMARK    3  A    between atoms: C_9  and  O_10
REMARK    4  A    between atoms: C_9  and  C_11
REMARK    5  A    between atoms: C_11  and  N_12
REMARK    6  A    between atoms: N_12  and  C_13
REMARK    7  A    between atoms: N_12  and  C_14
REMARK    8  A    between atoms: C_18  and  C_19
REMARK                            x       y       z     vdW  Elec       q    Type
REMARK                         _______ _______ _______ _____ _____    ______ ____
ROOT
ATOM      1  C   UNL     1       7.866   7.362  17.776  0.00  0.00    +0.000 C 
ATOM      2  C   UNL     1       6.972   6.301  17.215  0.00  0.00    +0.000 A 
ATOM      3  C   UNL     1       5.958   5.754  17.969  0.00  0.00    +0.000 A 
ATOM      4  C   UNL     1       5.122   4.824  17.375  0.00  0.00    +0.000 A 
ATOM      5  N   UNL     1       5.312   4.466  16.091  0.00  0.00    +0.000 NA
ATOM      6  C   UNL     1       6.349   5.017  15.425  0.00  0.00    +0.000 A 
ATOM      7  N   UNL     1       7.188   5.933  15.944  0.00  0.00    +0.000 NA
ENDROOT
BRANCH   4   8
ATOM      8  N   UNL     1       4.061   4.279  18.089  0.00  0.00    +0.000 N 
ATOM      9  C   UNL     1       2.904   3.755  17.378  0.00  0.00    +0.000 C 
ATOM     10  C   UNL     1       1.609   4.386  17.913  0.00  0.00    +0.000 C 
ATOM     11  C   UNL     1       1.259   3.949  19.338  0.00  0.00    +0.000 C 
ATOM     12  C   UNL     1       1.910   4.755  20.494  0.00  0.00    +0.000 C 
ATOM     13  C   UNL     1       3.393   5.105  20.283  0.00  0.00    +0.000 C 
ATOM     14  C   UNL     1       4.171   4.030  19.528  0.00  0.00    +0.000 C 
BRANCH  12  15
ATOM     15  O   UNL     1       1.841   3.873  21.635  0.00  0.00    +0.000 OA
ATOM     16  H   UNL     1       0.996   4.038  22.085  0.00  0.00    +0.000 HD
ENDBRANCH  12  15
BRANCH  12  17
ATOM     17  C   UNL     1       1.069   6.054  20.773  0.00  0.00    +0.000 C 
BRANCH  17  18
ATOM     18  N   UNL     1       1.769   7.362  20.749  0.00  0.00    +0.000 NA
ATOM     19  C   UNL     1       1.907   7.820  19.361  0.00  0.00    +0.000 C 
ATOM     20  C   UNL     1       1.088   8.392  21.536  0.00  0.00    +0.000 C 
ENDBRANCH  17  18
ENDBRANCH  12  17
ENDBRANCH   4   8
BRANCH   6  21
ATOM     21  C   UNL     1       6.595   4.610  14.023  0.00  0.00    +0.000 A 
ATOM     22  C   UNL     1       5.857   3.586  13.402  0.00  0.00    +0.000 A 
ATOM     23  C   UNL     1       6.096   3.217  12.072  0.00  0.00    +0.000 A 
ATOM     24  C   UNL     1       7.081   3.861  11.330  0.00  0.00    +0.000 A 
ATOM     25  C   UNL     1       7.832   4.874  11.917  0.00  0.00    +0.000 A 
ATOM     26  C   UNL     1       7.591   5.240  13.245  0.00  0.00    +0.000 A 
ENDBRANCH   6  21
TORSDOF 5
ENDMDL
MODEL 4
REMARK VINA RESULT:      -7.5      3.410      5.719
REMARK  Name = 
REMARK  8 active torsions:
REMARK  status: ('A' for Active; 'I' for Inactive)
REMARK    1  A    between atoms: C_1  and  C_2
REMARK    2  A    between atoms: C_4  and  N_5
REMARK    3  A    between atoms: C_9  and  O_10
REMARK    4  A    between atoms: C_9  and  C_11
REMARK    5  A    between atoms: C_11  and  N_12
REMARK    6  A    between atoms: N_12  and  C_13
REMARK    7  A    between atoms: N_12  and  C_14
REMARK    8  A    between atoms: C_18  and  C_19
REMARK                            x       y       z     vdW  Elec       q    Type
REMARK                         _______ _______ _______ _____ _____    ______ ____
ROOT
ATOM      1  C   UNL     1       8.178   6.375  18.591  0.00  0.00    +0.000 C 
ATOM      2  C   UNL     1       7.175   5.583  17.811  0.00  0.00    +0.000 A 
ATOM      3  C   UNL     1       6.056   5.060  18.418  0.00  0.00    +0.000 A 
ATOM      4  C   UNL     1       5.131   4.392  17.633  0.00  0.00    +0.000 A 
ATOM      5  N   UNL     1       5.338   4.261  16.308  0.00  0.00    +0.000 NA
ATOM      6  C   UNL     1       6.477   4.768  15.790  0.00  0.00    +0.000 A 
ATOM      7  N   UNL     1       7.407   5.435  16.499  0.00  0.00    +0.000 NA
ENDROOT
BRANCH   4   8
ATOM      8  N   UNL     1       3.968   3.886  18.199  0.00  0.00    +0.000 N 
ATOM      9  C   UNL     1       2.856   3.497  17.342  0.00  0.00    +0.000 C 
ATOM     10  C   UNL     1       1.560   4.190  17.792  0.00  0.00    +0.000 C 
ATOM     11  C   UNL     1       1.036   3.690  19.141  0.00  0.00    +0.000 C 
ATOM     12  C   UNL     1       1.619   4.369  20.410  0.00  0.00    +0.000 C 
ATOM     13  C   UNL     1       3.136   4.618  20.371  0.00  0.00    +0.000 C 
ATOM     14  C   UNL     1       3.912   3.538  19.620  0.00  0.00    +0.000 C 
BRANCH  12  15
ATOM     15  O   UNL     1       1.373   3.423  21.473  0.00  0.00    +0.000 OA
ATOM     16  H   UNL     1       0.422   3.447  21.675  0.00  0.00    +0.000 HD
ENDBRANCH  12  15
BRANCH  12  17
ATOM     17  C   UNL     1       0.846   5.707  20.697  0.00  0.00    +0.000 C 
BRANCH  17  18
ATOM     18  N   UNL     1       1.629   6.964  20.793  0.00  0.00    +0.000 NA
ATOM     19  C   UNL     1       2.057   7.380  19.452  0.00  0.00    +0.000 C 
ATOM     20  C   UNL     1       0.889   8.056  21.428  0.00  0.00    +0.000 C 
ENDBRANCH  17  18
ENDBRANCH  12  17
ENDBRANCH   4   8
BRANCH   6  21
ATOM     21  C   UNL     1       6.738   4.602  14.342  0.00  0.00    +0.000 A 
ATOM     22  C   UNL     1       7.668   5.401  13.653  0.00  0.00    +0.000 A 
ATOM     23  C   UNL     1       7.909   5.227  12.285  0.00  0.00    +0.000 A 
ATOM     24  C   UNL     1       7.224   4.249  11.570  0.00  0.00    +0.000 A 
ATOM     25  C   UNL     1       6.294   3.446  12.220  0.00  0.00    +0.000 A 
ATOM     26  C   UNL     1       6.056   3.622  13.586  0.00  0.00    +0.000 A 
ENDBRANCH   6  21
TORSDOF 5
ENDMDL
MODEL 5
REMARK VINA RESULT:      -7.4      0.944      1.381
REMARK  Name = 
REMARK  8 active torsions:
REMARK  status: ('A' for Active; 'I' for Inactive)
REMARK    1  A    between atoms: C_1  and  C_2
REMARK    2  A    between atoms: C_4  and  N_5
REMARK    3  A    between atoms: C_9  and  O_10
REMARK    4  A    between atoms: C_9  and  C_11
REMARK    5  A    between atoms: C_11  and  N_12
REMARK    6  A    between atoms: N_12  and  C_13
REMARK    7  A    between atoms: N_12  and  C_14
REMARK    8  A    between atoms: C_18  and  C_19
REMARK                            x       y       z     vdW  Elec       q    Type
REMARK                         _______ _______ _______ _____ _____    ______ ____
ROOT
ATOM      1  C   UNL     1       1.882   2.911  19.647  0.00  0.00    +0.000 C 
ATOM      2  C   UNL     1       2.428   4.169  19.049  0.00  0.00    +0.000 A 
ATOM      3  C   UNL     1       1.948   5.402  19.429  0.00  0.00    +0.000 A 
ATOM      4  C   UNL     1       2.537   6.534  18.890  0.00  0.00    +0.000 A 
ATOM      5  N   UNL     1       3.550   6.416  18.010  0.00  0.00    +0.000 NA
ATOM      6  C   UNL     1       3.942   5.173  17.657  0.00  0.00    +0.000 A 
ATOM      7  N   UNL     1       3.417   4.038  18.154  0.00  0.00    +0.000 NA
ENDROOT
BRANCH   4   8
ATOM      8  N   UNL     1       2.110   7.798  19.279  0.00  0.00    +0.000 N 
ATOM      9  C   UNL     1       1.726   8.038  20.663  0.00  0.00    +0.000 C 
ATOM     10  C   UNL     1       0.322   8.659  20.733  0.00  0.00    +0.000 C 
ATOM     11  C   UNL     1       0.260  10.091  20.194  0.00  0.00    +0.000 C 
ATOM     12  C   UNL     1       0.050  10.251  18.664  0.00  0.00    +0.000 C 
ATOM     13  C   UNL     1       0.867   9.280  17.795  0.00  0.00    +0.000 C 
ATOM     14  C   UNL     1       2.238   8.946  18.378  0.00  0.00    +0.000 C 
BRANCH  12  15
ATOM     15  O   UNL     1       0.523  11.583  18.371  0.00  0.00    +0.000 OA
ATOM     16  H   UNL     1      -0.250  12.170  18.337  0.00  0.00    +0.000 HD
ENDBRANCH  12  15
BRANCH  12  17
ATOM     17  C   UNL     1      -1.481  10.143  18.325  0.00  0.00    +0.000 C 
BRANCH  17  18
ATOM     18  N   UNL     1      -2.152  11.322  17.723  0.00  0.00    +0.000 NA
ATOM     19  C   UNL     1      -2.573  11.001  16.353  0.00  0.00    +0.000 C 
ATOM     20  C   UNL     1      -3.309  11.780  18.493  0.00  0.00    +0.000 C 
ENDBRANCH  17  18
ENDBRANCH  12  17
ENDBRANCH   4   8
BRANCH   6  21
ATOM     21  C   UNL     1       5.030   5.023  16.664  0.00  0.00    +0.000 A 
ATOM     22  C   UNL     1       6.310   5.568  16.871  0.00  0.00    +0.000 A 
ATOM     23  C   UNL     1       7.332   5.412  15.926  0.00  0.00    +0.000 A 
ATOM     24  C   UNL     1       7.098   4.708  14.748  0.00  0.00    +0.000 A 
ATOM     25  C   UNL     1       5.842   4.162  14.511  0.00  0.00    +0.000 A 
ATOM     26  C   UNL     1       4.824   4.319  15.457  0.00  0.00    +0.000 A 
ENDBRANCH   6  21
TORSDOF 5
ENDMDL
MODEL 6
REMARK VINA RESULT:      -7.2      1.726      3.461
REMARK  Name = 
REMARK  8 active torsions:
REMARK  status: ('A' for Active; 'I' for Inactive)
REMARK    1  A    between atoms: C_1  and  C_2
REMARK    2  A    between atoms: C_4  and  N_5
REMARK    3  A    between atoms: C_9  and  O_10
REMARK    4  A    between atoms: C_9  and  C_11
REMARK    5  A    between atoms: C_11  and  N_12
REMARK    6  A    between atoms: N_12  and  C_13
REMARK    7  A    between atoms: N_12  and  C_14
REMARK    8  A    between atoms: C_18  and  C_19
REMARK                            x       y       z     vdW  Elec       q    Type
REMARK                         _______ _______ _______ _____ _____    ______ ____
ROOT
ATOM      1  C   UNL     1       4.803   6.669  16.305  0.00  0.00    +0.000 C 
ATOM      2  C   UNL     1       3.880   6.741  17.481  0.00  0.00    +0.000 A 
ATOM      3  C   UNL     1       3.209   7.903  17.786  0.00  0.00    +0.000 A 
ATOM      4  C   UNL     1       2.319   7.891  18.847  0.00  0.00    +0.000 A 
ATOM      5  N   UNL     1       2.129   6.763  19.558  0.00  0.00    +0.000 NA
ATOM      6  C   UNL     1       2.850   5.672  19.223  0.00  0.00    +0.000 A 
ATOM      7  N   UNL     1       3.721   5.620  18.198  0.00  0.00    +0.000 NA
ENDROOT
BRANCH   4   8
ATOM      8  N   UNL     1       1.590   9.032  19.163  0.00  0.00    +0.000 N 
ATOM      9  C   UNL     1       1.126   9.239  20.528  0.00  0.00    +0.000 C 
ATOM     10  C   UNL     1      -0.387   9.504  20.550  0.00  0.00    +0.000 C 
ATOM     11  C   UNL     1      -0.782  10.849  19.933  0.00  0.00    +0.000 C 
ATOM     12  C   UNL     1      -0.987  10.877  18.394  0.00  0.00    +0.000 C 
ATOM     13  C   UNL     1       0.060  10.091  17.588  0.00  0.00    +0.000 C 
ATOM     14  C   UNL     1       1.457  10.130  18.203  0.00  0.00    +0.000 C 
BRANCH  12  15
ATOM     15  O   UNL     1      -0.844  12.268  18.035  0.00  0.00    +0.000 OA
ATOM     16  H   UNL     1      -0.579  12.305  17.100  0.00  0.00    +0.000 HD
ENDBRANCH  12  15
BRANCH  12  17
ATOM     17  C   UNL     1      -2.439  10.383  18.045  0.00  0.00    +0.000 C 
BRANCH  17  18
ATOM     18  N   UNL     1      -3.107  10.957  16.851  0.00  0.00    +0.000 NA
ATOM     19  C   UNL     1      -3.121   9.964  15.770  0.00  0.00    +0.000 C 
ATOM     20  C   UNL     1      -4.475  11.405  17.118  0.00  0.00    +0.000 C 
ENDBRANCH  17  18
ENDBRANCH  12  17
ENDBRANCH   4   8
BRANCH   6  21
ATOM     21  C   UNL     1       2.680   4.433  20.015  0.00  0.00    +0.000 A 
ATOM     22  C   UNL     1       3.646   3.411  20.021  0.00  0.00    +0.000 A 
ATOM     23  C   UNL     1       3.475   2.248  20.781  0.00  0.00    +0.000 A 
ATOM     24  C   UNL     1       2.331   2.077  21.555  0.00  0.00    +0.000 A 
ATOM     25  C   UNL     1       1.354   3.066  21.567  0.00  0.00    +0.000 A 
ATOM     26  C   UNL     1       1.529   4.226  20.807  0.00  0.00    +0.000 A 
ENDBRANCH   6  21
TORSDOF 5
ENDMDL
MODEL 7
REMARK VINA RESULT:      -7.2      1.714      3.428
REMARK  Name = 
REMARK  8 active torsions:
REMARK  status: ('A' for Active; 'I' for Inactive)
REMARK    1  A    between atoms: C_1  and  C_2
REMARK    2  A    between atoms: C_4  and  N_5
REMARK    3  A    between atoms: C_9  and  O_10
REMARK    4  A    between atoms: C_9  and  C_11
REMARK    5  A    between atoms: C_11  and  N_12
REMARK    6  A    between atoms: N_12  and  C_13
REMARK    7  A    between atoms: N_12  and  C_14
REMARK    8  A    between atoms: C_18  and  C_19
REMARK                            x       y       z     vdW  Elec       q    Type
REMARK                         _______ _______ _______ _____ _____    ______ ____
ROOT
ATOM      1  C   UNL     1       4.814   6.663  16.353  0.00  0.00    +0.000 C 
ATOM      2  C   UNL     1       3.875   6.740  17.515  0.00  0.00    +0.000 A 
ATOM      3  C   UNL     1       3.195   7.903  17.802  0.00  0.00    +0.000 A 
ATOM      4  C   UNL     1       2.290   7.896  18.850  0.00  0.00    +0.000 A 
ATOM      5  N   UNL     1       2.094   6.773  19.568  0.00  0.00    +0.000 NA
ATOM      6  C   UNL     1       2.824   5.682  19.251  0.00  0.00    +0.000 A 
ATOM      7  N   UNL     1       3.710   5.624  18.239  0.00  0.00    +0.000 NA
ENDROOT
BRANCH   4   8
ATOM      8  N   UNL     1       1.553   9.036  19.146  0.00  0.00    +0.000 N 
ATOM      9  C   UNL     1       1.123   9.285  20.515  0.00  0.00    +0.000 C 
ATOM     10  C   UNL     1      -0.394   9.529  20.569  0.00  0.00    +0.000 C 
ATOM     11  C   UNL     1      -0.824  10.846  19.918  0.00  0.00    +0.000 C 
ATOM     12  C   UNL     1      -1.071  10.817  18.385  0.00  0.00    +0.000 C 
ATOM     13  C   UNL     1      -0.034  10.019  17.578  0.00  0.00    +0.000 C 
ATOM     14  C   UNL     1       1.378  10.098  18.153  0.00  0.00    +0.000 C 
BRANCH  12  15
ATOM     15  O   UNL     1      -0.959  12.196  17.974  0.00  0.00    +0.000 OA
ATOM     16  H   UNL     1      -0.068  12.323  17.606  0.00  0.00    +0.000 HD
ENDBRANCH  12  15
BRANCH  12  17
ATOM     17  C   UNL     1      -2.524  10.291  18.092  0.00  0.00    +0.000 C 
BRANCH  17  18
ATOM     18  N   UNL     1      -3.464  11.187  17.375  0.00  0.00    +0.000 NA
ATOM     19  C   UNL     1      -3.574  10.763  15.973  0.00  0.00    +0.000 C 
ATOM     20  C   UNL     1      -4.797  11.223  17.978  0.00  0.00    +0.000 C 
ENDBRANCH  17  18
ENDBRANCH  12  17
ENDBRANCH   4   8
BRANCH   6  21
ATOM     21  C   UNL     1       2.648   4.449  20.052  0.00  0.00    +0.000 A 
ATOM     22  C   UNL     1       1.497   4.218  20.826  0.00  0.00    +0.000 A 
ATOM     23  C   UNL     1       1.342   3.044  21.572  0.00  0.00    +0.000 A 
ATOM     24  C   UNL     1       2.336   2.070  21.565  0.00  0.00    +0.000 A 
ATOM     25  C   UNL     1       3.489   2.270  20.814  0.00  0.00    +0.000 A 
ATOM     26  C   UNL     1       3.641   3.444  20.070  0.00  0.00    +0.000 A 
ENDBRANCH   6  21
TORSDOF 5
ENDMDL
MODEL 8
REMARK VINA RESULT:      -7.2      1.101      1.175
REMARK  Name = 
REMARK  8 active torsions:
REMARK  status: ('A' for Active; 'I' for Inactive)
REMARK    1  A    between atoms: C_1  and  C_2
REMARK    2  A    between atoms: C_4  and  N_5
REMARK    3  A    between atoms: C_9  and  O_10
REMARK    4  A    between atoms: C_9  and  C_11
REMARK    5  A    between atoms: C_11  and  N_12
REMARK    6  A    between atoms: N_12  and  C_13
REMARK    7  A    between atoms: N_12  and  C_14
REMARK    8  A    between atoms: C_18  and  C_19
REMARK                            x       y       z     vdW  Elec       q    Type
REMARK                         _______ _______ _______ _____ _____    ______ ____
ROOT
ATOM      1  C   UNL     1       1.255   2.912  19.042  0.00  0.00    +0.000 C 
ATOM      2  C   UNL     1       2.011   4.129  18.609  0.00  0.00    +0.000 A 
ATOM      3  C   UNL     1       1.640   5.384  19.036  0.00  0.00    +0.000 A 
ATOM      4  C   UNL     1       2.416   6.466  18.656  0.00  0.00    +0.000 A 
ATOM      5  N   UNL     1       3.502   6.281  17.882  0.00  0.00    +0.000 NA
ATOM      6  C   UNL     1       3.783   5.025  17.471  0.00  0.00    +0.000 A 
ATOM      7  N   UNL     1       3.073   3.934  17.816  0.00  0.00    +0.000 NA
ENDROOT
BRANCH   4   8
ATOM      8  N   UNL     1       2.100   7.745  19.099  0.00  0.00    +0.000 N 
ATOM      9  C   UNL     1       1.921   7.993  20.523  0.00  0.00    +0.000 C 
ATOM     10  C   UNL     1       0.567   8.671  20.787  0.00  0.00    +0.000 C 
ATOM     11  C   UNL     1       0.490  10.107  20.261  0.00  0.00    +0.000 C 
ATOM     12  C   UNL     1       0.078  10.283  18.775  0.00  0.00    +0.000 C 
ATOM     13  C   UNL     1       0.726   9.284  17.801  0.00  0.00    +0.000 C 
ATOM     14  C   UNL     1       2.150   8.891  18.189  0.00  0.00    +0.000 C 
BRANCH  12  15
ATOM     15  O   UNL     1       0.561  11.596  18.418  0.00  0.00    +0.000 OA
ATOM     16  H   UNL     1       0.173  12.233  19.041  0.00  0.00    +0.000 HD
ENDBRANCH  12  15
BRANCH  12  17
ATOM     17  C   UNL     1      -1.489  10.240  18.651  0.00  0.00    +0.000 C 
BRANCH  17  18
ATOM     18  N   UNL     1      -2.121  10.927  17.497  0.00  0.00    +0.000 NA
ATOM     19  C   UNL     1      -2.426   9.946  16.448  0.00  0.00    +0.000 C 
ATOM     20  C   UNL     1      -3.343  11.649  17.858  0.00  0.00    +0.000 C 
ENDBRANCH  17  18
ENDBRANCH  12  17
ENDBRANCH   4   8
BRANCH   6  21
ATOM     21  C   UNL     1       4.952   4.807  16.590  0.00  0.00    +0.000 A 
ATOM     22  C   UNL     1       4.813   4.463  15.234  0.00  0.00    +0.000 A 
ATOM     23  C   UNL     1       5.929   4.266  14.411  0.00  0.00    +0.000 A 
ATOM     24  C   UNL     1       7.214   4.407  14.926  0.00  0.00    +0.000 A 
ATOM     25  C   UNL     1       7.386   4.741  16.265  0.00  0.00    +0.000 A 
ATOM     26  C   UNL     1       6.270   4.937  17.083  0.00  0.00    +0.000 A 
ENDBRANCH   6  21
TORSDOF 5
ENDMDL
MODEL 9
REMARK VINA RESULT:      -6.8      3.190      7.745
REMARK  Name = 
REMARK  8 active torsions:
REMARK  status: ('A' for Active; 'I' for Inactive)
REMARK    1  A    between atoms: C_1  and  C_2
REMARK    2  A    between atoms: C_4  and  N_5
REMARK    3  A    between atoms: C_9  and  O_10
REMARK    4  A    between atoms: C_9  and  C_11
REMARK    5  A    between atoms: C_11  and  N_12
REMARK    6  A    between atoms: N_12  and  C_13
REMARK    7  A    between atoms: N_12  and  C_14
REMARK    8  A    between atoms: C_18  and  C_19
REMARK                            x       y       z     vdW  Elec       q    Type
REMARK                         _______ _______ _______ _____ _____    ______ ____
ROOT
ATOM      1  C   UNL     1       1.025   3.441  20.856  0.00  0.00    +0.000 C 
ATOM      2  C   UNL     1       1.800   4.614  20.345  0.00  0.00    +0.000 A 
ATOM      3  C   UNL     1       2.953   4.438  19.613  0.00  0.00    +0.000 A 
ATOM      4  C   UNL     1       3.593   5.558  19.110  0.00  0.00    +0.000 A 
ATOM      5  N   UNL     1       3.091   6.786  19.344  0.00  0.00    +0.000 NA
ATOM      6  C   UNL     1       1.977   6.883  20.102  0.00  0.00    +0.000 A 
ATOM      7  N   UNL     1       1.306   5.832  20.609  0.00  0.00    +0.000 NA
ENDROOT
BRANCH   4   8
ATOM      8  N   UNL     1       4.735   5.422  18.331  0.00  0.00    +0.000 N 
ATOM      9  C   UNL     1       5.531   6.596  18.001  0.00  0.00    +0.000 C 
ATOM     10  C   UNL     1       5.743   6.696  16.482  0.00  0.00    +0.000 C 
ATOM     11  C   UNL     1       6.651   5.600  15.918  0.00  0.00    +0.000 C 
ATOM     12  C   UNL     1       5.971   4.254  15.548  0.00  0.00    +0.000 C 
ATOM     13  C   UNL     1       4.928   3.756  16.562  0.00  0.00    +0.000 C 
ATOM     14  C   UNL     1       5.273   4.098  18.009  0.00  0.00    +0.000 C 
BRANCH  12  15
ATOM     15  O   UNL     1       7.049   3.293  15.541  0.00  0.00    +0.000 OA
ATOM     16  H   UNL     1       7.157   2.964  16.449  0.00  0.00    +0.000 HD
ENDBRANCH  12  15
BRANCH  12  17
ATOM     17  C   UNL     1       5.341   4.358  14.111  0.00  0.00    +0.000 C 
BRANCH  17  18
ATOM     18  N   UNL     1       5.997   3.622  13.001  0.00  0.00    +0.000 NA
ATOM     19  C   UNL     1       4.990   3.231  12.007  0.00  0.00    +0.000 C 
ATOM     20  C   UNL     1       7.053   4.396  12.346  0.00  0.00    +0.000 C 
ENDBRANCH  17  18
ENDBRANCH  12  17
ENDBRANCH   4   8
BRANCH   6  21
ATOM     21  C   UNL     1       1.431   8.226  20.400  0.00  0.00    +0.000 A 
ATOM     22  C   UNL     1       1.069   8.614  21.702  0.00  0.00    +0.000 A 
ATOM     23  C   UNL     1       0.561   9.891  21.970  0.00  0.00    +0.000 A 
ATOM     24  C   UNL     1       0.400  10.813  20.939  0.00  0.00    +0.000 A 
ATOM     25  C   UNL     1       0.743  10.459  19.639  0.00  0.00    +0.000 A 
ATOM     26  C   UNL     1       1.251   9.183  19.376  0.00  0.00    +0.000 A 
ENDBRANCH   6  21
TORSDOF 5
ENDMDL
