MODEL 1
REMARK VINA RESULT:      -7.3      0.000      0.000
REMARK  Name = 
REMARK  5 active torsions:
REMARK  status: ('A' for Active; 'I' for Inactive)
REMARK    1  A    between atoms: C_1  and  N_2
REMARK    2  A    between atoms: C_6  and  C_7
REMARK    3  A    between atoms: N_11  and  C_12
REMARK    4  A    between atoms: C_12  and  C_13
REMARK    5  A    between atoms: C_17  and  N_18
REMARK                            x       y       z     vdW  Elec       q    Type
REMARK                         _______ _______ _______ _____ _____    ______ ____
ROOT
ATOM      1  C   UNL     1       5.032   4.159  18.347  0.00  0.00    +0.000 C 
ATOM      2  C   UNL     1       5.288   5.338  19.283  0.00  0.00    +0.000 C 
ATOM      3  C   UNL     1       6.792   5.455  19.247  0.00  0.00    +0.000 C 
ATOM      4  C   UNL     1       7.141   5.076  17.818  0.00  0.00    +0.000 C 
ATOM      5  N   UNL     1       5.977   4.358  17.229  0.00  0.00    +0.000 NA
ENDROOT
BRANCH   1  11
ATOM      6  C   UNL     1       3.555   1.400  18.363  0.00  0.00    +0.000 C 
ATOM      7  N   UNL     1       2.959   2.694  18.126  0.00  0.00    +0.000 N 
ATOM      8  N   UNL     1       1.615   2.766  18.004  0.00  0.00    +0.000 NA
ATOM      9  C   UNL     1       1.362   4.073  17.966  0.00  0.00    +0.000 A 
ATOM     10  C   UNL     1       2.537   4.835  18.006  0.00  0.00    +0.000 A 
ATOM     11  C   UNL     1       3.579   3.923  18.093  0.00  0.00    +0.000 A 
ENDBRANCH   1  11
BRANCH   5  12
ATOM     12  C   UNL     1       5.492   5.076  16.021  0.00  0.00    +0.000 C 
BRANCH  12  13
ATOM     13  C   UNL     1       6.287   4.738  14.737  0.00  0.00    +0.000 A 
ATOM     14  N   UNL     1       5.760   3.790  13.926  0.00  0.00    +0.000 NA
ATOM     15  C   UNL     1       6.316   3.660  12.712  0.00  0.00    +0.000 A 
ATOM     16  C   UNL     1       7.393   4.395  12.295  0.00  0.00    +0.000 A 
ATOM     17  C   UNL     1       7.912   5.276  13.212  0.00  0.00    +0.000 A 
ATOM     18  N   UNL     1       7.371   5.477  14.430  0.00  0.00    +0.000 NA
BRANCH  17  19
ATOM     19  N   UNL     1       9.031   6.043  12.874  0.00  0.00    +0.000 N 
ATOM     20  H   UNL     1       9.436   5.755  11.989  0.00  0.00    +0.000 HD
ATOM     21  H   UNL     1       9.697   5.976  13.641  0.00  0.00    +0.000 HD
ENDBRANCH  17  19
ENDBRANCH  12  13
ENDBRANCH   5  12
TORSDOF 4
ENDMDL
MODEL 2
REMARK VINA RESULT:      -7.0      0.640      1.622
REMARK  Name = 
REMARK  5 active torsions:
REMARK  status: ('A' for Active; 'I' for Inactive)
REMARK    1  A    between atoms: C_1  and  N_2
REMARK    2  A    between atoms: C_6  and  C_7
REMARK    3  A    between atoms: N_11  and  C_12
REMARK    4  A    between atoms: C_12  and  C_13
REMARK    5  A    between atoms: C_17  and  N_18
REMARK                            x       y       z     vdW  Elec       q    Type
REMARK                         _______ _______ _______ _____ _____    ______ ____
ROOT
ATOM      1  C   UNL     1       5.235   4.185  18.083  0.00  0.00    +0.000 C 
ATOM      2  C   UNL     1       5.590   5.237  19.130  0.00  0.00    +0.000 C 
ATOM      3  C   UNL     1       7.095   5.283  19.042  0.00  0.00    +0.000 C 
ATOM      4  C   UNL     1       7.369   5.050  17.566  0.00  0.00    +0.000 C 
ATOM      5  N   UNL     1       6.146   4.461  16.953  0.00  0.00    +0.000 NA
ENDROOT
BRANCH   1  11
ATOM      6  C   UNL     1       3.568   1.538  18.154  0.00  0.00    +0.000 C 
ATOM      7  N   UNL     1       3.058   2.870  17.925  0.00  0.00    +0.000 N 
ATOM      8  N   UNL     1       1.720   3.037  17.838  0.00  0.00    +0.000 NA
ATOM      9  C   UNL     1       1.559   4.358  17.798  0.00  0.00    +0.000 A 
ATOM     10  C   UNL     1       2.786   5.035  17.802  0.00  0.00    +0.000 A 
ATOM     11  C   UNL     1       3.762   4.052  17.868  0.00  0.00    +0.000 A 
ENDBRANCH   1  11
BRANCH   5  12
ATOM     12  C   UNL     1       5.655   5.332  15.853  0.00  0.00    +0.000 C 
BRANCH  12  13
ATOM     13  C   UNL     1       6.186   4.929  14.457  0.00  0.00    +0.000 A 
ATOM     14  N   UNL     1       7.345   5.505  14.058  0.00  0.00    +0.000 NA
ATOM     15  C   UNL     1       7.926   4.992  12.962  0.00  0.00    +0.000 A 
ATOM     16  C   UNL     1       7.381   3.971  12.230  0.00  0.00    +0.000 A 
ATOM     17  C   UNL     1       6.164   3.502  12.663  0.00  0.00    +0.000 A 
ATOM     18  N   UNL     1       5.556   3.951  13.778  0.00  0.00    +0.000 NA
BRANCH  17  19
ATOM     19  N   UNL     1       5.528   2.480  11.953  0.00  0.00    +0.000 N 
ATOM     20  H   UNL     1       5.189   1.745  12.565  0.00  0.00    +0.000 HD
ATOM     21  H   UNL     1       6.183   2.129  11.258  0.00  0.00    +0.000 HD
ENDBRANCH  17  19
ENDBRANCH  12  13
ENDBRANCH   5  12
TORSDOF 4
ENDMDL
MODEL 3
REMARK VINA RESULT:      -7.0      2.421      4.630
REMARK  Name = 
REMARK  5 active torsions:
REMARK  status: ('A' for Active; 'I' for Inactive)
REMARK    1  A    between atoms: C_1  and  N_2
REMARK    2  A    between atoms: C_6  and  C_7
REMARK    3  A    between atoms: N_11  and  C_12
REMARK    4  A    between atoms: C_12  and  C_13
REMARK    5  A    between atoms: C_17  and  N_18
REMARK                            x       y       z     vdW  Elec       q    Type
REMARK                         _______ _______ _______ _____ _____    ______ ____
ROOT
ATOM      1  C   UNL     1       2.139   4.136  18.726  0.00  0.00    +0.000 C 
ATOM      2  C   UNL     1       1.337   3.030  19.407  0.00  0.00    +0.000 C 
ATOM      3  C   UNL     1       1.639   1.834  18.540  0.00  0.00    +0.000 C 
ATOM      4  C   UNL     1       3.081   2.060  18.116  0.00  0.00    +0.000 C 
ATOM      5  N   UNL     1       3.414   3.493  18.346  0.00  0.00    +0.000 NA
ENDROOT
BRANCH   1  11
ATOM      6  C   UNL     1       2.999   6.952  17.666  0.00  0.00    +0.000 C 
ATOM      7  N   UNL     1       2.493   6.647  18.984  0.00  0.00    +0.000 N 
ATOM      8  N   UNL     1       2.252   7.672  19.830  0.00  0.00    +0.000 NA
ATOM      9  C   UNL     1       1.649   7.100  20.870  0.00  0.00    +0.000 A 
ATOM     10  C   UNL     1       1.552   5.710  20.720  0.00  0.00    +0.000 A 
ATOM     11  C   UNL     1       2.123   5.421  19.490  0.00  0.00    +0.000 A 
ENDBRANCH   1  11
BRANCH   5  12
ATOM     12  C   UNL     1       4.563   3.607  19.282  0.00  0.00    +0.000 C 
BRANCH  12  13
ATOM     13  C   UNL     1       5.648   4.606  18.815  0.00  0.00    +0.000 A 
ATOM     14  N   UNL     1       6.419   5.162  19.780  0.00  0.00    +0.000 NA
ATOM     15  C   UNL     1       7.500   5.842  19.369  0.00  0.00    +0.000 A 
ATOM     16  C   UNL     1       7.815   6.028  18.050  0.00  0.00    +0.000 A 
ATOM     17  C   UNL     1       6.934   5.497  17.139  0.00  0.00    +0.000 A 
ATOM     18  N   UNL     1       5.855   4.771  17.494  0.00  0.00    +0.000 NA
BRANCH  17  19
ATOM     19  N   UNL     1       7.168   5.669  15.773  0.00  0.00    +0.000 N 
ATOM     20  H   UNL     1       7.059   4.802  15.256  0.00  0.00    +0.000 HD
ATOM     21  H   UNL     1       8.099   6.066  15.664  0.00  0.00    +0.000 HD
ENDBRANCH  17  19
ENDBRANCH  12  13
ENDBRANCH   5  12
TORSDOF 4
ENDMDL
MODEL 4
REMARK VINA RESULT:      -6.8      2.590      4.631
REMARK  Name = 
REMARK  5 active torsions:
REMARK  status: ('A' for Active; 'I' for Inactive)
REMARK    1  A    between atoms: C_1  and  N_2
REMARK    2  A    between atoms: C_6  and  C_7
REMARK    3  A    between atoms: N_11  and  C_12
REMARK    4  A    between atoms: C_12  and  C_13
REMARK    5  A    between atoms: C_17  and  N_18
REMARK                            x       y       z     vdW  Elec       q    Type
REMARK                         _______ _______ _______ _____ _____    ______ ____
ROOT
ATOM      1  C   UNL     1       1.951   4.195  18.829  0.00  0.00    +0.000 C 
ATOM      2  C   UNL     1       1.188   3.117  19.595  0.00  0.00    +0.000 C 
ATOM      3  C   UNL     1       1.408   1.897  18.735  0.00  0.00    +0.000 C 
ATOM      4  C   UNL     1       2.816   2.092  18.199  0.00  0.00    +0.000 C 
ATOM      5  N   UNL     1       3.184   3.525  18.369  0.00  0.00    +0.000 NA
ENDROOT
BRANCH   1  11
ATOM      6  C   UNL     1       2.925   6.941  17.685  0.00  0.00    +0.000 C 
ATOM      7  N   UNL     1       2.428   6.691  19.018  0.00  0.00    +0.000 N 
ATOM      8  N   UNL     1       2.251   7.747  19.842  0.00  0.00    +0.000 NA
ATOM      9  C   UNL     1       1.640   7.230  20.906  0.00  0.00    +0.000 A 
ATOM     10  C   UNL     1       1.475   5.843  20.792  0.00  0.00    +0.000 A 
ATOM     11  C   UNL     1       2.010   5.497  19.560  0.00  0.00    +0.000 A 
ENDBRANCH   1  11
BRANCH   5  12
ATOM     12  C   UNL     1       4.402   3.643  19.213  0.00  0.00    +0.000 C 
BRANCH  12  13
ATOM     13  C   UNL     1       5.566   4.393  18.523  0.00  0.00    +0.000 A 
ATOM     14  N   UNL     1       5.503   4.506  17.175  0.00  0.00    +0.000 NA
ATOM     15  C   UNL     1       6.377   5.345  16.599  0.00  0.00    +0.000 A 
ATOM     16  C   UNL     1       7.332   6.034  17.298  0.00  0.00    +0.000 A 
ATOM     17  C   UNL     1       7.374   5.797  18.651  0.00  0.00    +0.000 A 
ATOM     18  N   UNL     1       6.497   4.997  19.288  0.00  0.00    +0.000 NA
BRANCH  17  19
ATOM     19  N   UNL     1       8.339   6.438  19.433  0.00  0.00    +0.000 N 
ATOM     20  H   UNL     1       8.278   6.169  20.409  0.00  0.00    +0.000 HD
ATOM     21  H   UNL     1       8.228   7.442  19.303  0.00  0.00    +0.000 HD
ENDBRANCH  17  19
ENDBRANCH  12  13
ENDBRANCH   5  12
TORSDOF 4
ENDMDL
MODEL 5
REMARK VINA RESULT:      -6.7      2.408      4.434
REMARK  Name = 
REMARK  5 active torsions:
REMARK  status: ('A' for Active; 'I' for Inactive)
REMARK    1  A    between atoms: C_1  and  N_2
REMARK    2  A    between atoms: C_6  and  C_7
REMARK    3  A    between atoms: N_11  and  C_12
REMARK    4  A    between atoms: C_12  and  C_13
REMARK    5  A    between atoms: C_17  and  N_18
REMARK                            x       y       z     vdW  Elec       q    Type
REMARK                         _______ _______ _______ _____ _____    ______ ____
ROOT
ATOM      1  C   UNL     1       2.380   3.946  18.127  0.00  0.00    +0.000 C 
ATOM      2  C   UNL     1       1.425   3.052  18.914  0.00  0.00    +0.000 C 
ATOM      3  C   UNL     1       1.811   1.674  18.439  0.00  0.00    +0.000 C 
ATOM      4  C   UNL     1       3.311   1.780  18.227  0.00  0.00    +0.000 C 
ATOM      5  N   UNL     1       3.669   3.223  18.144  0.00  0.00    +0.000 NA
ENDROOT
BRANCH   1  11
ATOM      6  C   UNL     1       1.993   5.055  21.028  0.00  0.00    +0.000 C 
ATOM      7  N   UNL     1       2.146   5.835  19.821  0.00  0.00    +0.000 N 
ATOM      8  N   UNL     1       2.244   7.177  19.935  0.00  0.00    +0.000 NA
ATOM      9  C   UNL     1       2.539   7.588  18.704  0.00  0.00    +0.000 A 
ATOM     10  C   UNL     1       2.574   6.524  17.792  0.00  0.00    +0.000 A 
ATOM     11  C   UNL     1       2.298   5.382  18.530  0.00  0.00    +0.000 A 
ENDBRANCH   1  11
BRANCH   5  12
ATOM     12  C   UNL     1       4.650   3.568  19.206  0.00  0.00    +0.000 C 
BRANCH  12  13
ATOM     13  C   UNL     1       5.701   4.615  18.764  0.00  0.00    +0.000 A 
ATOM     14  N   UNL     1       6.455   5.171  19.743  0.00  0.00    +0.000 NA
ATOM     15  C   UNL     1       7.511   5.897  19.348  0.00  0.00    +0.000 A 
ATOM     16  C   UNL     1       7.817   6.129  18.034  0.00  0.00    +0.000 A 
ATOM     17  C   UNL     1       6.952   5.593  17.111  0.00  0.00    +0.000 A 
ATOM     18  N   UNL     1       5.899   4.822  17.448  0.00  0.00    +0.000 NA
BRANCH  17  19
ATOM     19  N   UNL     1       7.177   5.809  15.749  0.00  0.00    +0.000 N 
ATOM     20  H   UNL     1       6.953   6.759  15.472  0.00  0.00    +0.000 HD
ATOM     21  H   UNL     1       6.637   5.120  15.231  0.00  0.00    +0.000 HD
ENDBRANCH  17  19
ENDBRANCH  12  13
ENDBRANCH   5  12
TORSDOF 4
ENDMDL
MODEL 6
REMARK VINA RESULT:      -6.6      3.289      6.560
REMARK  Name = 
REMARK  5 active torsions:
REMARK  status: ('A' for Active; 'I' for Inactive)
REMARK    1  A    between atoms: C_1  and  N_2
REMARK    2  A    between atoms: C_6  and  C_7
REMARK    3  A    between atoms: N_11  and  C_12
REMARK    4  A    between atoms: C_12  and  C_13
REMARK    5  A    between atoms: C_17  and  N_18
REMARK                            x       y       z     vdW  Elec       q    Type
REMARK                         _______ _______ _______ _____ _____    ______ ____
ROOT
ATOM      1  C   UNL     1       4.958   4.469  18.322  0.00  0.00    +0.000 C 
ATOM      2  C   UNL     1       4.258   3.114  18.257  0.00  0.00    +0.000 C 
ATOM      3  C   UNL     1       3.448   3.111  19.530  0.00  0.00    +0.000 C 
ATOM      4  C   UNL     1       3.039   4.566  19.692  0.00  0.00    +0.000 C 
ATOM      5  N   UNL     1       3.930   5.397  18.836  0.00  0.00    +0.000 NA
ENDROOT
BRANCH   1  11
ATOM      6  C   UNL     1       7.383   6.433  18.076  0.00  0.00    +0.000 C 
ATOM      7  N   UNL     1       6.804   5.643  17.014  0.00  0.00    +0.000 N 
ATOM      8  N   UNL     1       7.413   5.647  15.808  0.00  0.00    +0.000 NA
ATOM      9  C   UNL     1       6.761   4.719  15.111  0.00  0.00    +0.000 A 
ATOM     10  C   UNL     1       5.704   4.162  15.842  0.00  0.00    +0.000 A 
ATOM     11  C   UNL     1       5.729   4.786  17.081  0.00  0.00    +0.000 A 
ENDBRANCH   1  11
BRANCH   5  12
ATOM     12  C   UNL     1       3.123   6.164  17.851  0.00  0.00    +0.000 C 
BRANCH  12  13
ATOM     13  C   UNL     1       2.536   7.479  18.418  0.00  0.00    +0.000 A 
ATOM     14  N   UNL     1       2.322   8.481  17.532  0.00  0.00    +0.000 NA
ATOM     15  C   UNL     1       1.607   9.528  17.970  0.00  0.00    +0.000 A 
ATOM     16  C   UNL     1       1.142   9.638  19.253  0.00  0.00    +0.000 A 
ATOM     17  C   UNL     1       1.474   8.612  20.104  0.00  0.00    +0.000 A 
ATOM     18  N   UNL     1       2.155   7.518  19.709  0.00  0.00    +0.000 NA
BRANCH  17  19
ATOM     19  N   UNL     1       1.063   8.663  21.439  0.00  0.00    +0.000 N 
ATOM     20  H   UNL     1       0.958   9.617  21.769  0.00  0.00    +0.000 HD
ATOM     21  H   UNL     1       1.735   8.137  21.992  0.00  0.00    +0.000 HD
ENDBRANCH  17  19
ENDBRANCH  12  13
ENDBRANCH   5  12
TORSDOF 4
ENDMDL
MODEL 7
REMARK VINA RESULT:      -6.6      3.448      6.654
REMARK  Name = 
REMARK  5 active torsions:
REMARK  status: ('A' for Active; 'I' for Inactive)
REMARK    1  A    between atoms: C_1  and  N_2
REMARK    2  A    between atoms: C_6  and  C_7
REMARK    3  A    between atoms: N_11  and  C_12
REMARK    4  A    between atoms: C_12  and  C_13
REMARK    5  A    between atoms: C_17  and  N_18
REMARK                            x       y       z     vdW  Elec       q    Type
REMARK                         _______ _______ _______ _____ _____    ______ ____
ROOT
ATOM      1  C   UNL     1       4.066   4.163  17.993  0.00  0.00    +0.000 C 
ATOM      2  C   UNL     1       3.050   3.399  17.148  0.00  0.00    +0.000 C 
ATOM      3  C   UNL     1       1.849   3.347  18.059  0.00  0.00    +0.000 C 
ATOM      4  C   UNL     1       1.906   4.676  18.794  0.00  0.00    +0.000 C 
ATOM      5  N   UNL     1       3.280   5.230  18.647  0.00  0.00    +0.000 NA
ENDROOT
BRANCH   1  11
ATOM      6  C   UNL     1       6.688   5.389  19.183  0.00  0.00    +0.000 C 
ATOM      7  N   UNL     1       6.464   5.003  17.809  0.00  0.00    +0.000 N 
ATOM      8  N   UNL     1       7.506   5.063  16.950  0.00  0.00    +0.000 NA
ATOM      9  C   UNL     1       7.042   4.499  15.837  0.00  0.00    +0.000 A 
ATOM     10  C   UNL     1       5.696   4.129  15.958  0.00  0.00    +0.000 A 
ATOM     11  C   UNL     1       5.321   4.480  17.247  0.00  0.00    +0.000 A 
ENDBRANCH   1  11
BRANCH   5  12
ATOM     12  C   UNL     1       3.226   6.563  17.991  0.00  0.00    +0.000 C 
BRANCH  12  13
ATOM     13  C   UNL     1       2.269   7.559  18.687  0.00  0.00    +0.000 A 
ATOM     14  N   UNL     1       2.102   7.411  20.023  0.00  0.00    +0.000 NA
ATOM     15  C   UNL     1       1.464   8.402  20.664  0.00  0.00    +0.000 A 
ATOM     16  C   UNL     1       0.950   9.500  20.029  0.00  0.00    +0.000 A 
ATOM     17  C   UNL     1       1.095   9.528  18.663  0.00  0.00    +0.000 A 
ATOM     18  N   UNL     1       1.761   8.582  17.972  0.00  0.00    +0.000 NA
BRANCH  17  19
ATOM     19  N   UNL     1       0.571  10.601  17.936  0.00  0.00    +0.000 N 
ATOM     20  H   UNL     1       1.240  10.972  17.269  0.00  0.00    +0.000 HD
ATOM     21  H   UNL     1       0.262  11.306  18.602  0.00  0.00    +0.000 HD
ENDBRANCH  17  19
ENDBRANCH  12  13
ENDBRANCH   5  12
TORSDOF 4
ENDMDL
MODEL 8
REMARK VINA RESULT:      -6.5      0.692      1.354
REMARK  Name = 
REMARK  5 active torsions:
REMARK  status: ('A' for Active; 'I' for Inactive)
REMARK    1  A    between atoms: C_1  and  N_2
REMARK    2  A    between atoms: C_6  and  C_7
REMARK    3  A    between atoms: N_11  and  C_12
REMARK    4  A    between atoms: C_12  and  C_13
REMARK    5  A    between atoms: C_17  and  N_18
REMARK                            x       y       z     vdW  Elec       q    Type
REMARK                         _______ _______ _______ _____ _____    ______ ____
ROOT
ATOM      1  C   UNL     1       5.276   3.998  18.425  0.00  0.00    +0.000 C 
ATOM      2  C   UNL     1       5.361   5.263  19.277  0.00  0.00    +0.000 C 
ATOM      3  C   UNL     1       6.814   5.643  19.143  0.00  0.00    +0.000 C 
ATOM      4  C   UNL     1       7.155   5.239  17.719  0.00  0.00    +0.000 C 
ATOM      5  N   UNL     1       6.113   4.288  17.243  0.00  0.00    +0.000 NA
ENDROOT
BRANCH   1  11
ATOM      6  C   UNL     1       2.696   5.722  18.015  0.00  0.00    +0.000 C 
ATOM      7  N   UNL     1       2.768   4.280  18.076  0.00  0.00    +0.000 N 
ATOM      8  N   UNL     1       1.644   3.573  17.827  0.00  0.00    +0.000 NA
ATOM      9  C   UNL     1       2.057   2.308  17.790  0.00  0.00    +0.000 A 
ATOM     10  C   UNL     1       3.426   2.196  18.070  0.00  0.00    +0.000 A 
ATOM     11  C   UNL     1       3.879   3.491  18.273  0.00  0.00    +0.000 A 
ENDBRANCH   1  11
BRANCH   5  12
ATOM     12  C   UNL     1       5.446   4.827  16.028  0.00  0.00    +0.000 C 
BRANCH  12  13
ATOM     13  C   UNL     1       6.240   4.580  14.723  0.00  0.00    +0.000 A 
ATOM     14  N   UNL     1       5.721   3.678  13.856  0.00  0.00    +0.000 NA
ATOM     15  C   UNL     1       6.274   3.631  12.635  0.00  0.00    +0.000 A 
ATOM     16  C   UNL     1       7.340   4.404  12.260  0.00  0.00    +0.000 A 
ATOM     17  C   UNL     1       7.852   5.233  13.229  0.00  0.00    +0.000 A 
ATOM     18  N   UNL     1       7.313   5.351  14.458  0.00  0.00    +0.000 NA
BRANCH  17  19
ATOM     19  N   UNL     1       8.959   6.034  12.935  0.00  0.00    +0.000 N 
ATOM     20  H   UNL     1       9.128   6.728  13.656  0.00  0.00    +0.000 HD
ATOM     21  H   UNL     1       8.803   6.457  12.023  0.00  0.00    +0.000 HD
ENDBRANCH  17  19
ENDBRANCH  12  13
ENDBRANCH   5  12
TORSDOF 4
ENDMDL
MODEL 9
REMARK VINA RESULT:      -6.5      2.532      4.384
REMARK  Name = 
REMARK  5 active torsions:
REMARK  status: ('A' for Active; 'I' for Inactive)
REMARK    1  A    between atoms: C_1  and  N_2
REMARK    2  A    between atoms: C_6  and  C_7
REMARK    3  A    between atoms: N_11  and  C_12
REMARK    4  A    between atoms: C_12  and  C_13
REMARK    5  A    between atoms: C_17  and  N_18
REMARK                            x       y       z     vdW  Elec       q    Type
REMARK                         _______ _______ _______ _____ _____    ______ ____
ROOT
ATOM      1  C   UNL     1       2.195   4.011  18.154  0.00  0.00    +0.000 C 
ATOM      2  C   UNL     1       1.327   3.154  19.072  0.00  0.00    +0.000 C 
ATOM      3  C   UNL     1       1.628   1.758  18.586  0.00  0.00    +0.000 C 
ATOM      4  C   UNL     1       3.094   1.829  18.193  0.00  0.00    +0.000 C 
ATOM      5  N   UNL     1       3.463   3.263  18.034  0.00  0.00    +0.000 NA
ENDROOT
BRANCH   1  11
ATOM      6  C   UNL     1       1.999   5.191  21.046  0.00  0.00    +0.000 C 
ATOM      7  N   UNL     1       2.118   5.940  19.817  0.00  0.00    +0.000 N 
ATOM      8  N   UNL     1       2.272   7.280  19.897  0.00  0.00    +0.000 NA
ATOM      9  C   UNL     1       2.519   7.655  18.644  0.00  0.00    +0.000 A 
ATOM     10  C   UNL     1       2.468   6.573  17.754  0.00  0.00    +0.000 A 
ATOM     11  C   UNL     1       2.188   5.457  18.529  0.00  0.00    +0.000 A 
ENDBRANCH   1  11
BRANCH   5  12
ATOM     12  C   UNL     1       4.572   3.610  18.961  0.00  0.00    +0.000 C 
BRANCH  12  13
ATOM     13  C   UNL     1       5.668   4.492  18.315  0.00  0.00    +0.000 A 
ATOM     14  N   UNL     1       5.546   4.741  16.990  0.00  0.00    +0.000 NA
ATOM     15  C   UNL     1       6.353   5.682  16.478  0.00  0.00    +0.000 A 
ATOM     16  C   UNL     1       7.298   6.345  17.214  0.00  0.00    +0.000 A 
ATOM     17  C   UNL     1       7.406   5.971  18.532  0.00  0.00    +0.000 A 
ATOM     18  N   UNL     1       6.596   5.061  19.109  0.00  0.00    +0.000 NA
BRANCH  17  19
ATOM     19  N   UNL     1       8.367   6.579  19.344  0.00  0.00    +0.000 N 
ATOM     20  H   UNL     1       7.983   7.355  19.873  0.00  0.00    +0.000 HD
ATOM     21  H   UNL     1       9.141   6.865  18.749  0.00  0.00    +0.000 HD
ENDBRANCH  17  19
ENDBRANCH  12  13
ENDBRANCH   5  12
TORSDOF 4
ENDMDL
