MODEL 1
REMARK VINA RESULT:      -9.1      0.000      0.000
REMARK  Name = 
REMARK  12 active torsions:
REMARK  status: ('A' for Active; 'I' for Inactive)
REMARK    1  A    between atoms: C_1  and  C_2
REMARK    2  A    between atoms: C_2  and  C_3
REMARK    3  A    between atoms: C_7  and  C_8
REMARK    4  A    between atoms: C_9  and  N_10
REMARK    5  A    between atoms: N_10  and  C_11
REMARK    6  A    between atoms: C_14  and  O_15
REMARK    7  A    between atoms: O_15  and  C_16
REMARK    8  A    between atoms: C_19  and  N_20
REMARK    9  A    between atoms: N_20  and  C_21
REMARK   10  A    between atoms: C_26  and  C_27
REMARK   11  A    between atoms: C_28  and  C_29
REMARK   12  A    between atoms: C_28  and  C_30
REMARK                            x       y       z     vdW  Elec       q    Type
REMARK                         _______ _______ _______ _____ _____    ______ ____
ROOT
ATOM      1  O   UNL     1       0.630  11.185  19.797  0.00  0.00    +0.000 OA
ENDROOT
BRANCH   1   5
ATOM      2  C   UNL     1       2.472   7.586  18.708  0.00  0.00    +0.000 A 
ATOM      3  C   UNL     1       2.234   8.603  17.778  0.00  0.00    +0.000 A 
ATOM      4  C   UNL     1       1.571   9.768  18.167  0.00  0.00    +0.000 A 
ATOM      5  C   UNL     1       1.100   9.933  19.474  0.00  0.00    +0.000 A 
ATOM      6  C   UNL     1       1.245   8.886  20.373  0.00  0.00    +0.000 A 
ATOM      7  C   UNL     1       1.891   7.716  19.977  0.00  0.00    +0.000 A 
BRANCH   2   8
ATOM      8  N   UNL     1       3.288   6.490  18.353  0.00  0.00    +0.000 N 
ATOM      9  H   UNL     1       4.210   6.768  18.066  0.00  0.00    +0.000 HD
BRANCH   8  18
ATOM     10  C   UNL     1       4.489   3.903  16.850  0.00  0.00    +0.000 C 
ATOM     11  C   UNL     1       3.779   3.244  18.047  0.00  0.00    +0.000 C 
ATOM     12  C   UNL     1       3.423   1.813  17.589  0.00  0.00    +0.000 C 
ATOM     13  C   UNL     1       4.588   3.302  19.364  0.00  0.00    +0.000 C 
ATOM     14  C   UNL     1       3.635   2.683  20.406  0.00  0.00    +0.000 C 
ATOM     15  C   UNL     1       2.254   3.175  19.938  0.00  0.00    +0.000 C 
ATOM     16  C   UNL     1       2.594   4.043  18.681  0.00  0.00    +0.000 C 
ATOM     17  C   UNL     1       1.372   4.251  17.805  0.00  0.00    +0.000 C 
ATOM     18  C   UNL     1       3.252   5.337  19.275  0.00  0.00    +0.000 C 
ATOM     19  C   UNL     1       4.663   4.814  19.672  0.00  0.00    +0.000 C 
ENDBRANCH   8  18
ENDBRANCH   2   8
ENDBRANCH   1   5
BRANCH   1  20
ATOM     20  C   UNL     1      -0.717  11.449  19.899  0.00  0.00    +0.000 A 
ATOM     21  C   UNL     1      -1.177  11.867  21.149  0.00  0.00    +0.000 A 
ATOM     22  C   UNL     1      -2.479  12.368  21.294  0.00  0.00    +0.000 A 
ATOM     23  C   UNL     1      -3.329  12.515  20.191  0.00  0.00    +0.000 A 
ATOM     24  C   UNL     1      -2.892  11.981  18.970  0.00  0.00    +0.000 A 
ATOM     25  C   UNL     1      -1.589  11.476  18.815  0.00  0.00    +0.000 A 
BRANCH  23  26
ATOM     26  N   UNL     1      -4.590  13.109  20.407  0.00  0.00    +0.000 N 
ATOM     27  H   UNL     1      -4.442  14.117  20.430  0.00  0.00    +0.000 HD
BRANCH  26  28
ATOM     28  C   UNL     1      -5.395  12.664  21.556  0.00  0.00    +0.000 C 
ATOM     29  C   UNL     1      -6.773  12.088  21.155  0.00  0.00    +0.000 C 
ATOM     30  C   UNL     1      -7.778  12.851  22.069  0.00  0.00    +0.000 C 
ATOM     31  C   UNL     1      -7.535  12.383  23.514  0.00  0.00    +0.000 C 
ATOM     32  C   UNL     1      -6.192  13.046  23.859  0.00  0.00    +0.000 C 
ATOM     33  C   UNL     1      -5.820  13.812  22.537  0.00  0.00    +0.000 C 
ATOM     34  C   UNL     1      -4.761  14.863  22.817  0.00  0.00    +0.000 C 
ATOM     35  C   UNL     1      -7.234  14.300  22.064  0.00  0.00    +0.000 C 
ATOM     36  C   UNL     1      -7.424  14.943  20.678  0.00  0.00    +0.000 C 
ATOM     37  C   UNL     1      -7.905  15.285  23.056  0.00  0.00    +0.000 C 
ENDBRANCH  26  28
ENDBRANCH  23  26
ENDBRANCH   1  20
TORSDOF 6
ENDMDL
MODEL 2
REMARK VINA RESULT:      -9.0      1.000      1.981
REMARK  Name = 
REMARK  12 active torsions:
REMARK  status: ('A' for Active; 'I' for Inactive)
REMARK    1  A    between atoms: C_1  and  C_2
REMARK    2  A    between atoms: C_2  and  C_3
REMARK    3  A    between atoms: C_7  and  C_8
REMARK    4  A    between atoms: C_9  and  N_10
REMARK    5  A    between atoms: N_10  and  C_11
REMARK    6  A    between atoms: C_14  and  O_15
REMARK    7  A    between atoms: O_15  and  C_16
REMARK    8  A    between atoms: C_19  and  N_20
REMARK    9  A    between atoms: N_20  and  C_21
REMARK   10  A    between atoms: C_26  and  C_27
REMARK   11  A    between atoms: C_28  and  C_29
REMARK   12  A    between atoms: C_28  and  C_30
REMARK                            x       y       z     vdW  Elec       q    Type
REMARK                         _______ _______ _______ _____ _____    ______ ____
ROOT
ATOM      1  O   UNL     1       0.629  10.940  18.387  0.00  0.00    +0.000 OA
ENDROOT
BRANCH   1   5
ATOM      2  C   UNL     1       2.107   7.229  19.642  0.00  0.00    +0.000 A 
ATOM      3  C   UNL     1       1.511   8.125  20.535  0.00  0.00    +0.000 A 
ATOM      4  C   UNL     1       1.077   9.375  20.090  0.00  0.00    +0.000 A 
ATOM      5  C   UNL     1       1.256   9.774  18.761  0.00  0.00    +0.000 A 
ATOM      6  C   UNL     1       1.936   8.928  17.896  0.00  0.00    +0.000 A 
ATOM      7  C   UNL     1       2.385   7.688  18.347  0.00  0.00    +0.000 A 
BRANCH   2   8
ATOM      8  N   UNL     1       2.387   5.909  20.057  0.00  0.00    +0.000 N 
ATOM      9  H   UNL     1       1.870   5.640  20.875  0.00  0.00    +0.000 HD
BRANCH   8  18
ATOM     10  C   UNL     1       3.013   3.028  21.363  0.00  0.00    +0.000 C 
ATOM     11  C   UNL     1       3.296   2.745  19.876  0.00  0.00    +0.000 C 
ATOM     12  C   UNL     1       4.309   1.579  19.855  0.00  0.00    +0.000 C 
ATOM     13  C   UNL     1       2.024   2.489  19.034  0.00  0.00    +0.000 C 
ATOM     14  C   UNL     1       2.561   2.339  17.596  0.00  0.00    +0.000 C 
ATOM     15  C   UNL     1       3.722   3.348  17.561  0.00  0.00    +0.000 C 
ATOM     16  C   UNL     1       3.693   3.974  18.995  0.00  0.00    +0.000 C 
ATOM     17  C   UNL     1       5.009   4.651  19.331  0.00  0.00    +0.000 C 
ATOM     18  C   UNL     1       2.421   4.891  18.987  0.00  0.00    +0.000 C 
ATOM     19  C   UNL     1       1.279   3.841  19.092  0.00  0.00    +0.000 C 
ENDBRANCH   8  18
ENDBRANCH   2   8
ENDBRANCH   1   5
BRANCH   1  20
ATOM     20  C   UNL     1      -0.676  11.206  18.738  0.00  0.00    +0.000 A 
ATOM     21  C   UNL     1      -0.873  12.206  19.691  0.00  0.00    +0.000 A 
ATOM     22  C   UNL     1      -2.162  12.697  19.947  0.00  0.00    +0.000 A 
ATOM     23  C   UNL     1      -3.270  12.243  19.220  0.00  0.00    +0.000 A 
ATOM     24  C   UNL     1      -3.069  11.159  18.355  0.00  0.00    +0.000 A 
ATOM     25  C   UNL     1      -1.781  10.659  18.093  0.00  0.00    +0.000 A 
BRANCH  23  26
ATOM     26  N   UNL     1      -4.518  12.852  19.476  0.00  0.00    +0.000 N 
ATOM     27  H   UNL     1      -4.372  13.859  19.418  0.00  0.00    +0.000 HD
BRANCH  26  28
ATOM     28  C   UNL     1      -5.243  12.489  20.704  0.00  0.00    +0.000 C 
ATOM     29  C   UNL     1      -6.581  11.760  20.434  0.00  0.00    +0.000 C 
ATOM     30  C   UNL     1      -7.616  12.548  21.293  0.00  0.00    +0.000 C 
ATOM     31  C   UNL     1      -7.287  12.283  22.772  0.00  0.00    +0.000 C 
ATOM     32  C   UNL     1      -5.993  13.087  22.977  0.00  0.00    +0.000 C 
ATOM     33  C   UNL     1      -5.731  13.711  21.558  0.00  0.00    +0.000 C 
ATOM     34  C   UNL     1      -4.755  14.870  21.664  0.00  0.00    +0.000 C 
ATOM     35  C   UNL     1      -7.196  14.024  21.090  0.00  0.00    +0.000 C 
ATOM     36  C   UNL     1      -7.485  14.474  19.647  0.00  0.00    +0.000 C 
ATOM     37  C   UNL     1      -7.914  15.067  21.985  0.00  0.00    +0.000 C 
ENDBRANCH  26  28
ENDBRANCH  23  26
ENDBRANCH   1  20
TORSDOF 6
ENDMDL
MODEL 3
REMARK VINA RESULT:      -8.9      8.209     11.276
REMARK  Name = 
REMARK  12 active torsions:
REMARK  status: ('A' for Active; 'I' for Inactive)
REMARK    1  A    between atoms: C_1  and  C_2
REMARK    2  A    between atoms: C_2  and  C_3
REMARK    3  A    between atoms: C_7  and  C_8
REMARK    4  A    between atoms: C_9  and  N_10
REMARK    5  A    between atoms: N_10  and  C_11
REMARK    6  A    between atoms: C_14  and  O_15
REMARK    7  A    between atoms: O_15  and  C_16
REMARK    8  A    between atoms: C_19  and  N_20
REMARK    9  A    between atoms: N_20  and  C_21
REMARK   10  A    between atoms: C_26  and  C_27
REMARK   11  A    between atoms: C_28  and  C_29
REMARK   12  A    between atoms: C_28  and  C_30
REMARK                            x       y       z     vdW  Elec       q    Type
REMARK                         _______ _______ _______ _____ _____    ______ ____
ROOT
ATOM      1  O   UNL     1       8.654   8.450  17.609  0.00  0.00    +0.000 OA
ENDROOT
BRANCH   1   5
ATOM      2  C   UNL     1       5.823   5.434  18.263  0.00  0.00    +0.000 A 
ATOM      3  C   UNL     1       5.577   6.499  17.391  0.00  0.00    +0.000 A 
ATOM      4  C   UNL     1       6.524   7.514  17.238  0.00  0.00    +0.000 A 
ATOM      5  C   UNL     1       7.715   7.510  17.971  0.00  0.00    +0.000 A 
ATOM      6  C   UNL     1       7.919   6.509  18.910  0.00  0.00    +0.000 A 
ATOM      7  C   UNL     1       6.964   5.507  19.074  0.00  0.00    +0.000 A 
BRANCH   2   8
ATOM      8  N   UNL     1       4.944   4.330  18.285  0.00  0.00    +0.000 N 
ATOM      9  H   UNL     1       5.387   3.473  18.008  0.00  0.00    +0.000 HD
BRANCH   8  18
ATOM     10  C   UNL     1       2.641   2.144  17.722  0.00  0.00    +0.000 C 
ATOM     11  C   UNL     1       2.068   2.863  18.957  0.00  0.00    +0.000 C 
ATOM     12  C   UNL     1       0.536   2.684  18.875  0.00  0.00    +0.000 C 
ATOM     13  C   UNL     1       2.686   2.396  20.296  0.00  0.00    +0.000 C 
ATOM     14  C   UNL     1       2.034   3.322  21.343  0.00  0.00    +0.000 C 
ATOM     15  C   UNL     1       1.918   4.658  20.588  0.00  0.00    +0.000 C 
ATOM     16  C   UNL     1       2.544   4.333  19.192  0.00  0.00    +0.000 C 
ATOM     17  C   UNL     1       2.130   5.354  18.148  0.00  0.00    +0.000 C 
ATOM     18  C   UNL     1       4.082   4.218  19.479  0.00  0.00    +0.000 C 
ATOM     19  C   UNL     1       4.165   2.831  20.178  0.00  0.00    +0.000 C 
ENDBRANCH   8  18
ENDBRANCH   2   8
ENDBRANCH   1   5
BRANCH   1  20
ATOM     20  C   UNL     1       8.627   9.731  18.113  0.00  0.00    +0.000 A 
ATOM     21  C   UNL     1       9.315   9.944  19.308  0.00  0.00    +0.000 A 
ATOM     22  C   UNL     1       9.531  11.248  19.779  0.00  0.00    +0.000 A 
ATOM     23  C   UNL     1       9.116  12.364  19.042  0.00  0.00    +0.000 A 
ATOM     24  C   UNL     1       8.327  12.128  17.908  0.00  0.00    +0.000 A 
ATOM     25  C   UNL     1       8.104  10.824  17.430  0.00  0.00    +0.000 A 
BRANCH  23  26
ATOM     26  N   UNL     1       9.450  13.642  19.541  0.00  0.00    +0.000 N 
ATOM     27  H   UNL     1       8.797  13.843  20.298  0.00  0.00    +0.000 HD
BRANCH  26  28
ATOM     28  C   UNL     1       9.536  14.769  18.599  0.00  0.00    +0.000 C 
ATOM     29  C   UNL     1      10.844  14.782  17.774  0.00  0.00    +0.000 C 
ATOM     30  C   UNL     1      11.381  16.235  17.947  0.00  0.00    +0.000 C 
ATOM     31  C   UNL     1      10.414  17.177  17.211  0.00  0.00    +0.000 C 
ATOM     32  C   UNL     1       9.175  17.162  18.120  0.00  0.00    +0.000 C 
ATOM     33  C   UNL     1       9.591  16.183  19.277  0.00  0.00    +0.000 C 
ATOM     34  C   UNL     1       8.683  16.371  20.480  0.00  0.00    +0.000 C 
ATOM     35  C   UNL     1      11.111  16.538  19.441  0.00  0.00    +0.000 C 
ATOM     36  C   UNL     1      12.028  15.688  20.339  0.00  0.00    +0.000 C 
ATOM     37  C   UNL     1      11.351  18.000  19.896  0.00  0.00    +0.000 C 
ENDBRANCH  26  28
ENDBRANCH  23  26
ENDBRANCH   1  20
TORSDOF 6
ENDMDL
MODEL 4
REMARK VINA RESULT:      -8.9      1.166     11.813
REMARK  Name = 
REMARK  12 active torsions:
REMARK  status: ('A' for Active; 'I' for Inactive)
REMARK    1  A    between atoms: C_1  and  C_2
REMARK    2  A    between atoms: C_2  and  C_3
REMARK    3  A    between atoms: C_7  and  C_8
REMARK    4  A    between atoms: C_9  and  N_10
REMARK    5  A    between atoms: N_10  and  C_11
REMARK    6  A    between atoms: C_14  and  O_15
REMARK    7  A    between atoms: O_15  and  C_16
REMARK    8  A    between atoms: C_19  and  N_20
REMARK    9  A    between atoms: N_20  and  C_21
REMARK   10  A    between atoms: C_26  and  C_27
REMARK   11  A    between atoms: C_28  and  C_29
REMARK   12  A    between atoms: C_28  and  C_30
REMARK                            x       y       z     vdW  Elec       q    Type
REMARK                         _______ _______ _______ _____ _____    ______ ____
ROOT
ATOM      1  O   UNL     1       0.610  11.465  19.086  0.00  0.00    +0.000 OA
ENDROOT
BRANCH   1   5
ATOM      2  C   UNL     1      -2.618  13.618  20.662  0.00  0.00    +0.000 A 
ATOM      3  C   UNL     1      -1.296  13.910  21.012  0.00  0.00    +0.000 A 
ATOM      4  C   UNL     1      -0.249  13.137  20.507  0.00  0.00    +0.000 A 
ATOM      5  C   UNL     1      -0.494  12.040  19.674  0.00  0.00    +0.000 A 
ATOM      6  C   UNL     1      -1.808  11.686  19.405  0.00  0.00    +0.000 A 
ATOM      7  C   UNL     1      -2.853  12.448  19.926  0.00  0.00    +0.000 A 
BRANCH   2   8
ATOM      8  N   UNL     1      -3.653  14.501  21.037  0.00  0.00    +0.000 N 
ATOM      9  H   UNL     1      -3.506  15.437  20.704  0.00  0.00    +0.000 HD
BRANCH   8  18
ATOM     10  C   UNL     1      -5.643  16.150  22.965  0.00  0.00    +0.000 C 
ATOM     11  C   UNL     1      -6.522  14.939  22.602  0.00  0.00    +0.000 C 
ATOM     12  C   UNL     1      -7.517  14.775  23.772  0.00  0.00    +0.000 C 
ATOM     13  C   UNL     1      -7.195  15.048  21.213  0.00  0.00    +0.000 C 
ATOM     14  C   UNL     1      -7.917  13.696  21.049  0.00  0.00    +0.000 C 
ATOM     15  C   UNL     1      -6.951  12.711  21.732  0.00  0.00    +0.000 C 
ATOM     16  C   UNL     1      -5.772  13.631  22.191  0.00  0.00    +0.000 C 
ATOM     17  C   UNL     1      -4.935  12.964  23.268  0.00  0.00    +0.000 C 
ATOM     18  C   UNL     1      -5.028  13.994  20.859  0.00  0.00    +0.000 C 
ATOM     19  C   UNL     1      -5.999  15.036  20.235  0.00  0.00    +0.000 C 
ENDBRANCH   8  18
ENDBRANCH   2   8
ENDBRANCH   1   5
BRANCH   1  20
ATOM     20  C   UNL     1       0.935  10.144  19.294  0.00  0.00    +0.000 A 
ATOM     21  C   UNL     1       1.547   9.478  18.230  0.00  0.00    +0.000 A 
ATOM     22  C   UNL     1       2.111   8.208  18.419  0.00  0.00    +0.000 A 
ATOM     23  C   UNL     1       2.128   7.601  19.681  0.00  0.00    +0.000 A 
ATOM     24  C   UNL     1       1.407   8.231  20.706  0.00  0.00    +0.000 A 
ATOM     25  C   UNL     1       0.837   9.504  20.525  0.00  0.00    +0.000 A 
BRANCH  23  26
ATOM     26  N   UNL     1       2.793   6.363  19.806  0.00  0.00    +0.000 N 
ATOM     27  H   UNL     1       3.293   6.206  18.931  0.00  0.00    +0.000 HD
BRANCH  26  28
ATOM     28  C   UNL     1       2.014   5.176  20.192  0.00  0.00    +0.000 C 
ATOM     29  C   UNL     1       2.614   4.411  21.395  0.00  0.00    +0.000 C 
ATOM     30  C   UNL     1       2.674   2.932  20.907  0.00  0.00    +0.000 C 
ATOM     31  C   UNL     1       1.226   2.431  20.774  0.00  0.00    +0.000 C 
ATOM     32  C   UNL     1       0.725   3.180  19.529  0.00  0.00    +0.000 C 
ATOM     33  C   UNL     1       1.968   4.044  19.106  0.00  0.00    +0.000 C 
ATOM     34  C   UNL     1       1.819   4.517  17.670  0.00  0.00    +0.000 C 
ATOM     35  C   UNL     1       3.146   3.062  19.438  0.00  0.00    +0.000 C 
ATOM     36  C   UNL     1       4.609   3.536  19.381  0.00  0.00    +0.000 C 
ATOM     37  C   UNL     1       3.115   1.762  18.594  0.00  0.00    +0.000 C 
ENDBRANCH  26  28
ENDBRANCH  23  26
ENDBRANCH   1  20
TORSDOF 6
ENDMDL
MODEL 5
REMARK VINA RESULT:      -8.8      1.222     12.307
REMARK  Name = 
REMARK  12 active torsions:
REMARK  status: ('A' for Active; 'I' for Inactive)
REMARK    1  A    between atoms: C_1  and  C_2
REMARK    2  A    between atoms: C_2  and  C_3
REMARK    3  A    between atoms: C_7  and  C_8
REMARK    4  A    between atoms: C_9  and  N_10
REMARK    5  A    between atoms: N_10  and  C_11
REMARK    6  A    between atoms: C_14  and  O_15
REMARK    7  A    between atoms: O_15  and  C_16
REMARK    8  A    between atoms: C_19  and  N_20
REMARK    9  A    between atoms: N_20  and  C_21
REMARK   10  A    between atoms: C_26  and  C_27
REMARK   11  A    between atoms: C_28  and  C_29
REMARK   12  A    between atoms: C_28  and  C_30
REMARK                            x       y       z     vdW  Elec       q    Type
REMARK                         _______ _______ _______ _____ _____    ______ ____
ROOT
ATOM      1  O   UNL     1       0.517  11.140  18.968  0.00  0.00    +0.000 OA
ENDROOT
BRANCH   1   5
ATOM      2  C   UNL     1      -3.406  12.408  19.700  0.00  0.00    +0.000 A 
ATOM      3  C   UNL     1      -2.410  12.493  20.677  0.00  0.00    +0.000 A 
ATOM      4  C   UNL     1      -1.125  12.012  20.414  0.00  0.00    +0.000 A 
ATOM      5  C   UNL     1      -0.814  11.407  19.192  0.00  0.00    +0.000 A 
ATOM      6  C   UNL     1      -1.825  11.231  18.257  0.00  0.00    +0.000 A 
ATOM      7  C   UNL     1      -3.111  11.695  18.529  0.00  0.00    +0.000 A 
BRANCH   2   8
ATOM      8  N   UNL     1      -4.647  13.046  19.909  0.00  0.00    +0.000 N 
ATOM      9  H   UNL     1      -5.196  13.115  19.070  0.00  0.00    +0.000 HD
BRANCH   8  18
ATOM     10  C   UNL     1      -7.284  14.876  20.211  0.00  0.00    +0.000 C 
ATOM     11  C   UNL     1      -7.206  14.240  21.611  0.00  0.00    +0.000 C 
ATOM     12  C   UNL     1      -7.914  15.229  22.563  0.00  0.00    +0.000 C 
ATOM     13  C   UNL     1      -7.761  12.798  21.675  0.00  0.00    +0.000 C 
ATOM     14  C   UNL     1      -7.477  12.360  23.126  0.00  0.00    +0.000 C 
ATOM     15  C   UNL     1      -6.128  13.037  23.426  0.00  0.00    +0.000 C 
ATOM     16  C   UNL     1      -5.793  13.771  22.086  0.00  0.00    +0.000 C 
ATOM     17  C   UNL     1      -4.754  14.858  22.295  0.00  0.00    +0.000 C 
ATOM     18  C   UNL     1      -5.401  12.614  21.103  0.00  0.00    +0.000 C 
ATOM     19  C   UNL     1      -6.792  12.002  20.772  0.00  0.00    +0.000 C 
ENDBRANCH   8  18
ENDBRANCH   2   8
ENDBRANCH   1   5
BRANCH   1  20
ATOM     20  C   UNL     1       1.009   9.854  18.982  0.00  0.00    +0.000 A 
ATOM     21  C   UNL     1       1.558   9.384  17.788  0.00  0.00    +0.000 A 
ATOM     22  C   UNL     1       2.279   8.181  17.764  0.00  0.00    +0.000 A 
ATOM     23  C   UNL     1       2.514   7.451  18.935  0.00  0.00    +0.000 A 
ATOM     24  C   UNL     1       1.857   7.876  20.099  0.00  0.00    +0.000 A 
ATOM     25  C   UNL     1       1.132   9.081  20.132  0.00  0.00    +0.000 A 
BRANCH  23  26
ATOM     26  N   UNL     1       3.323   6.299  18.841  0.00  0.00    +0.000 N 
ATOM     27  H   UNL     1       4.137   6.460  19.433  0.00  0.00    +0.000 HD
BRANCH  26  28
ATOM     28  C   UNL     1       3.723   5.823  17.507  0.00  0.00    +0.000 C 
ATOM     29  C   UNL     1       3.547   4.297  17.321  0.00  0.00    +0.000 C 
ATOM     30  C   UNL     1       4.924   3.827  16.762  0.00  0.00    +0.000 C 
ATOM     31  C   UNL     1       5.069   4.406  15.345  0.00  0.00    +0.000 C 
ATOM     32  C   UNL     1       5.306   5.900  15.616  0.00  0.00    +0.000 C 
ATOM     33  C   UNL     1       5.249   5.993  17.184  0.00  0.00    +0.000 C 
ATOM     34  C   UNL     1       5.881   7.290  17.659  0.00  0.00    +0.000 C 
ATOM     35  C   UNL     1       5.942   4.646  17.592  0.00  0.00    +0.000 C 
ATOM     36  C   UNL     1       5.950   4.173  19.056  0.00  0.00    +0.000 C 
ATOM     37  C   UNL     1       7.422   4.557  17.136  0.00  0.00    +0.000 C 
ENDBRANCH  26  28
ENDBRANCH  23  26
ENDBRANCH   1  20
TORSDOF 6
ENDMDL
MODEL 6
REMARK VINA RESULT:      -8.8      1.128     11.827
REMARK  Name = 
REMARK  12 active torsions:
REMARK  status: ('A' for Active; 'I' for Inactive)
REMARK    1  A    between atoms: C_1  and  C_2
REMARK    2  A    between atoms: C_2  and  C_3
REMARK    3  A    between atoms: C_7  and  C_8
REMARK    4  A    between atoms: C_9  and  N_10
REMARK    5  A    between atoms: N_10  and  C_11
REMARK    6  A    between atoms: C_14  and  O_15
REMARK    7  A    between atoms: O_15  and  C_16
REMARK    8  A    between atoms: C_19  and  N_20
REMARK    9  A    between atoms: N_20  and  C_21
REMARK   10  A    between atoms: C_26  and  C_27
REMARK   11  A    between atoms: C_28  and  C_29
REMARK   12  A    between atoms: C_28  and  C_30
REMARK                            x       y       z     vdW  Elec       q    Type
REMARK                         _______ _______ _______ _____ _____    ______ ____
ROOT
ATOM      1  O   UNL     1       0.466  11.327  18.676  0.00  0.00    +0.000 OA
ENDROOT
BRANCH   1   5
ATOM      2  C   UNL     1      -3.162  12.636  20.307  0.00  0.00    +0.000 A 
ATOM      3  C   UNL     1      -3.092  12.053  19.038  0.00  0.00    +0.000 A 
ATOM      4  C   UNL     1      -1.857  11.676  18.505  0.00  0.00    +0.000 A 
ATOM      5  C   UNL     1      -0.667  11.901  19.204  0.00  0.00    +0.000 A 
ATOM      6  C   UNL     1      -0.722  12.569  20.420  0.00  0.00    +0.000 A 
ATOM      7  C   UNL     1      -1.954  12.961  20.941  0.00  0.00    +0.000 A 
BRANCH   2   8
ATOM      8  N   UNL     1      -4.420  12.857  20.907  0.00  0.00    +0.000 N 
ATOM      9  H   UNL     1      -4.879  12.005  21.174  0.00  0.00    +0.000 HD
BRANCH   8  18
ATOM     10  C   UNL     1      -7.489  13.374  21.748  0.00  0.00    +0.000 C 
ATOM     11  C   UNL     1      -6.815  14.642  22.303  0.00  0.00    +0.000 C 
ATOM     12  C   UNL     1      -7.916  15.725  22.334  0.00  0.00    +0.000 C 
ATOM     13  C   UNL     1      -6.102  14.429  23.659  0.00  0.00    +0.000 C 
ATOM     14  C   UNL     1      -5.434  15.791  23.939  0.00  0.00    +0.000 C 
ATOM     15  C   UNL     1      -5.015  16.258  22.534  0.00  0.00    +0.000 C 
ATOM     16  C   UNL     1      -5.482  15.082  21.614  0.00  0.00    +0.000 C 
ATOM     17  C   UNL     1      -5.582  15.518  20.164  0.00  0.00    +0.000 C 
ATOM     18  C   UNL     1      -4.468  13.927  21.924  0.00  0.00    +0.000 C 
ATOM     19  C   UNL     1      -4.967  13.440  23.315  0.00  0.00    +0.000 C 
ENDBRANCH   8  18
ENDBRANCH   2   8
ENDBRANCH   1   5
BRANCH   1  20
ATOM     20  C   UNL     1       0.835  10.036  18.983  0.00  0.00    +0.000 A 
ATOM     21  C   UNL     1       1.508   9.327  17.987  0.00  0.00    +0.000 A 
ATOM     22  C   UNL     1       2.115   8.096  18.280  0.00  0.00    +0.000 A 
ATOM     23  C   UNL     1       2.110   7.575  19.579  0.00  0.00    +0.000 A 
ATOM     24  C   UNL     1       1.331   8.241  20.535  0.00  0.00    +0.000 A 
ATOM     25  C   UNL     1       0.718   9.475  20.251  0.00  0.00    +0.000 A 
BRANCH  23  26
ATOM     26  N   UNL     1       2.819   6.376  19.809  0.00  0.00    +0.000 N 
ATOM     27  H   UNL     1       3.381   6.201  18.977  0.00  0.00    +0.000 HD
BRANCH  26  28
ATOM     28  C   UNL     1       2.067   5.175  20.205  0.00  0.00    +0.000 C 
ATOM     29  C   UNL     1       2.716   4.402  21.376  0.00  0.00    +0.000 C 
ATOM     30  C   UNL     1       2.777   2.930  20.866  0.00  0.00    +0.000 C 
ATOM     31  C   UNL     1       1.332   2.413  20.774  0.00  0.00    +0.000 C 
ATOM     32  C   UNL     1       0.781   3.172  19.556  0.00  0.00    +0.000 C 
ATOM     33  C   UNL     1       1.999   4.057  19.105  0.00  0.00    +0.000 C 
ATOM     34  C   UNL     1       1.796   4.547  17.682  0.00  0.00    +0.000 C 
ATOM     35  C   UNL     1       3.199   3.086  19.384  0.00  0.00    +0.000 C 
ATOM     36  C   UNL     1       4.653   3.579  19.286  0.00  0.00    +0.000 C 
ATOM     37  C   UNL     1       3.155   1.797  18.524  0.00  0.00    +0.000 C 
ENDBRANCH  26  28
ENDBRANCH  23  26
ENDBRANCH   1  20
TORSDOF 6
ENDMDL
MODEL 7
REMARK VINA RESULT:      -8.8      1.125      1.794
REMARK  Name = 
REMARK  12 active torsions:
REMARK  status: ('A' for Active; 'I' for Inactive)
REMARK    1  A    between atoms: C_1  and  C_2
REMARK    2  A    between atoms: C_2  and  C_3
REMARK    3  A    between atoms: C_7  and  C_8
REMARK    4  A    between atoms: C_9  and  N_10
REMARK    5  A    between atoms: N_10  and  C_11
REMARK    6  A    between atoms: C_14  and  O_15
REMARK    7  A    between atoms: O_15  and  C_16
REMARK    8  A    between atoms: C_19  and  N_20
REMARK    9  A    between atoms: N_20  and  C_21
REMARK   10  A    between atoms: C_26  and  C_27
REMARK   11  A    between atoms: C_28  and  C_29
REMARK   12  A    between atoms: C_28  and  C_30
REMARK                            x       y       z     vdW  Elec       q    Type
REMARK                         _______ _______ _______ _____ _____    ______ ____
ROOT
ATOM      1  O   UNL     1       0.641  10.780  18.101  0.00  0.00    +0.000 OA
ENDROOT
BRANCH   1   5
ATOM      2  C   UNL     1       2.406   7.266  19.542  0.00  0.00    +0.000 A 
ATOM      3  C   UNL     1       1.611   8.079  20.356  0.00  0.00    +0.000 A 
ATOM      4  C   UNL     1       1.082   9.271  19.855  0.00  0.00    +0.000 A 
ATOM      5  C   UNL     1       1.358   9.695  18.552  0.00  0.00    +0.000 A 
ATOM      6  C   UNL     1       2.227   8.942  17.774  0.00  0.00    +0.000 A 
ATOM      7  C   UNL     1       2.769   7.763  18.282  0.00  0.00    +0.000 A 
BRANCH   2   8
ATOM      8  N   UNL     1       2.795   5.988  19.996  0.00  0.00    +0.000 N 
ATOM      9  H   UNL     1       3.149   6.000  20.937  0.00  0.00    +0.000 HD
BRANCH   8  18
ATOM     10  C   UNL     1       4.389   3.187  20.079  0.00  0.00    +0.000 C 
ATOM     11  C   UNL     1       3.096   2.768  19.356  0.00  0.00    +0.000 C 
ATOM     12  C   UNL     1       3.473   1.542  18.496  0.00  0.00    +0.000 C 
ATOM     13  C   UNL     1       1.898   2.527  20.305  0.00  0.00    +0.000 C 
ATOM     14  C   UNL     1       0.727   2.229  19.347  0.00  0.00    +0.000 C 
ATOM     15  C   UNL     1       1.020   3.156  18.154  0.00  0.00    +0.000 C 
ATOM     16  C   UNL     1       2.328   3.894  18.591  0.00  0.00    +0.000 C 
ATOM     17  C   UNL     1       3.041   4.510  17.400  0.00  0.00    +0.000 C 
ATOM     18  C   UNL     1       1.853   4.888  19.707  0.00  0.00    +0.000 C 
ATOM     19  C   UNL     1       1.634   3.925  20.909  0.00  0.00    +0.000 C 
ENDBRANCH   8  18
ENDBRANCH   2   8
ENDBRANCH   1   5
BRANCH   1  20
ATOM     20  C   UNL     1      -0.504  11.205  18.735  0.00  0.00    +0.000 A 
ATOM     21  C   UNL     1      -0.346  12.190  19.711  0.00  0.00    +0.000 A 
ATOM     22  C   UNL     1      -1.466  12.841  20.250  0.00  0.00    +0.000 A 
ATOM     23  C   UNL     1      -2.759  12.563  19.789  0.00  0.00    +0.000 A 
ATOM     24  C   UNL     1      -2.906  11.491  18.898  0.00  0.00    +0.000 A 
ATOM     25  C   UNL     1      -1.789  10.833  18.353  0.00  0.00    +0.000 A 
BRANCH  23  26
ATOM     26  N   UNL     1      -3.823  13.324  20.319  0.00  0.00    +0.000 N 
ATOM     27  H   UNL     1      -3.479  14.277  20.429  0.00  0.00    +0.000 HD
BRANCH  26  28
ATOM     28  C   UNL     1      -4.486  12.854  21.546  0.00  0.00    +0.000 C 
ATOM     29  C   UNL     1      -5.995  12.571  21.359  0.00  0.00    +0.000 C 
ATOM     30  C   UNL     1      -6.670  13.347  22.530  0.00  0.00    +0.000 C 
ATOM     31  C   UNL     1      -6.273  12.644  23.839  0.00  0.00    +0.000 C 
ATOM     32  C   UNL     1      -4.791  13.025  23.988  0.00  0.00    +0.000 C 
ATOM     33  C   UNL     1      -4.518  13.902  22.713  0.00  0.00    +0.000 C 
ATOM     34  C   UNL     1      -3.250  14.719  22.897  0.00  0.00    +0.000 C 
ATOM     35  C   UNL     1      -5.876  14.675  22.580  0.00  0.00    +0.000 C 
ATOM     36  C   UNL     1      -6.180  15.532  21.338  0.00  0.00    +0.000 C 
ATOM     37  C   UNL     1      -6.173  15.602  23.786  0.00  0.00    +0.000 C 
ENDBRANCH  26  28
ENDBRANCH  23  26
ENDBRANCH   1  20
TORSDOF 6
ENDMDL
MODEL 8
REMARK VINA RESULT:      -8.7      8.221     10.157
REMARK  Name = 
REMARK  12 active torsions:
REMARK  status: ('A' for Active; 'I' for Inactive)
REMARK    1  A    between atoms: C_1  and  C_2
REMARK    2  A    between atoms: C_2  and  C_3
REMARK    3  A    between atoms: C_7  and  C_8
REMARK    4  A    between atoms: C_9  and  N_10
REMARK    5  A    between atoms: N_10  and  C_11
REMARK    6  A    between atoms: C_14  and  O_15
REMARK    7  A    between atoms: O_15  and  C_16
REMARK    8  A    between atoms: C_19  and  N_20
REMARK    9  A    between atoms: N_20  and  C_21
REMARK   10  A    between atoms: C_26  and  C_27
REMARK   11  A    between atoms: C_28  and  C_29
REMARK   12  A    between atoms: C_28  and  C_30
REMARK                            x       y       z     vdW  Elec       q    Type
REMARK                         _______ _______ _______ _____ _____    ______ ____
ROOT
ATOM      1  O   UNL     1       8.372   8.649  17.315  0.00  0.00    +0.000 OA
ENDROOT
BRANCH   1   5
ATOM      2  C   UNL     1       5.720   5.502  18.093  0.00  0.00    +0.000 A 
ATOM      3  C   UNL     1       5.355   6.596  17.302  0.00  0.00    +0.000 A 
ATOM      4  C   UNL     1       6.248   7.651  17.107  0.00  0.00    +0.000 A 
ATOM      5  C   UNL     1       7.505   7.660  17.719  0.00  0.00    +0.000 A 
ATOM      6  C   UNL     1       7.834   6.625  18.585  0.00  0.00    +0.000 A 
ATOM      7  C   UNL     1       6.933   5.582  18.792  0.00  0.00    +0.000 A 
BRANCH   2   8
ATOM      8  N   UNL     1       4.884   4.367  18.147  0.00  0.00    +0.000 N 
ATOM      9  H   UNL     1       5.343   3.530  17.831  0.00  0.00    +0.000 HD
BRANCH   8  18
ATOM     10  C   UNL     1       2.612   2.131  17.667  0.00  0.00    +0.000 C 
ATOM     11  C   UNL     1       2.092   2.808  18.948  0.00  0.00    +0.000 C 
ATOM     12  C   UNL     1       0.563   2.589  18.950  0.00  0.00    +0.000 C 
ATOM     13  C   UNL     1       2.798   2.331  20.239  0.00  0.00    +0.000 C 
ATOM     14  C   UNL     1       2.183   3.217  21.341  0.00  0.00    +0.000 C 
ATOM     15  C   UNL     1       1.988   4.564  20.625  0.00  0.00    +0.000 C 
ATOM     16  C   UNL     1       2.542   4.286  19.188  0.00  0.00    +0.000 C 
ATOM     17  C   UNL     1       2.041   5.316  18.192  0.00  0.00    +0.000 C 
ATOM     18  C   UNL     1       4.096   4.207  19.385  0.00  0.00    +0.000 C 
ATOM     19  C   UNL     1       4.255   2.808  20.047  0.00  0.00    +0.000 C 
ENDBRANCH   8  18
ENDBRANCH   2   8
ENDBRANCH   1   5
BRANCH   1  20
ATOM     20  C   UNL     1       8.572   9.787  18.062  0.00  0.00    +0.000 A 
ATOM     21  C   UNL     1       9.270   9.631  19.261  0.00  0.00    +0.000 A 
ATOM     22  C   UNL     1       9.712  10.754  19.976  0.00  0.00    +0.000 A 
ATOM     23  C   UNL     1       9.518  12.051  19.484  0.00  0.00    +0.000 A 
ATOM     24  C   UNL     1       8.715  12.191  18.343  0.00  0.00    +0.000 A 
ATOM     25  C   UNL     1       8.266  11.071  17.621  0.00  0.00    +0.000 A 
BRANCH  23  26
ATOM     26  N   UNL     1      10.071  13.122  20.218  0.00  0.00    +0.000 N 
ATOM     27  H   UNL     1      11.082  12.985  20.224  0.00  0.00    +0.000 HD
BRANCH  26  28
ATOM     28  C   UNL     1       9.563  13.388  21.573  0.00  0.00    +0.000 C 
ATOM     29  C   UNL     1       8.130  12.855  21.808  0.00  0.00    +0.000 C 
ATOM     30  C   UNL     1       7.368  14.077  22.403  0.00  0.00    +0.000 C 
ATOM     31  C   UNL     1       7.948  14.346  23.802  0.00  0.00    +0.000 C 
ATOM     32  C   UNL     1       9.333  14.931  23.484  0.00  0.00    +0.000 C 
ATOM     33  C   UNL     1       9.379  14.909  21.913  0.00  0.00    +0.000 C 
ATOM     34  C   UNL     1      10.473  15.833  21.404  0.00  0.00    +0.000 C 
ATOM     35  C   UNL     1       7.893  15.266  21.562  0.00  0.00    +0.000 C 
ATOM     36  C   UNL     1       7.378  15.172  20.115  0.00  0.00    +0.000 C 
ATOM     37  C   UNL     1       7.474  16.679  22.043  0.00  0.00    +0.000 C 
ENDBRANCH  26  28
ENDBRANCH  23  26
ENDBRANCH   1  20
TORSDOF 6
ENDMDL
MODEL 9
REMARK VINA RESULT:      -8.7      8.210     10.399
REMARK  Name = 
REMARK  12 active torsions:
REMARK  status: ('A' for Active; 'I' for Inactive)
REMARK    1  A    between atoms: C_1  and  C_2
REMARK    2  A    between atoms: C_2  and  C_3
REMARK    3  A    between atoms: C_7  and  C_8
REMARK    4  A    between atoms: C_9  and  N_10
REMARK    5  A    between atoms: N_10  and  C_11
REMARK    6  A    between atoms: C_14  and  O_15
REMARK    7  A    between atoms: O_15  and  C_16
REMARK    8  A    between atoms: C_19  and  N_20
REMARK    9  A    between atoms: N_20  and  C_21
REMARK   10  A    between atoms: C_26  and  C_27
REMARK   11  A    between atoms: C_28  and  C_29
REMARK   12  A    between atoms: C_28  and  C_30
REMARK                            x       y       z     vdW  Elec       q    Type
REMARK                         _______ _______ _______ _____ _____    ______ ____
ROOT
ATOM      1  O   UNL     1       8.544   8.507  17.494  0.00  0.00    +0.000 OA
ENDROOT
BRANCH   1   5
ATOM      2  C   UNL     1       5.793   5.435  18.224  0.00  0.00    +0.000 A 
ATOM      3  C   UNL     1       5.487   6.515  17.390  0.00  0.00    +0.000 A 
ATOM      4  C   UNL     1       6.411   7.547  17.211  0.00  0.00    +0.000 A 
ATOM      5  C   UNL     1       7.638   7.546  17.882  0.00  0.00    +0.000 A 
ATOM      6  C   UNL     1       7.905   6.528  18.786  0.00  0.00    +0.000 A 
ATOM      7  C   UNL     1       6.973   5.508  18.977  0.00  0.00    +0.000 A 
BRANCH   2   8
ATOM      8  N   UNL     1       4.932   4.318  18.266  0.00  0.00    +0.000 N 
ATOM      9  H   UNL     1       5.393   3.460  18.020  0.00  0.00    +0.000 HD
BRANCH   8  18
ATOM     10  C   UNL     1       2.701   2.048  17.754  0.00  0.00    +0.000 C 
ATOM     11  C   UNL     1       2.089   2.796  18.952  0.00  0.00    +0.000 C 
ATOM     12  C   UNL     1       0.564   2.570  18.855  0.00  0.00    +0.000 C 
ATOM     13  C   UNL     1       2.699   2.397  20.317  0.00  0.00    +0.000 C 
ATOM     14  C   UNL     1       2.005   3.343  21.318  0.00  0.00    +0.000 C 
ATOM     15  C   UNL     1       1.863   4.645  20.512  0.00  0.00    +0.000 C 
ATOM     16  C   UNL     1       2.520   4.287  19.138  0.00  0.00    +0.000 C 
ATOM     17  C   UNL     1       2.093   5.255  18.050  0.00  0.00    +0.000 C 
ATOM     18  C   UNL     1       4.055   4.226  19.451  0.00  0.00    +0.000 C 
ATOM     19  C   UNL     1       4.166   2.869  20.203  0.00  0.00    +0.000 C 
ENDBRANCH   8  18
ENDBRANCH   2   8
ENDBRANCH   1   5
BRANCH   1  20
ATOM     20  C   UNL     1       8.612   9.732  18.118  0.00  0.00    +0.000 A 
ATOM     21  C   UNL     1       9.237   9.761  19.366  0.00  0.00    +0.000 A 
ATOM     22  C   UNL     1       9.550  10.986  19.973  0.00  0.00    +0.000 A 
ATOM     23  C   UNL     1       9.298  12.203  19.328  0.00  0.00    +0.000 A 
ATOM     24  C   UNL     1       8.565  12.156  18.133  0.00  0.00    +0.000 A 
ATOM     25  C   UNL     1       8.246  10.932  17.517  0.00  0.00    +0.000 A 
BRANCH  23  26
ATOM     26  N   UNL     1       9.724  13.387  19.967  0.00  0.00    +0.000 N 
ATOM     27  H   UNL     1       9.764  13.185  20.966  0.00  0.00    +0.000 HD
BRANCH  26  28
ATOM     28  C   UNL     1       8.989  14.635  19.706  0.00  0.00    +0.000 C 
ATOM     29  C   UNL     1       9.912  15.843  19.421  0.00  0.00    +0.000 C 
ATOM     30  C   UNL     1       9.387  16.952  20.382  0.00  0.00    +0.000 C 
ATOM     31  C   UNL     1       7.991  17.367  19.888  0.00  0.00    +0.000 C 
ATOM     32  C   UNL     1       7.127  16.154  20.265  0.00  0.00    +0.000 C 
ATOM     33  C   UNL     1       8.160  15.170  20.926  0.00  0.00    +0.000 C 
ATOM     34  C   UNL     1       7.434  14.114  21.742  0.00  0.00    +0.000 C 
ATOM     35  C   UNL     1       9.090  16.177  21.689  0.00  0.00    +0.000 C 
ATOM     36  C   UNL     1      10.399  15.703  22.344  0.00  0.00    +0.000 C 
ATOM     37  C   UNL     1       8.353  16.970  22.799  0.00  0.00    +0.000 C 
ENDBRANCH  26  28
ENDBRANCH  23  26
ENDBRANCH   1  20
TORSDOF 6
ENDMDL
