MODEL 1
REMARK VINA RESULT:      -6.8      0.000      0.000
REMARK  Name = 
REMARK  6 active torsions:
REMARK  status: ('A' for Active; 'I' for Inactive)
REMARK    1  A    between atoms: C_1  and  C_2
REMARK    2  A    between atoms: C_4  and  C_5
REMARK    3  A    between atoms: N_7  and  C_8
REMARK    4  A    between atoms: C_9  and  C_10
REMARK    5  A    between atoms: C_11  and  N_12
REMARK    6  A    between atoms: N_14  and  C_15
REMARK                            x       y       z     vdW  Elec       q    Type
REMARK                         _______ _______ _______ _____ _____    ______ ____
ROOT
ATOM      1  C   UNL     1       4.472   6.379  17.280  0.00  0.00    +0.000 A 
ATOM      2  N   UNL     1       3.777   7.496  17.018  0.00  0.00    +0.000 NA
ATOM      3  N   UNL     1       2.876   7.574  18.013  0.00  0.00    +0.000 N 
ATOM      4  C   UNL     1       1.906   8.646  17.996  0.00  0.00    +0.000 C 
ATOM      5  C   UNL     1       3.017   6.589  18.956  0.00  0.00    +0.000 A 
ATOM      6  C   UNL     1       2.215   6.528  20.208  0.00  0.00    +0.000 C 
ATOM      7  C   UNL     1       4.052   5.780  18.494  0.00  0.00    +0.000 A 
ENDROOT
BRANCH   1  11
ATOM      8  C   UNL     1       6.938   4.179  13.459  0.00  0.00    +0.000 C 
ATOM      9  C   UNL     1       6.465   4.886  14.661  0.00  0.00    +0.000 A 
ATOM     10  C   UNL     1       5.243   5.033  15.269  0.00  0.00    +0.000 A 
ATOM     11  C   UNL     1       5.503   5.891  16.358  0.00  0.00    +0.000 A 
ATOM     12  N   UNL     1       6.803   6.197  16.447  0.00  0.00    +0.000 NA
ATOM     13  O   UNL     1       7.403   5.574  15.365  0.00  0.00    +0.000 OA
ENDBRANCH   1  11
BRANCH   7  14
ATOM     14  N   UNL     1       4.581   4.627  19.134  0.00  0.00    +0.000 N 
ATOM     15  O   UNL     1       5.805   4.704  19.494  0.00  0.00    +0.000 OA
ATOM     16  N   UNL     1       3.840   3.610  19.219  0.00  0.00    +0.000 NA
BRANCH  16  17
ATOM     17  C   UNL     1       4.434   2.582  19.830  0.00  0.00    +0.000 C 
ATOM     18  N   UNL     1       4.998   1.695  20.316  0.00  0.00    +0.000 NA
ENDBRANCH  16  17
ENDBRANCH   7  14
TORSDOF 3
ENDMDL
MODEL 2
REMARK VINA RESULT:      -6.4      2.264      4.748
REMARK  Name = 
REMARK  6 active torsions:
REMARK  status: ('A' for Active; 'I' for Inactive)
REMARK    1  A    between atoms: C_1  and  C_2
REMARK    2  A    between atoms: C_4  and  C_5
REMARK    3  A    between atoms: N_7  and  C_8
REMARK    4  A    between atoms: C_9  and  C_10
REMARK    5  A    between atoms: C_11  and  N_12
REMARK    6  A    between atoms: N_14  and  C_15
REMARK                            x       y       z     vdW  Elec       q    Type
REMARK                         _______ _______ _______ _____ _____    ______ ____
ROOT
ATOM      1  C   UNL     1       3.107   5.225  19.364  0.00  0.00    +0.000 A 
ATOM      2  N   UNL     1       2.286   4.897  20.374  0.00  0.00    +0.000 NA
ATOM      3  N   UNL     1       2.651   3.648  20.712  0.00  0.00    +0.000 N 
ATOM      4  C   UNL     1       1.908   2.958  21.744  0.00  0.00    +0.000 C 
ATOM      5  C   UNL     1       3.733   3.186  20.010  0.00  0.00    +0.000 A 
ATOM      6  C   UNL     1       4.393   1.880  20.282  0.00  0.00    +0.000 C 
ATOM      7  C   UNL     1       4.048   4.197  19.107  0.00  0.00    +0.000 A 
ENDROOT
BRANCH   1  11
ATOM      8  C   UNL     1       1.857   9.924  17.998  0.00  0.00    +0.000 C 
ATOM      9  C   UNL     1       2.344   8.544  18.156  0.00  0.00    +0.000 A 
ATOM     10  C   UNL     1       2.129   7.551  19.079  0.00  0.00    +0.000 A 
ATOM     11  C   UNL     1       2.961   6.497  18.649  0.00  0.00    +0.000 A 
ATOM     12  N   UNL     1       3.594   6.800  17.509  0.00  0.00    +0.000 NA
ATOM     13  O   UNL     1       3.214   8.099  17.211  0.00  0.00    +0.000 OA
ENDBRANCH   1  11
BRANCH   7  14
ATOM     14  N   UNL     1       5.110   4.194  18.163  0.00  0.00    +0.000 N 
ATOM     15  O   UNL     1       4.831   3.702  17.016  0.00  0.00    +0.000 OA
ATOM     16  N   UNL     1       6.243   4.591  18.550  0.00  0.00    +0.000 NA
BRANCH  16  17
ATOM     17  C   UNL     1       7.169   4.540  17.588  0.00  0.00    +0.000 C 
ATOM     18  N   UNL     1       7.937   4.541  16.722  0.00  0.00    +0.000 NA
ENDBRANCH  16  17
ENDBRANCH   7  14
TORSDOF 3
ENDMDL
MODEL 3
REMARK VINA RESULT:      -6.4      2.281      3.765
REMARK  Name = 
REMARK  6 active torsions:
REMARK  status: ('A' for Active; 'I' for Inactive)
REMARK    1  A    between atoms: C_1  and  C_2
REMARK    2  A    between atoms: C_4  and  C_5
REMARK    3  A    between atoms: N_7  and  C_8
REMARK    4  A    between atoms: C_9  and  C_10
REMARK    5  A    between atoms: C_11  and  N_12
REMARK    6  A    between atoms: N_14  and  C_15
REMARK                            x       y       z     vdW  Elec       q    Type
REMARK                         _______ _______ _______ _____ _____    ______ ____
ROOT
ATOM      1  C   UNL     1       5.452   4.712  16.259  0.00  0.00    +0.000 A 
ATOM      2  N   UNL     1       4.353   3.943  16.303  0.00  0.00    +0.000 NA
ATOM      3  N   UNL     1       3.896   4.083  17.559  0.00  0.00    +0.000 N 
ATOM      4  C   UNL     1       2.738   3.320  17.971  0.00  0.00    +0.000 C 
ATOM      5  C   UNL     1       4.614   4.981  18.306  0.00  0.00    +0.000 A 
ATOM      6  C   UNL     1       4.236   5.392  19.685  0.00  0.00    +0.000 C 
ATOM      7  C   UNL     1       5.652   5.403  17.480  0.00  0.00    +0.000 A 
ENDROOT
BRANCH   1  11
ATOM      8  C   UNL     1       7.349   4.137  11.612  0.00  0.00    +0.000 C 
ATOM      9  C   UNL     1       7.029   4.430  13.019  0.00  0.00    +0.000 A 
ATOM     10  C   UNL     1       6.014   4.064  13.868  0.00  0.00    +0.000 A 
ATOM     11  C   UNL     1       6.302   4.754  15.064  0.00  0.00    +0.000 A 
ATOM     12  N   UNL     1       7.446   5.444  14.973  0.00  0.00    +0.000 NA
ATOM     13  O   UNL     1       7.892   5.250  13.676  0.00  0.00    +0.000 OA
ENDBRANCH   1  11
BRANCH   7  14
ATOM     14  N   UNL     1       6.663   6.348  17.800  0.00  0.00    +0.000 N 
ATOM     15  O   UNL     1       7.548   5.953  18.633  0.00  0.00    +0.000 OA
ATOM     16  N   UNL     1       6.562   7.506  17.311  0.00  0.00    +0.000 NA
BRANCH  16  17
ATOM     17  C   UNL     1       7.558   8.316  17.680  0.00  0.00    +0.000 C 
ATOM     18  N   UNL     1       8.385   9.069  17.980  0.00  0.00    +0.000 NA
ENDBRANCH  16  17
ENDBRANCH   7  14
TORSDOF 3
ENDMDL
MODEL 4
REMARK VINA RESULT:      -6.3      2.440      4.492
REMARK  Name = 
REMARK  6 active torsions:
REMARK  status: ('A' for Active; 'I' for Inactive)
REMARK    1  A    between atoms: C_1  and  C_2
REMARK    2  A    between atoms: C_4  and  C_5
REMARK    3  A    between atoms: N_7  and  C_8
REMARK    4  A    between atoms: C_9  and  C_10
REMARK    5  A    between atoms: C_11  and  N_12
REMARK    6  A    between atoms: N_14  and  C_15
REMARK                            x       y       z     vdW  Elec       q    Type
REMARK                         _______ _______ _______ _____ _____    ______ ____
ROOT
ATOM      1  C   UNL     1       4.769   4.673  18.515  0.00  0.00    +0.000 A 
ATOM      2  N   UNL     1       4.859   3.340  18.385  0.00  0.00    +0.000 NA
ATOM      3  N   UNL     1       3.594   2.903  18.512  0.00  0.00    +0.000 N 
ATOM      4  C   UNL     1       3.341   1.479  18.489  0.00  0.00    +0.000 C 
ATOM      5  C   UNL     1       2.677   3.914  18.639  0.00  0.00    +0.000 A 
ATOM      6  C   UNL     1       1.206   3.689  18.680  0.00  0.00    +0.000 C 
ATOM      7  C   UNL     1       3.422   5.090  18.655  0.00  0.00    +0.000 A 
ENDROOT
BRANCH   1  11
ATOM      8  C   UNL     1       8.195   8.272  17.611  0.00  0.00    +0.000 C 
ATOM      9  C   UNL     1       7.383   7.123  18.042  0.00  0.00    +0.000 A 
ATOM     10  C   UNL     1       6.183   6.591  17.639  0.00  0.00    +0.000 A 
ATOM     11  C   UNL     1       5.967   5.518  18.527  0.00  0.00    +0.000 A 
ATOM     12  N   UNL     1       6.992   5.365  19.375  0.00  0.00    +0.000 NA
ATOM     13  O   UNL     1       7.874   6.390  19.076  0.00  0.00    +0.000 OA
ENDBRANCH   1  11
BRANCH   7  14
ATOM     14  N   UNL     1       2.918   6.414  18.758  0.00  0.00    +0.000 N 
ATOM     15  O   UNL     1       2.543   6.776  19.925  0.00  0.00    +0.000 OA
ATOM     16  N   UNL     1       2.803   7.084  17.696  0.00  0.00    +0.000 NA
BRANCH  16  17
ATOM     17  C   UNL     1       2.314   8.310  17.903  0.00  0.00    +0.000 C 
ATOM     18  N   UNL     1       1.866   9.371  18.023  0.00  0.00    +0.000 NA
ENDBRANCH  16  17
ENDBRANCH   7  14
TORSDOF 3
ENDMDL
MODEL 5
REMARK VINA RESULT:      -6.3      1.990      4.082
REMARK  Name = 
REMARK  6 active torsions:
REMARK  status: ('A' for Active; 'I' for Inactive)
REMARK    1  A    between atoms: C_1  and  C_2
REMARK    2  A    between atoms: C_4  and  C_5
REMARK    3  A    between atoms: N_7  and  C_8
REMARK    4  A    between atoms: C_9  and  C_10
REMARK    5  A    between atoms: C_11  and  N_12
REMARK    6  A    between atoms: N_14  and  C_15
REMARK                            x       y       z     vdW  Elec       q    Type
REMARK                         _______ _______ _______ _____ _____    ______ ____
ROOT
ATOM      1  C   UNL     1       4.521   3.868  18.859  0.00  0.00    +0.000 A 
ATOM      2  N   UNL     1       4.637   2.801  19.664  0.00  0.00    +0.000 NA
ATOM      3  N   UNL     1       3.560   2.866  20.466  0.00  0.00    +0.000 N 
ATOM      4  C   UNL     1       3.410   1.884  21.517  0.00  0.00    +0.000 C 
ATOM      5  C   UNL     1       2.708   3.893  20.153  0.00  0.00    +0.000 A 
ATOM      6  C   UNL     1       1.394   4.103  20.821  0.00  0.00    +0.000 C 
ATOM      7  C   UNL     1       3.319   4.577  19.107  0.00  0.00    +0.000 A 
ENDROOT
BRANCH   1  11
ATOM      8  C   UNL     1       7.090   4.897  14.633  0.00  0.00    +0.000 C 
ATOM      9  C   UNL     1       6.581   4.623  15.987  0.00  0.00    +0.000 A 
ATOM     10  C   UNL     1       5.376   4.200  16.491  0.00  0.00    +0.000 A 
ATOM     11  C   UNL     1       5.567   4.204  17.887  0.00  0.00    +0.000 A 
ATOM     12  N   UNL     1       6.820   4.546  18.213  0.00  0.00    +0.000 NA
ATOM     13  O   UNL     1       7.451   4.826  17.012  0.00  0.00    +0.000 OA
ENDBRANCH   1  11
BRANCH   7  14
ATOM     14  N   UNL     1       2.815   5.717  18.426  0.00  0.00    +0.000 N 
ATOM     15  O   UNL     1       1.915   5.487  17.549  0.00  0.00    +0.000 OA
ATOM     16  N   UNL     1       3.345   6.834  18.677  0.00  0.00    +0.000 NA
BRANCH  16  17
ATOM     17  C   UNL     1       2.803   7.836  17.980  0.00  0.00    +0.000 C 
ATOM     18  N   UNL     1       2.297   8.720  17.429  0.00  0.00    +0.000 NA
ENDBRANCH  16  17
ENDBRANCH   7  14
TORSDOF 3
ENDMDL
MODEL 6
REMARK VINA RESULT:      -6.2      1.519      3.839
REMARK  Name = 
REMARK  6 active torsions:
REMARK  status: ('A' for Active; 'I' for Inactive)
REMARK    1  A    between atoms: C_1  and  C_2
REMARK    2  A    between atoms: C_4  and  C_5
REMARK    3  A    between atoms: N_7  and  C_8
REMARK    4  A    between atoms: C_9  and  C_10
REMARK    5  A    between atoms: C_11  and  N_12
REMARK    6  A    between atoms: N_14  and  C_15
REMARK                            x       y       z     vdW  Elec       q    Type
REMARK                         _______ _______ _______ _____ _____    ______ ____
ROOT
ATOM      1  C   UNL     1       4.588   4.353  18.352  0.00  0.00    +0.000 A 
ATOM      2  N   UNL     1       4.431   3.219  19.051  0.00  0.00    +0.000 NA
ATOM      3  N   UNL     1       3.484   3.511  19.959  0.00  0.00    +0.000 N 
ATOM      4  C   UNL     1       3.117   2.509  20.935  0.00  0.00    +0.000 C 
ATOM      5  C   UNL     1       2.964   4.772  19.820  0.00  0.00    +0.000 A 
ATOM      6  C   UNL     1       1.827   5.287  20.631  0.00  0.00    +0.000 C 
ATOM      7  C   UNL     1       3.679   5.354  18.777  0.00  0.00    +0.000 A 
ENDROOT
BRANCH   1  11
ATOM      8  C   UNL     1       7.040   4.686  13.948  0.00  0.00    +0.000 C 
ATOM      9  C   UNL     1       6.572   4.593  15.341  0.00  0.00    +0.000 A 
ATOM     10  C   UNL     1       5.352   4.374  15.931  0.00  0.00    +0.000 A 
ATOM     11  C   UNL     1       5.616   4.469  17.312  0.00  0.00    +0.000 A 
ATOM     12  N   UNL     1       6.917   4.670  17.554  0.00  0.00    +0.000 NA
ATOM     13  O   UNL     1       7.513   4.764  16.307  0.00  0.00    +0.000 OA
ENDBRANCH   1  11
BRANCH   7  14
ATOM     14  N   UNL     1       3.499   6.660  18.247  0.00  0.00    +0.000 N 
ATOM     15  O   UNL     1       4.536   7.196  17.727  0.00  0.00    +0.000 OA
ATOM     16  N   UNL     1       2.374   7.208  18.405  0.00  0.00    +0.000 NA
BRANCH  16  17
ATOM     17  C   UNL     1       2.314   8.434  17.877  0.00  0.00    +0.000 C 
ATOM     18  N   UNL     1       2.205   9.505  17.451  0.00  0.00    +0.000 NA
ENDBRANCH  16  17
ENDBRANCH   7  14
TORSDOF 3
ENDMDL
MODEL 7
REMARK VINA RESULT:      -6.2      2.206      5.182
REMARK  Name = 
REMARK  6 active torsions:
REMARK  status: ('A' for Active; 'I' for Inactive)
REMARK    1  A    between atoms: C_1  and  C_2
REMARK    2  A    between atoms: C_4  and  C_5
REMARK    3  A    between atoms: N_7  and  C_8
REMARK    4  A    between atoms: C_9  and  C_10
REMARK    5  A    between atoms: C_11  and  N_12
REMARK    6  A    between atoms: N_14  and  C_15
REMARK                            x       y       z     vdW  Elec       q    Type
REMARK                         _______ _______ _______ _____ _____    ______ ____
ROOT
ATOM      1  C   UNL     1       2.765   5.993  19.369  0.00  0.00    +0.000 A 
ATOM      2  N   UNL     1       2.081   5.484  20.404  0.00  0.00    +0.000 NA
ATOM      3  N   UNL     1       2.587   4.249  20.568  0.00  0.00    +0.000 N 
ATOM      4  C   UNL     1       2.015   3.386  21.577  0.00  0.00    +0.000 C 
ATOM      5  C   UNL     1       3.634   3.972  19.726  0.00  0.00    +0.000 A 
ATOM      6  C   UNL     1       4.432   2.718  19.793  0.00  0.00    +0.000 C 
ATOM      7  C   UNL     1       3.766   5.097  18.918  0.00  0.00    +0.000 A 
ENDROOT
BRANCH   1  11
ATOM      8  C   UNL     1       1.133  10.729  18.717  0.00  0.00    +0.000 C 
ATOM      9  C   UNL     1       1.677   9.363  18.646  0.00  0.00    +0.000 A 
ATOM     10  C   UNL     1       1.693   8.291  19.504  0.00  0.00    +0.000 A 
ATOM     11  C   UNL     1       2.437   7.311  18.815  0.00  0.00    +0.000 A 
ATOM     12  N   UNL     1       2.798   7.731  17.596  0.00  0.00    +0.000 NA
ATOM     13  O   UNL     1       2.331   9.032  17.501  0.00  0.00    +0.000 OA
ENDBRANCH   1  11
BRANCH   7  14
ATOM     14  N   UNL     1       4.726   5.297  17.890  0.00  0.00    +0.000 N 
ATOM     15  O   UNL     1       4.448   4.768  16.760  0.00  0.00    +0.000 OA
ATOM     16  N   UNL     1       5.795   5.897  18.191  0.00  0.00    +0.000 NA
BRANCH  16  17
ATOM     17  C   UNL     1       6.629   6.025  17.156  0.00  0.00    +0.000 C 
ATOM     18  N   UNL     1       7.350   6.200  16.267  0.00  0.00    +0.000 NA
ENDBRANCH  16  17
ENDBRANCH   7  14
TORSDOF 3
ENDMDL
MODEL 8
REMARK VINA RESULT:      -6.1      2.772      5.371
REMARK  Name = 
REMARK  6 active torsions:
REMARK  status: ('A' for Active; 'I' for Inactive)
REMARK    1  A    between atoms: C_1  and  C_2
REMARK    2  A    between atoms: C_4  and  C_5
REMARK    3  A    between atoms: N_7  and  C_8
REMARK    4  A    between atoms: C_9  and  C_10
REMARK    5  A    between atoms: C_11  and  N_12
REMARK    6  A    between atoms: N_14  and  C_15
REMARK                            x       y       z     vdW  Elec       q    Type
REMARK                         _______ _______ _______ _____ _____    ______ ____
ROOT
ATOM      1  C   UNL     1       2.964   6.716  18.429  0.00  0.00    +0.000 A 
ATOM      2  N   UNL     1       3.737   7.155  17.425  0.00  0.00    +0.000 NA
ATOM      3  N   UNL     1       4.370   6.055  16.982  0.00  0.00    +0.000 N 
ATOM      4  C   UNL     1       5.349   6.189  15.926  0.00  0.00    +0.000 C 
ATOM      5  C   UNL     1       3.971   4.904  17.611  0.00  0.00    +0.000 A 
ATOM      6  C   UNL     1       4.441   3.548  17.219  0.00  0.00    +0.000 C 
ATOM      7  C   UNL     1       3.054   5.310  18.577  0.00  0.00    +0.000 A 
ENDROOT
BRANCH   1  11
ATOM      8  C   UNL     1       0.583   9.049  22.224  0.00  0.00    +0.000 C 
ATOM      9  C   UNL     1       1.170   8.564  20.965  0.00  0.00    +0.000 A 
ATOM     10  C   UNL     1       1.863   7.436  20.602  0.00  0.00    +0.000 A 
ATOM     11  C   UNL     1       2.174   7.646  19.243  0.00  0.00    +0.000 A 
ATOM     12  N   UNL     1       1.655   8.794  18.789  0.00  0.00    +0.000 NA
ATOM     13  O   UNL     1       1.037   9.377  19.883  0.00  0.00    +0.000 OA
ENDBRANCH   1  11
BRANCH   7  14
ATOM     14  N   UNL     1       2.348   4.473  19.483  0.00  0.00    +0.000 N 
ATOM     15  O   UNL     1       1.137   4.213  19.170  0.00  0.00    +0.000 OA
ATOM     16  N   UNL     1       2.935   4.131  20.546  0.00  0.00    +0.000 NA
BRANCH  16  17
ATOM     17  C   UNL     1       2.182   3.354  21.329  0.00  0.00    +0.000 C 
ATOM     18  N   UNL     1       1.584   2.651  22.029  0.00  0.00    +0.000 NA
ENDBRANCH  16  17
ENDBRANCH   7  14
TORSDOF 3
ENDMDL
MODEL 9
REMARK VINA RESULT:      -6.1      2.077      2.853
REMARK  Name = 
REMARK  6 active torsions:
REMARK  status: ('A' for Active; 'I' for Inactive)
REMARK    1  A    between atoms: C_1  and  C_2
REMARK    2  A    between atoms: C_4  and  C_5
REMARK    3  A    between atoms: N_7  and  C_8
REMARK    4  A    between atoms: C_9  and  C_10
REMARK    5  A    between atoms: C_11  and  N_12
REMARK    6  A    between atoms: N_14  and  C_15
REMARK                            x       y       z     vdW  Elec       q    Type
REMARK                         _______ _______ _______ _____ _____    ______ ____
ROOT
ATOM      1  C   UNL     1       4.314   4.401  19.148  0.00  0.00    +0.000 A 
ATOM      2  N   UNL     1       3.566   5.490  19.380  0.00  0.00    +0.000 NA
ATOM      3  N   UNL     1       2.619   5.071  20.237  0.00  0.00    +0.000 N 
ATOM      4  C   UNL     1       1.588   5.998  20.648  0.00  0.00    +0.000 C 
ATOM      5  C   UNL     1       2.778   3.768  20.633  0.00  0.00    +0.000 A 
ATOM      6  C   UNL     1       1.927   3.112  21.663  0.00  0.00    +0.000 C 
ATOM      7  C   UNL     1       3.879   3.298  19.924  0.00  0.00    +0.000 A 
ENDROOT
BRANCH   1  11
ATOM      8  C   UNL     1       7.066   4.652  14.919  0.00  0.00    +0.000 C 
ATOM      9  C   UNL     1       6.501   4.536  16.274  0.00  0.00    +0.000 A 
ATOM     10  C   UNL     1       5.226   4.470  16.779  0.00  0.00    +0.000 A 
ATOM     11  C   UNL     1       5.412   4.426  18.176  0.00  0.00    +0.000 A 
ATOM     12  N   UNL     1       6.711   4.404  18.501  0.00  0.00    +0.000 NA
ATOM     13  O   UNL     1       7.393   4.491  17.298  0.00  0.00    +0.000 OA
ENDBRANCH   1  11
BRANCH   7  14
ATOM     14  N   UNL     1       4.447   1.998  20.000  0.00  0.00    +0.000 N 
ATOM     15  O   UNL     1       4.133   1.198  19.054  0.00  0.00    +0.000 OA
ATOM     16  N   UNL     1       5.135   1.715  21.019  0.00  0.00    +0.000 NA
BRANCH  16  17
ATOM     17  C   UNL     1       5.615   0.469  20.995  0.00  0.00    +0.000 C 
ATOM     18  N   UNL     1       6.051  -0.603  21.035  0.00  0.00    +0.000 NA
ENDBRANCH  16  17
ENDBRANCH   7  14
TORSDOF 3
ENDMDL
