MODEL 1
REMARK VINA RESULT:      -8.8      0.000      0.000
REMARK  Name = 
REMARK  13 active torsions:
REMARK  status: ('A' for Active; 'I' for Inactive)
REMARK    1  A    between atoms: C_1  and  O_2
REMARK    2  A    between atoms: O_2  and  C_3
REMARK    3  A    between atoms: C_5  and  C_6
REMARK    4  A    between atoms: C_6  and  C_8
REMARK    5  A    between atoms: C_11  and  C_12
REMARK    6  A    between atoms: C_15  and  C_16
REMARK    7  A    between atoms: C_16  and  C_17
REMARK    8  A    between atoms: C_16  and  C_18
REMARK    9  A    between atoms: C_16  and  C_19
REMARK   10  A    between atoms: C_24  and  O_25
REMARK   11  A    between atoms: O_25  and  C_26
REMARK   12  A    between atoms: C_27  and  O_28
REMARK   13  A    between atoms: O_28  and  C_29
REMARK                            x       y       z     vdW  Elec       q    Type
REMARK                         _______ _______ _______ _____ _____    ______ ____
ROOT
ATOM      1  C   UNL     1       7.160   6.853  17.429  0.00  0.00    +0.000 A 
ATOM      2  C   UNL     1       7.828   6.379  18.538  0.00  0.00    +0.000 A 
ATOM      3  N   UNL     1       8.528   7.443  19.024  0.00  0.00    +0.000 N 
ATOM      4  C   UNL     1       8.250   8.545  18.248  0.00  0.00    +0.000 A 
ATOM      5  N   UNL     1       7.415   8.208  17.280  0.00  0.00    +0.000 NA
ATOM      6  H   UNL     1       9.130   7.442  19.835  0.00  0.00    +0.000 HD
ENDROOT
BRANCH   4   7
ATOM      7  C   UNL     1       8.794   9.878  18.520  0.00  0.00    +0.000 A 
ATOM      8  C   UNL     1       9.540  10.140  19.674  0.00  0.00    +0.000 A 
ATOM      9  C   UNL     1      10.041  11.425  19.933  0.00  0.00    +0.000 A 
ATOM     10  C   UNL     1       9.815  12.490  19.049  0.00  0.00    +0.000 A 
ATOM     11  C   UNL     1       9.067  12.214  17.886  0.00  0.00    +0.000 A 
ATOM     12  C   UNL     1       8.576  10.928  17.623  0.00  0.00    +0.000 A 
BRANCH  10  13
ATOM     13  C   UNL     1      10.371  13.905  19.306  0.00  0.00    +0.000 C 
ATOM     14  C   UNL     1      11.883  14.034  19.009  0.00  0.00    +0.000 C 
ATOM     15  C   UNL     1       9.641  14.925  18.409  0.00  0.00    +0.000 C 
ATOM     16  C   UNL     1      10.167  14.304  20.785  0.00  0.00    +0.000 C 
ENDBRANCH  10  13
ENDBRANCH   4   7
BRANCH   1  17
ATOM     17  C   UNL     1       6.297   6.072  16.545  0.00  0.00    +0.000 C 
ATOM     18  O   UNL     1       6.612   5.797  15.389  0.00  0.00    +0.000 OA
BRANCH  17  21
ATOM     19  C   UNL     1       3.407   3.797  17.450  0.00  0.00    +0.000 A 
ATOM     20  C   UNL     1       4.608   4.279  16.899  0.00  0.00    +0.000 A 
ATOM     21  C   UNL     1       4.984   5.610  17.068  0.00  0.00    +0.000 A 
ATOM     22  C   UNL     1       4.102   6.487  17.691  0.00  0.00    +0.000 A 
ATOM     23  C   UNL     1       2.864   6.051  18.177  0.00  0.00    +0.000 A 
ATOM     24  C   UNL     1       2.498   4.690  18.067  0.00  0.00    +0.000 A 
BRANCH  19  26
ATOM     25  C   UNL     1       3.570   1.634  18.418  0.00  0.00    +0.000 C 
ATOM     26  O   UNL     1       3.093   2.464  17.357  0.00  0.00    +0.000 OA
ENDBRANCH  19  26
BRANCH  23  27
ATOM     27  O   UNL     1       2.163   7.095  18.728  0.00  0.00    +0.000 OA
ATOM     28  C   UNL     1       2.132   8.351  18.071  0.00  0.00    +0.000 C 
ENDBRANCH  23  27
BRANCH  24  29
ATOM     29  O   UNL     1       1.270   4.369  18.576  0.00  0.00    +0.000 OA
ATOM     30  C   UNL     1       1.108   3.956  19.920  0.00  0.00    +0.000 C 
ENDBRANCH  24  29
ENDBRANCH  17  21
ENDBRANCH   1  17
TORSDOF 7
ENDMDL
MODEL 2
REMARK VINA RESULT:      -8.7      0.475      2.510
REMARK  Name = 
REMARK  13 active torsions:
REMARK  status: ('A' for Active; 'I' for Inactive)
REMARK    1  A    between atoms: C_1  and  O_2
REMARK    2  A    between atoms: O_2  and  C_3
REMARK    3  A    between atoms: C_5  and  C_6
REMARK    4  A    between atoms: C_6  and  C_8
REMARK    5  A    between atoms: C_11  and  C_12
REMARK    6  A    between atoms: C_15  and  C_16
REMARK    7  A    between atoms: C_16  and  C_17
REMARK    8  A    between atoms: C_16  and  C_18
REMARK    9  A    between atoms: C_16  and  C_19
REMARK   10  A    between atoms: C_24  and  O_25
REMARK   11  A    between atoms: O_25  and  C_26
REMARK   12  A    between atoms: C_27  and  O_28
REMARK   13  A    between atoms: O_28  and  C_29
REMARK                            x       y       z     vdW  Elec       q    Type
REMARK                         _______ _______ _______ _____ _____    ______ ____
ROOT
ATOM      1  C   UNL     1       7.172   6.779  17.427  0.00  0.00    +0.000 A 
ATOM      2  C   UNL     1       7.847   6.350  18.550  0.00  0.00    +0.000 A 
ATOM      3  N   UNL     1       8.519   7.444  19.010  0.00  0.00    +0.000 N 
ATOM      4  C   UNL     1       8.216   8.518  18.206  0.00  0.00    +0.000 A 
ATOM      5  N   UNL     1       7.394   8.136  17.244  0.00  0.00    +0.000 NA
ATOM      6  H   UNL     1       9.118   7.478  19.822  0.00  0.00    +0.000 HD
ENDROOT
BRANCH   4   7
ATOM      7  C   UNL     1       8.726   9.871  18.444  0.00  0.00    +0.000 A 
ATOM      8  C   UNL     1       8.402  10.933  17.594  0.00  0.00    +0.000 A 
ATOM      9  C   UNL     1       8.910  12.221  17.822  0.00  0.00    +0.000 A 
ATOM     10  C   UNL     1       9.760  12.491  18.905  0.00  0.00    +0.000 A 
ATOM     11  C   UNL     1      10.076  11.415  19.760  0.00  0.00    +0.000 A 
ATOM     12  C   UNL     1       9.558  10.131  19.537  0.00  0.00    +0.000 A 
BRANCH  10  13
ATOM     13  C   UNL     1      10.315  13.902  19.183  0.00  0.00    +0.000 C 
ATOM     14  C   UNL     1      11.792  13.901  19.643  0.00  0.00    +0.000 C 
ATOM     15  C   UNL     1      10.236  14.758  17.902  0.00  0.00    +0.000 C 
ATOM     16  C   UNL     1       9.497  14.593  20.298  0.00  0.00    +0.000 C 
ENDBRANCH  10  13
ENDBRANCH   4   7
BRANCH   1  17
ATOM     17  C   UNL     1       6.332   5.955  16.560  0.00  0.00    +0.000 C 
ATOM     18  O   UNL     1       6.677   5.622  15.429  0.00  0.00    +0.000 OA
BRANCH  17  21
ATOM     19  C   UNL     1       2.856   6.091  18.060  0.00  0.00    +0.000 A 
ATOM     20  C   UNL     1       4.146   6.460  17.638  0.00  0.00    +0.000 A 
ATOM     21  C   UNL     1       5.004   5.520  17.072  0.00  0.00    +0.000 A 
ATOM     22  C   UNL     1       4.614   4.186  17.033  0.00  0.00    +0.000 A 
ATOM     23  C   UNL     1       3.367   3.778  17.522  0.00  0.00    +0.000 A 
ATOM     24  C   UNL     1       2.462   4.731  18.041  0.00  0.00    +0.000 A 
BRANCH  19  26
ATOM     25  C   UNL     1       2.134   7.405  19.905  0.00  0.00    +0.000 C 
ATOM     26  O   UNL     1       1.986   7.044  18.529  0.00  0.00    +0.000 OA
ENDBRANCH  19  26
BRANCH  23  27
ATOM     27  O   UNL     1       3.217   2.419  17.397  0.00  0.00    +0.000 OA
ATOM     28  C   UNL     1       3.613   1.563  18.454  0.00  0.00    +0.000 C 
ENDBRANCH  23  27
BRANCH  24  29
ATOM     29  O   UNL     1       1.272   4.229  18.488  0.00  0.00    +0.000 OA
ATOM     30  C   UNL     1       1.084   3.856  19.840  0.00  0.00    +0.000 C 
ENDBRANCH  24  29
ENDBRANCH  17  21
ENDBRANCH   1  17
TORSDOF 7
ENDMDL
MODEL 3
REMARK VINA RESULT:      -8.7      0.266      2.564
REMARK  Name = 
REMARK  13 active torsions:
REMARK  status: ('A' for Active; 'I' for Inactive)
REMARK    1  A    between atoms: C_1  and  O_2
REMARK    2  A    between atoms: O_2  and  C_3
REMARK    3  A    between atoms: C_5  and  C_6
REMARK    4  A    between atoms: C_6  and  C_8
REMARK    5  A    between atoms: C_11  and  C_12
REMARK    6  A    between atoms: C_15  and  C_16
REMARK    7  A    between atoms: C_16  and  C_17
REMARK    8  A    between atoms: C_16  and  C_18
REMARK    9  A    between atoms: C_16  and  C_19
REMARK   10  A    between atoms: C_24  and  O_25
REMARK   11  A    between atoms: O_25  and  C_26
REMARK   12  A    between atoms: C_27  and  O_28
REMARK   13  A    between atoms: O_28  and  C_29
REMARK                            x       y       z     vdW  Elec       q    Type
REMARK                         _______ _______ _______ _____ _____    ______ ____
ROOT
ATOM      1  C   UNL     1       7.227   6.840  17.463  0.00  0.00    +0.000 A 
ATOM      2  C   UNL     1       7.897   6.408  18.588  0.00  0.00    +0.000 A 
ATOM      3  N   UNL     1       8.570   7.499  19.051  0.00  0.00    +0.000 N 
ATOM      4  C   UNL     1       8.274   8.576  18.247  0.00  0.00    +0.000 A 
ATOM      5  N   UNL     1       7.454   8.197  17.281  0.00  0.00    +0.000 NA
ATOM      6  H   UNL     1       9.166   7.531  19.866  0.00  0.00    +0.000 HD
ENDROOT
BRANCH   4   7
ATOM      7  C   UNL     1       8.787   9.926  18.489  0.00  0.00    +0.000 A 
ATOM      8  C   UNL     1       9.571  10.219  19.610  0.00  0.00    +0.000 A 
ATOM      9  C   UNL     1      10.042  11.520  19.841  0.00  0.00    +0.000 A 
ATOM     10  C   UNL     1       9.747  12.572  18.962  0.00  0.00    +0.000 A 
ATOM     11  C   UNL     1       8.962  12.265  17.832  0.00  0.00    +0.000 A 
ATOM     12  C   UNL     1       8.500  10.963  17.596  0.00  0.00    +0.000 A 
BRANCH  10  13
ATOM     13  C   UNL     1      10.269  14.005  19.189  0.00  0.00    +0.000 C 
ATOM     14  C   UNL     1       9.204  15.096  18.929  0.00  0.00    +0.000 C 
ATOM     15  C   UNL     1      10.741  14.165  20.649  0.00  0.00    +0.000 C 
ATOM     16  C   UNL     1      11.456  14.301  18.244  0.00  0.00    +0.000 C 
ENDBRANCH  10  13
ENDBRANCH   4   7
BRANCH   1  17
ATOM     17  C   UNL     1       6.387   6.019  16.592  0.00  0.00    +0.000 C 
ATOM     18  O   UNL     1       6.740   5.679  15.465  0.00  0.00    +0.000 OA
BRANCH  17  21
ATOM     19  C   UNL     1       2.930   6.181  18.130  0.00  0.00    +0.000 A 
ATOM     20  C   UNL     1       4.227   6.533  17.715  0.00  0.00    +0.000 A 
ATOM     21  C   UNL     1       5.052   5.598  17.093  0.00  0.00    +0.000 A 
ATOM     22  C   UNL     1       4.623   4.279  16.991  0.00  0.00    +0.000 A 
ATOM     23  C   UNL     1       3.367   3.884  17.470  0.00  0.00    +0.000 A 
ATOM     24  C   UNL     1       2.495   4.836  18.045  0.00  0.00    +0.000 A 
BRANCH  19  26
ATOM     25  C   UNL     1       2.051   8.382  17.960  0.00  0.00    +0.000 C 
ATOM     26  O   UNL     1       2.092   7.133  18.654  0.00  0.00    +0.000 OA
ENDBRANCH  19  26
BRANCH  23  27
ATOM     27  O   UNL     1       3.176   2.538  17.279  0.00  0.00    +0.000 OA
ATOM     28  C   UNL     1       3.562   1.618  18.285  0.00  0.00    +0.000 C 
ENDBRANCH  23  27
BRANCH  24  29
ATOM     29  O   UNL     1       1.294   4.346  18.478  0.00  0.00    +0.000 OA
ATOM     30  C   UNL     1       1.104   3.918  19.813  0.00  0.00    +0.000 C 
ENDBRANCH  24  29
ENDBRANCH  17  21
ENDBRANCH   1  17
TORSDOF 7
ENDMDL
MODEL 4
REMARK VINA RESULT:      -8.6      0.377      2.426
REMARK  Name = 
REMARK  13 active torsions:
REMARK  status: ('A' for Active; 'I' for Inactive)
REMARK    1  A    between atoms: C_1  and  O_2
REMARK    2  A    between atoms: O_2  and  C_3
REMARK    3  A    between atoms: C_5  and  C_6
REMARK    4  A    between atoms: C_6  and  C_8
REMARK    5  A    between atoms: C_11  and  C_12
REMARK    6  A    between atoms: C_15  and  C_16
REMARK    7  A    between atoms: C_16  and  C_17
REMARK    8  A    between atoms: C_16  and  C_18
REMARK    9  A    between atoms: C_16  and  C_19
REMARK   10  A    between atoms: C_24  and  O_25
REMARK   11  A    between atoms: O_25  and  C_26
REMARK   12  A    between atoms: C_27  and  O_28
REMARK   13  A    between atoms: O_28  and  C_29
REMARK                            x       y       z     vdW  Elec       q    Type
REMARK                         _______ _______ _______ _____ _____    ______ ____
ROOT
ATOM      1  C   UNL     1       7.155   6.891  17.487  0.00  0.00    +0.000 A 
ATOM      2  C   UNL     1       7.819   6.343  18.563  0.00  0.00    +0.000 A 
ATOM      3  N   UNL     1       8.583   7.351  19.071  0.00  0.00    +0.000 N 
ATOM      4  C   UNL     1       8.348   8.494  18.342  0.00  0.00    +0.000 A 
ATOM      5  N   UNL     1       7.477   8.237  17.381  0.00  0.00    +0.000 NA
ATOM      6  H   UNL     1       9.201   7.288  19.868  0.00  0.00    +0.000 HD
ENDROOT
BRANCH   4   7
ATOM      7  C   UNL     1       8.966   9.786  18.650  0.00  0.00    +0.000 A 
ATOM      8  C   UNL     1       9.198  10.188  19.969  0.00  0.00    +0.000 A 
ATOM      9  C   UNL     1       9.774  11.435  20.253  0.00  0.00    +0.000 A 
ATOM     10  C   UNL     1      10.139  12.323  19.230  0.00  0.00    +0.000 A 
ATOM     11  C   UNL     1       9.907  11.905  17.903  0.00  0.00    +0.000 A 
ATOM     12  C   UNL     1       9.341  10.654  17.620  0.00  0.00    +0.000 A 
BRANCH  10  13
ATOM     13  C   UNL     1      10.790  13.690  19.519  0.00  0.00    +0.000 C 
ATOM     14  C   UNL     1      12.331  13.677  19.388  0.00  0.00    +0.000 C 
ATOM     15  C   UNL     1      10.256  14.744  18.526  0.00  0.00    +0.000 C 
ATOM     16  C   UNL     1      10.464  14.148  20.958  0.00  0.00    +0.000 C 
ENDBRANCH  10  13
ENDBRANCH   4   7
BRANCH   1  17
ATOM     17  C   UNL     1       6.234   6.190  16.594  0.00  0.00    +0.000 C 
ATOM     18  O   UNL     1       6.500   5.968  15.414  0.00  0.00    +0.000 OA
BRANCH  17  21
ATOM     19  C   UNL     1       2.852   6.280  18.296  0.00  0.00    +0.000 A 
ATOM     20  C   UNL     1       4.127   6.652  17.835  0.00  0.00    +0.000 A 
ATOM     21  C   UNL     1       4.924   5.745  17.140  0.00  0.00    +0.000 A 
ATOM     22  C   UNL     1       4.493   4.430  17.006  0.00  0.00    +0.000 A 
ATOM     23  C   UNL     1       3.261   4.012  17.527  0.00  0.00    +0.000 A 
ATOM     24  C   UNL     1       2.416   4.938  18.179  0.00  0.00    +0.000 A 
BRANCH  19  26
ATOM     25  C   UNL     1       1.964   8.484  18.254  0.00  0.00    +0.000 C 
ATOM     26  O   UNL     1       2.038   7.209  18.895  0.00  0.00    +0.000 OA
ENDBRANCH  19  26
BRANCH  23  27
ATOM     27  O   UNL     1       3.064   2.674  17.292  0.00  0.00    +0.000 OA
ATOM     28  C   UNL     1       3.386   1.724  18.294  0.00  0.00    +0.000 C 
ENDBRANCH  23  27
BRANCH  24  29
ATOM     29  O   UNL     1       1.237   4.428  18.647  0.00  0.00    +0.000 OA
ATOM     30  C   UNL     1       1.053   4.118  20.016  0.00  0.00    +0.000 C 
ENDBRANCH  24  29
ENDBRANCH  17  21
ENDBRANCH   1  17
TORSDOF 7
ENDMDL
MODEL 5
REMARK VINA RESULT:      -8.1      0.413      1.279
REMARK  Name = 
REMARK  13 active torsions:
REMARK  status: ('A' for Active; 'I' for Inactive)
REMARK    1  A    between atoms: C_1  and  O_2
REMARK    2  A    between atoms: O_2  and  C_3
REMARK    3  A    between atoms: C_5  and  C_6
REMARK    4  A    between atoms: C_6  and  C_8
REMARK    5  A    between atoms: C_11  and  C_12
REMARK    6  A    between atoms: C_15  and  C_16
REMARK    7  A    between atoms: C_16  and  C_17
REMARK    8  A    between atoms: C_16  and  C_18
REMARK    9  A    between atoms: C_16  and  C_19
REMARK   10  A    between atoms: C_24  and  O_25
REMARK   11  A    between atoms: O_25  and  C_26
REMARK   12  A    between atoms: C_27  and  O_28
REMARK   13  A    between atoms: O_28  and  C_29
REMARK                            x       y       z     vdW  Elec       q    Type
REMARK                         _______ _______ _______ _____ _____    ______ ____
ROOT
ATOM      1  C   UNL     1       7.103   7.014  17.513  0.00  0.00    +0.000 A 
ATOM      2  C   UNL     1       7.869   6.503  18.539  0.00  0.00    +0.000 A 
ATOM      3  N   UNL     1       8.618   7.550  18.989  0.00  0.00    +0.000 N 
ATOM      4  C   UNL     1       8.274   8.677  18.278  0.00  0.00    +0.000 A 
ATOM      5  N   UNL     1       7.350   8.373  17.383  0.00  0.00    +0.000 NA
ATOM      6  H   UNL     1       9.293   7.521  19.739  0.00  0.00    +0.000 HD
ENDROOT
BRANCH   4   7
ATOM      7  C   UNL     1       8.849   9.999  18.539  0.00  0.00    +0.000 A 
ATOM      8  C   UNL     1       8.679  11.058  17.641  0.00  0.00    +0.000 A 
ATOM      9  C   UNL     1       9.249  12.315  17.891  0.00  0.00    +0.000 A 
ATOM     10  C   UNL     1      10.008  12.557  19.045  0.00  0.00    +0.000 A 
ATOM     11  C   UNL     1      10.168  11.485  19.948  0.00  0.00    +0.000 A 
ATOM     12  C   UNL     1       9.589  10.232  19.701  0.00  0.00    +0.000 A 
BRANCH  10  13
ATOM     13  C   UNL     1      10.628  13.936  19.349  0.00  0.00    +0.000 C 
ATOM     14  C   UNL     1      10.373  14.420  20.795  0.00  0.00    +0.000 C 
ATOM     15  C   UNL     1      12.156  13.877  19.149  0.00  0.00    +0.000 C 
ATOM     16  C   UNL     1      10.042  15.010  18.405  0.00  0.00    +0.000 C 
ENDBRANCH  10  13
ENDBRANCH   4   7
BRANCH   1  17
ATOM     17  C   UNL     1       6.155   6.264  16.690  0.00  0.00    +0.000 C 
ATOM     18  O   UNL     1       6.385   5.973  15.518  0.00  0.00    +0.000 OA
BRANCH  17  21
ATOM     19  C   UNL     1       3.354   4.083  18.010  0.00  0.00    +0.000 A 
ATOM     20  C   UNL     1       4.535   4.503  17.371  0.00  0.00    +0.000 A 
ATOM     21  C   UNL     1       4.862   5.855  17.299  0.00  0.00    +0.000 A 
ATOM     22  C   UNL     1       3.950   6.796  17.764  0.00  0.00    +0.000 A 
ATOM     23  C   UNL     1       2.729   6.408  18.331  0.00  0.00    +0.000 A 
ATOM     24  C   UNL     1       2.414   5.038  18.467  0.00  0.00    +0.000 A 
BRANCH  19  26
ATOM     25  C   UNL     1       4.117   1.851  17.721  0.00  0.00    +0.000 C 
ATOM     26  O   UNL     1       3.090   2.744  18.158  0.00  0.00    +0.000 OA
ENDBRANCH  19  26
BRANCH  23  27
ATOM     27  O   UNL     1       1.991   7.508  18.694  0.00  0.00    +0.000 OA
ATOM     28  C   UNL     1       1.989   8.662  17.872  0.00  0.00    +0.000 C 
ENDBRANCH  23  27
BRANCH  24  29
ATOM     29  O   UNL     1       1.201   4.767  19.036  0.00  0.00    +0.000 OA
ATOM     30  C   UNL     1       1.087   4.363  20.388  0.00  0.00    +0.000 C 
ENDBRANCH  24  29
ENDBRANCH  17  21
ENDBRANCH   1  17
TORSDOF 7
ENDMDL
MODEL 6
REMARK VINA RESULT:      -8.0      1.040      1.606
REMARK  Name = 
REMARK  13 active torsions:
REMARK  status: ('A' for Active; 'I' for Inactive)
REMARK    1  A    between atoms: C_1  and  O_2
REMARK    2  A    between atoms: O_2  and  C_3
REMARK    3  A    between atoms: C_5  and  C_6
REMARK    4  A    between atoms: C_6  and  C_8
REMARK    5  A    between atoms: C_11  and  C_12
REMARK    6  A    between atoms: C_15  and  C_16
REMARK    7  A    between atoms: C_16  and  C_17
REMARK    8  A    between atoms: C_16  and  C_18
REMARK    9  A    between atoms: C_16  and  C_19
REMARK   10  A    between atoms: C_24  and  O_25
REMARK   11  A    between atoms: O_25  and  C_26
REMARK   12  A    between atoms: C_27  and  O_28
REMARK   13  A    between atoms: O_28  and  C_29
REMARK                            x       y       z     vdW  Elec       q    Type
REMARK                         _______ _______ _______ _____ _____    ______ ____
ROOT
ATOM      1  C   UNL     1       7.052   7.144  17.658  0.00  0.00    +0.000 A 
ATOM      2  C   UNL     1       7.973   6.733  18.597  0.00  0.00    +0.000 A 
ATOM      3  N   UNL     1       8.735   7.832  18.864  0.00  0.00    +0.000 N 
ATOM      4  C   UNL     1       8.251   8.893  18.134  0.00  0.00    +0.000 A 
ATOM      5  N   UNL     1       7.224   8.497  17.401  0.00  0.00    +0.000 NA
ATOM      6  H   UNL     1       9.510   7.879  19.511  0.00  0.00    +0.000 HD
ENDROOT
BRANCH   4   7
ATOM      7  C   UNL     1       8.803  10.247  18.219  0.00  0.00    +0.000 A 
ATOM      8  C   UNL     1       8.207  11.322  17.551  0.00  0.00    +0.000 A 
ATOM      9  C   UNL     1       8.754  12.611  17.625  0.00  0.00    +0.000 A 
ATOM     10  C   UNL     1       9.915  12.872  18.367  0.00  0.00    +0.000 A 
ATOM     11  C   UNL     1      10.505  11.783  19.042  0.00  0.00    +0.000 A 
ATOM     12  C   UNL     1       9.951  10.497  18.976  0.00  0.00    +0.000 A 
BRANCH  10  13
ATOM     13  C   UNL     1      10.523  14.285  18.476  0.00  0.00    +0.000 C 
ATOM     14  C   UNL     1       9.465  15.412  18.462  0.00  0.00    +0.000 C 
ATOM     15  C   UNL     1      11.312  14.414  19.795  0.00  0.00    +0.000 C 
ATOM     16  C   UNL     1      11.480  14.551  17.292  0.00  0.00    +0.000 C 
ENDBRANCH  10  13
ENDBRANCH   4   7
BRANCH   1  17
ATOM     17  C   UNL     1       6.030   6.308  17.031  0.00  0.00    +0.000 C 
ATOM     18  O   UNL     1       5.993   6.109  15.819  0.00  0.00    +0.000 OA
BRANCH  17  21
ATOM     19  C   UNL     1       4.070   3.713  18.972  0.00  0.00    +0.000 A 
ATOM     20  C   UNL     1       4.992   4.313  18.097  0.00  0.00    +0.000 A 
ATOM     21  C   UNL     1       4.992   5.692  17.900  0.00  0.00    +0.000 A 
ATOM     22  C   UNL     1       3.993   6.459  18.491  0.00  0.00    +0.000 A 
ATOM     23  C   UNL     1       3.013   5.875  19.304  0.00  0.00    +0.000 A 
ATOM     24  C   UNL     1       3.040   4.486  19.562  0.00  0.00    +0.000 A 
BRANCH  19  26
ATOM     25  C   UNL     1       3.582   1.507  18.234  0.00  0.00    +0.000 C 
ATOM     26  O   UNL     1       4.141   2.366  19.231  0.00  0.00    +0.000 OA
ENDBRANCH  19  26
BRANCH  23  27
ATOM     27  O   UNL     1       2.128   6.823  19.754  0.00  0.00    +0.000 OA
ATOM     28  C   UNL     1       1.989   8.049  19.057  0.00  0.00    +0.000 C 
ENDBRANCH  23  27
BRANCH  24  29
ATOM     29  O   UNL     1       2.041   4.018  20.369  0.00  0.00    +0.000 OA
ATOM     30  C   UNL     1       0.852   3.467  19.835  0.00  0.00    +0.000 C 
ENDBRANCH  24  29
ENDBRANCH  17  21
ENDBRANCH   1  17
TORSDOF 7
ENDMDL
MODEL 7
REMARK VINA RESULT:      -7.9      4.328      7.310
REMARK  Name = 
REMARK  13 active torsions:
REMARK  status: ('A' for Active; 'I' for Inactive)
REMARK    1  A    between atoms: C_1  and  O_2
REMARK    2  A    between atoms: O_2  and  C_3
REMARK    3  A    between atoms: C_5  and  C_6
REMARK    4  A    between atoms: C_6  and  C_8
REMARK    5  A    between atoms: C_11  and  C_12
REMARK    6  A    between atoms: C_15  and  C_16
REMARK    7  A    between atoms: C_16  and  C_17
REMARK    8  A    between atoms: C_16  and  C_18
REMARK    9  A    between atoms: C_16  and  C_19
REMARK   10  A    between atoms: C_24  and  O_25
REMARK   11  A    between atoms: O_25  and  C_26
REMARK   12  A    between atoms: C_27  and  O_28
REMARK   13  A    between atoms: O_28  and  C_29
REMARK                            x       y       z     vdW  Elec       q    Type
REMARK                         _______ _______ _______ _____ _____    ______ ____
ROOT
ATOM      1  C   UNL     1       3.233   4.971  18.360  0.00  0.00    +0.000 A 
ATOM      2  C   UNL     1       3.569   4.747  19.678  0.00  0.00    +0.000 A 
ATOM      3  N   UNL     1       3.095   5.827  20.363  0.00  0.00    +0.000 N 
ATOM      4  C   UNL     1       2.447   6.660  19.480  0.00  0.00    +0.000 A 
ATOM      5  N   UNL     1       2.514   6.154  18.260  0.00  0.00    +0.000 NA
ATOM      6  H   UNL     1       3.174   5.984  21.357  0.00  0.00    +0.000 HD
ENDROOT
BRANCH   4   7
ATOM      7  C   UNL     1       1.770   7.894  19.887  0.00  0.00    +0.000 A 
ATOM      8  C   UNL     1       1.309   8.075  21.195  0.00  0.00    +0.000 A 
ATOM      9  C   UNL     1       0.645   9.253  21.570  0.00  0.00    +0.000 A 
ATOM     10  C   UNL     1       0.420  10.289  20.652  0.00  0.00    +0.000 A 
ATOM     11  C   UNL     1       0.894  10.099  19.337  0.00  0.00    +0.000 A 
ATOM     12  C   UNL     1       1.566   8.926  18.967  0.00  0.00    +0.000 A 
BRANCH  10  13
ATOM     13  C   UNL     1      -0.292  11.599  21.047  0.00  0.00    +0.000 C 
ATOM     14  C   UNL     1      -0.798  11.606  22.508  0.00  0.00    +0.000 C 
ATOM     15  C   UNL     1       0.679  12.788  20.894  0.00  0.00    +0.000 C 
ATOM     16  C   UNL     1      -1.522  11.838  20.143  0.00  0.00    +0.000 C 
ENDBRANCH  10  13
ENDBRANCH   4   7
BRANCH   1  17
ATOM     17  C   UNL     1       3.556   4.103  17.230  0.00  0.00    +0.000 C 
ATOM     18  O   UNL     1       2.877   3.121  16.937  0.00  0.00    +0.000 OA
BRANCH  17  21
ATOM     19  C   UNL     1       6.112   4.015  14.436  0.00  0.00    +0.000 A 
ATOM     20  C   UNL     1       5.023   3.686  15.263  0.00  0.00    +0.000 A 
ATOM     21  C   UNL     1       4.760   4.422  16.417  0.00  0.00    +0.000 A 
ATOM     22  C   UNL     1       5.655   5.413  16.805  0.00  0.00    +0.000 A 
ATOM     23  C   UNL     1       6.792   5.706  16.042  0.00  0.00    +0.000 A 
ATOM     24  C   UNL     1       7.036   5.010  14.837  0.00  0.00    +0.000 A 
BRANCH  19  26
ATOM     25  C   UNL     1       5.250   3.447  12.296  0.00  0.00    +0.000 C 
ATOM     26  O   UNL     1       6.306   3.344  13.254  0.00  0.00    +0.000 OA
ENDBRANCH  19  26
BRANCH  23  27
ATOM     27  O   UNL     1       7.531   6.701  16.633  0.00  0.00    +0.000 OA
ATOM     28  C   UNL     1       7.632   6.763  18.045  0.00  0.00    +0.000 C 
ENDBRANCH  23  27
BRANCH  24  29
ATOM     29  O   UNL     1       8.171   5.375  14.167  0.00  0.00    +0.000 OA
ATOM     30  C   UNL     1       8.143   5.731  12.797  0.00  0.00    +0.000 C 
ENDBRANCH  24  29
ENDBRANCH  17  21
ENDBRANCH   1  17
TORSDOF 7
ENDMDL
MODEL 8
REMARK VINA RESULT:      -7.9      0.797      2.526
REMARK  Name = 
REMARK  13 active torsions:
REMARK  status: ('A' for Active; 'I' for Inactive)
REMARK    1  A    between atoms: C_1  and  O_2
REMARK    2  A    between atoms: O_2  and  C_3
REMARK    3  A    between atoms: C_5  and  C_6
REMARK    4  A    between atoms: C_6  and  C_8
REMARK    5  A    between atoms: C_11  and  C_12
REMARK    6  A    between atoms: C_15  and  C_16
REMARK    7  A    between atoms: C_16  and  C_17
REMARK    8  A    between atoms: C_16  and  C_18
REMARK    9  A    between atoms: C_16  and  C_19
REMARK   10  A    between atoms: C_24  and  O_25
REMARK   11  A    between atoms: O_25  and  C_26
REMARK   12  A    between atoms: C_27  and  O_28
REMARK   13  A    between atoms: O_28  and  C_29
REMARK                            x       y       z     vdW  Elec       q    Type
REMARK                         _______ _______ _______ _____ _____    ______ ____
ROOT
ATOM      1  C   UNL     1       7.342   7.133  17.556  0.00  0.00    +0.000 A 
ATOM      2  C   UNL     1       8.074   6.743  18.658  0.00  0.00    +0.000 A 
ATOM      3  N   UNL     1       8.753   7.856  19.056  0.00  0.00    +0.000 N 
ATOM      4  C   UNL     1       8.401   8.905  18.239  0.00  0.00    +0.000 A 
ATOM      5  N   UNL     1       7.539   8.488  17.327  0.00  0.00    +0.000 NA
ATOM      6  H   UNL     1       9.389   7.918  19.838  0.00  0.00    +0.000 HD
ENDROOT
BRANCH   4   7
ATOM      7  C   UNL     1       8.905  10.269  18.417  0.00  0.00    +0.000 A 
ATOM      8  C   UNL     1       9.865  10.570  19.389  0.00  0.00    +0.000 A 
ATOM      9  C   UNL     1      10.327  11.883  19.563  0.00  0.00    +0.000 A 
ATOM     10  C   UNL     1       9.848  12.939  18.774  0.00  0.00    +0.000 A 
ATOM     11  C   UNL     1       8.886  12.623  17.793  0.00  0.00    +0.000 A 
ATOM     12  C   UNL     1       8.432  11.309  17.612  0.00  0.00    +0.000 A 
BRANCH  10  13
ATOM     13  C   UNL     1      10.356  14.385  18.937  0.00  0.00    +0.000 C 
ATOM     14  C   UNL     1      10.311  14.891  20.398  0.00  0.00    +0.000 C 
ATOM     15  C   UNL     1      11.821  14.482  18.465  0.00  0.00    +0.000 C 
ATOM     16  C   UNL     1       9.495  15.356  18.098  0.00  0.00    +0.000 C 
ENDBRANCH  10  13
ENDBRANCH   4   7
BRANCH   1  17
ATOM     17  C   UNL     1       6.472   6.277  16.753  0.00  0.00    +0.000 C 
ATOM     18  O   UNL     1       6.726   5.989  15.585  0.00  0.00    +0.000 OA
BRANCH  17  21
ATOM     19  C   UNL     1       2.965   6.143  18.175  0.00  0.00    +0.000 A 
ATOM     20  C   UNL     1       4.180   6.624  17.656  0.00  0.00    +0.000 A 
ATOM     21  C   UNL     1       5.229   5.751  17.376  0.00  0.00    +0.000 A 
ATOM     22  C   UNL     1       5.104   4.411  17.725  0.00  0.00    +0.000 A 
ATOM     23  C   UNL     1       3.934   3.920  18.318  0.00  0.00    +0.000 A 
ATOM     24  C   UNL     1       2.839   4.783  18.548  0.00  0.00    +0.000 A 
BRANCH  19  26
ATOM     25  C   UNL     1       1.953   7.811  19.532  0.00  0.00    +0.000 C 
ATOM     26  O   UNL     1       1.906   6.998  18.357  0.00  0.00    +0.000 OA
ENDBRANCH  19  26
BRANCH  23  27
ATOM     27  O   UNL     1       4.053   2.579  18.589  0.00  0.00    +0.000 OA
ATOM     28  C   UNL     1       4.391   2.149  19.896  0.00  0.00    +0.000 C 
ENDBRANCH  23  27
BRANCH  24  29
ATOM     29  O   UNL     1       1.746   4.202  19.129  0.00  0.00    +0.000 OA
ATOM     30  C   UNL     1       0.941   3.271  18.431  0.00  0.00    +0.000 C 
ENDBRANCH  24  29
ENDBRANCH  17  21
ENDBRANCH   1  17
TORSDOF 7
ENDMDL
MODEL 9
REMARK VINA RESULT:      -7.8      4.241      7.173
REMARK  Name = 
REMARK  13 active torsions:
REMARK  status: ('A' for Active; 'I' for Inactive)
REMARK    1  A    between atoms: C_1  and  O_2
REMARK    2  A    between atoms: O_2  and  C_3
REMARK    3  A    between atoms: C_5  and  C_6
REMARK    4  A    between atoms: C_6  and  C_8
REMARK    5  A    between atoms: C_11  and  C_12
REMARK    6  A    between atoms: C_15  and  C_16
REMARK    7  A    between atoms: C_16  and  C_17
REMARK    8  A    between atoms: C_16  and  C_18
REMARK    9  A    between atoms: C_16  and  C_19
REMARK   10  A    between atoms: C_24  and  O_25
REMARK   11  A    between atoms: O_25  and  C_26
REMARK   12  A    between atoms: C_27  and  O_28
REMARK   13  A    between atoms: O_28  and  C_29
REMARK                            x       y       z     vdW  Elec       q    Type
REMARK                         _______ _______ _______ _____ _____    ______ ____
ROOT
ATOM      1  C   UNL     1       3.433   4.831  18.495  0.00  0.00    +0.000 A 
ATOM      2  C   UNL     1       3.383   4.685  19.865  0.00  0.00    +0.000 A 
ATOM      3  N   UNL     1       2.855   5.850  20.335  0.00  0.00    +0.000 N 
ATOM      4  C   UNL     1       2.551   6.662  19.267  0.00  0.00    +0.000 A 
ATOM      5  N   UNL     1       2.888   6.057  18.140  0.00  0.00    +0.000 NA
ATOM      6  H   UNL     1       2.683   6.079  21.304  0.00  0.00    +0.000 HD
ENDROOT
BRANCH   4   7
ATOM      7  C   UNL     1       1.917   7.975  19.407  0.00  0.00    +0.000 A 
ATOM      8  C   UNL     1       1.810   8.853  18.324  0.00  0.00    +0.000 A 
ATOM      9  C   UNL     1       1.217  10.115  18.474  0.00  0.00    +0.000 A 
ATOM     10  C   UNL     1       0.712  10.544  19.710  0.00  0.00    +0.000 A 
ATOM     11  C   UNL     1       0.819   9.649  20.794  0.00  0.00    +0.000 A 
ATOM     12  C   UNL     1       1.402   8.383  20.641  0.00  0.00    +0.000 A 
BRANCH  10  13
ATOM     13  C   UNL     1       0.040  11.920  19.892  0.00  0.00    +0.000 C 
ATOM     14  C   UNL     1      -1.340  12.026  19.203  0.00  0.00    +0.000 C 
ATOM     15  C   UNL     1      -0.175  12.202  21.393  0.00  0.00    +0.000 C 
ATOM     16  C   UNL     1       0.928  13.036  19.296  0.00  0.00    +0.000 C 
ENDBRANCH  10  13
ENDBRANCH   4   7
BRANCH   1  17
ATOM     17  C   UNL     1       3.955   3.853  17.543  0.00  0.00    +0.000 C 
ATOM     18  O   UNL     1       3.530   2.701  17.480  0.00  0.00    +0.000 OA
BRANCH  17  21
ATOM     19  C   UNL     1       6.245   3.992  14.529  0.00  0.00    +0.000 A 
ATOM     20  C   UNL     1       5.265   3.571  15.446  0.00  0.00    +0.000 A 
ATOM     21  C   UNL     1       5.052   4.273  16.631  0.00  0.00    +0.000 A 
ATOM     22  C   UNL     1       5.899   5.328  16.953  0.00  0.00    +0.000 A 
ATOM     23  C   UNL     1       6.936   5.716  16.095  0.00  0.00    +0.000 A 
ATOM     24  C   UNL     1       7.121   5.054  14.861  0.00  0.00    +0.000 A 
BRANCH  19  26
ATOM     25  C   UNL     1       5.263   3.439  12.437  0.00  0.00    +0.000 C 
ATOM     26  O   UNL     1       6.381   3.350  13.323  0.00  0.00    +0.000 OA
ENDBRANCH  19  26
BRANCH  23  27
ATOM     27  O   UNL     1       7.646   6.761  16.633  0.00  0.00    +0.000 OA
ATOM     28  C   UNL     1       7.686   6.939  18.039  0.00  0.00    +0.000 C 
ENDBRANCH  23  27
BRANCH  24  29
ATOM     29  O   UNL     1       8.159   5.513  14.098  0.00  0.00    +0.000 OA
ATOM     30  C   UNL     1       8.038   5.666  12.696  0.00  0.00    +0.000 C 
ENDBRANCH  24  29
ENDBRANCH  17  21
ENDBRANCH   1  17
TORSDOF 7
ENDMDL
