MODEL 1
REMARK VINA RESULT:      -7.7      0.000      0.000
REMARK  Name = 
REMARK  10 active torsions:
REMARK  status: ('A' for Active; 'I' for Inactive)
REMARK    1  A    between atoms: C_1  and  C_2
REMARK    2  A    between atoms: C_2  and  O_3
REMARK    3  A    between atoms: O_3  and  C_4
REMARK    4  A    between atoms: C_4  and  C_6
REMARK    5  A    between atoms: C_6  and  C_7
REMARK    6  A    between atoms: C_6  and  N_14
REMARK    7  A    between atoms: C_7  and  C_8
REMARK    8  A    between atoms: N_18  and  N_19
REMARK    9  A    between atoms: N_22  and  C_23
REMARK   10  A    between atoms: C_23  and  C_24
REMARK                            x       y       z     vdW  Elec       q    Type
REMARK                         _______ _______ _______ _____ _____    ______ ____
ROOT
ATOM      1  N   UNL     1       3.530   4.976  17.038  0.00  0.00    +0.000 NA
ATOM      2  C   UNL     1       2.950   3.695  17.395  0.00  0.00    +0.000 C 
ATOM      3  N   UNL     1       2.572   3.478  18.749  0.00  0.00    +0.000 N 
ATOM      4  C   UNL     1       2.479   4.465  19.675  0.00  0.00    +0.000 C 
ATOM      5  N   UNL     1       2.245   4.387  20.938  0.00  0.00    +0.000 NA
ATOM      6  N   UNL     1       2.700   5.769  19.126  0.00  0.00    +0.000 N 
ATOM      7  C   UNL     1       2.696   5.968  17.684  0.00  0.00    +0.000 C 
ATOM      8  H   UNL     1       2.657   2.521  19.090  0.00  0.00    +0.000 HD
ENDROOT
BRANCH   5   9
ATOM      9  N   UNL     1       1.970   3.171  21.430  0.00  0.00    +0.000 N 
ATOM     10  O   UNL     1       2.736   2.643  22.253  0.00  0.00    +0.000 OA
ATOM     11  O   UNL     1       0.931   2.627  21.041  0.00  0.00    +0.000 OA
ENDBRANCH   5   9
BRANCH   1  12
ATOM     12  C   UNL     1       4.996   5.039  17.311  0.00  0.00    +0.000 C 
BRANCH  12  13
ATOM     13  C   UNL     1       5.633   6.409  17.017  0.00  0.00    +0.000 C 
ATOM     14  O   UNL     1       5.368   7.141  16.076  0.00  0.00    +0.000 OA
BRANCH  13  15
ATOM     15  O   UNL     1       6.538   6.706  18.000  0.00  0.00    +0.000 OA
BRANCH  15  17
ATOM     16  C   UNL     1       7.993   8.680  17.885  0.00  0.00    +0.000 C 
ATOM     17  C   UNL     1       7.817   7.205  17.576  0.00  0.00    +0.000 C 
ENDBRANCH  15  17
ENDBRANCH  13  15
ENDBRANCH  12  13
BRANCH  12  18
ATOM     18  C   UNL     1       5.854   3.976  16.546  0.00  0.00    +0.000 C 
BRANCH  18  19
ATOM     19  C   UNL     1       6.143   4.118  15.060  0.00  0.00    +0.000 A 
ATOM     20  C   UNL     1       7.286   4.840  14.666  0.00  0.00    +0.000 A 
ATOM     21  C   UNL     1       7.652   4.951  13.320  0.00  0.00    +0.000 A 
ATOM     22  C   UNL     1       6.884   4.332  12.339  0.00  0.00    +0.000 A 
ATOM     23  C   UNL     1       5.764   3.599  12.705  0.00  0.00    +0.000 A 
ATOM     24  C   UNL     1       5.399   3.488  14.053  0.00  0.00    +0.000 A 
ENDBRANCH  18  19
ENDBRANCH  12  18
ENDBRANCH   1  12
BRANCH   6  25
ATOM     25  C   UNL     1       2.847   6.954  20.001  0.00  0.00    +0.000 C 
BRANCH  25  26
ATOM     26  C   UNL     1       1.908   8.075  19.641  0.00  0.00    +0.000 A 
ATOM     27  C   UNL     1       1.877   8.637  18.358  0.00  0.00    +0.000 A 
ATOM     28  C   UNL     1       0.955   9.637  18.050  0.00  0.00    +0.000 A 
ATOM     29  C   UNL     1       0.088  10.050  19.045  0.00  0.00    +0.000 A 
ATOM     30 CL   UNL     1      -1.062  11.287  18.759  0.00  0.00    +0.000 Cl
ATOM     31  N   UNL     1       0.075   9.534  20.290  0.00  0.00    +0.000 NA
ATOM     32  C   UNL     1       0.971   8.557  20.556  0.00  0.00    +0.000 A 
ENDBRANCH  25  26
ENDBRANCH   6  25
TORSDOF 9
ENDMDL
MODEL 2
REMARK VINA RESULT:      -7.6      0.661      1.134
REMARK  Name = 
REMARK  10 active torsions:
REMARK  status: ('A' for Active; 'I' for Inactive)
REMARK    1  A    between atoms: C_1  and  C_2
REMARK    2  A    between atoms: C_2  and  O_3
REMARK    3  A    between atoms: O_3  and  C_4
REMARK    4  A    between atoms: C_4  and  C_6
REMARK    5  A    between atoms: C_6  and  C_7
REMARK    6  A    between atoms: C_6  and  N_14
REMARK    7  A    between atoms: C_7  and  C_8
REMARK    8  A    between atoms: N_18  and  N_19
REMARK    9  A    between atoms: N_22  and  C_23
REMARK   10  A    between atoms: C_23  and  C_24
REMARK                            x       y       z     vdW  Elec       q    Type
REMARK                         _______ _______ _______ _____ _____    ______ ____
ROOT
ATOM      1  N   UNL     1       3.205   4.770  17.114  0.00  0.00    +0.000 NA
ATOM      2  C   UNL     1       2.657   3.505  17.566  0.00  0.00    +0.000 C 
ATOM      3  N   UNL     1       2.461   3.314  18.962  0.00  0.00    +0.000 N 
ATOM      4  C   UNL     1       2.510   4.315  19.877  0.00  0.00    +0.000 C 
ATOM      5  N   UNL     1       2.447   4.258  21.161  0.00  0.00    +0.000 NA
ATOM      6  N   UNL     1       2.677   5.607  19.283  0.00  0.00    +0.000 N 
ATOM      7  C   UNL     1       2.483   5.787  17.851  0.00  0.00    +0.000 C 
ATOM      8  H   UNL     1       2.574   2.360  19.305  0.00  0.00    +0.000 HD
ENDROOT
BRANCH   5   9
ATOM      9  N   UNL     1       2.220   3.055  21.705  0.00  0.00    +0.000 N 
ATOM     10  O   UNL     1       1.064   2.711  22.000  0.00  0.00    +0.000 OA
ATOM     11  O   UNL     1       3.198   2.319  21.875  0.00  0.00    +0.000 OA
ENDBRANCH   5   9
BRANCH   1  12
ATOM     12  C   UNL     1       4.695   4.808  17.187  0.00  0.00    +0.000 C 
BRANCH  12  13
ATOM     13  C   UNL     1       5.311   6.159  16.781  0.00  0.00    +0.000 C 
ATOM     14  O   UNL     1       5.034   6.807  15.782  0.00  0.00    +0.000 OA
BRANCH  13  15
ATOM     15  O   UNL     1       6.211   6.550  17.734  0.00  0.00    +0.000 OA
BRANCH  15  17
ATOM     16  C   UNL     1       8.250   7.728  18.428  0.00  0.00    +0.000 C 
ATOM     17  C   UNL     1       7.288   7.399  17.302  0.00  0.00    +0.000 C 
ENDBRANCH  15  17
ENDBRANCH  13  15
ENDBRANCH  12  13
BRANCH  12  18
ATOM     18  C   UNL     1       5.424   3.714  16.337  0.00  0.00    +0.000 C 
BRANCH  18  19
ATOM     19  C   UNL     1       5.905   4.004  14.925  0.00  0.00    +0.000 A 
ATOM     20  C   UNL     1       7.134   4.673  14.760  0.00  0.00    +0.000 A 
ATOM     21  C   UNL     1       7.672   4.910  13.490  0.00  0.00    +0.000 A 
ATOM     22  C   UNL     1       6.994   4.472  12.357  0.00  0.00    +0.000 A 
ATOM     23  C   UNL     1       5.791   3.794  12.495  0.00  0.00    +0.000 A 
ATOM     24  C   UNL     1       5.254   3.557  13.768  0.00  0.00    +0.000 A 
ENDBRANCH  18  19
ENDBRANCH  12  18
ENDBRANCH   1  12
BRANCH   6  25
ATOM     25  C   UNL     1       2.961   6.801  20.111  0.00  0.00    +0.000 C 
BRANCH  25  26
ATOM     26  C   UNL     1       1.865   7.831  20.058  0.00  0.00    +0.000 A 
ATOM     27  C   UNL     1       0.982   8.035  21.127  0.00  0.00    +0.000 A 
ATOM     28  C   UNL     1       0.014   9.036  21.059  0.00  0.00    +0.000 A 
ATOM     29  C   UNL     1      -0.045   9.806  19.913  0.00  0.00    +0.000 A 
ATOM     30 CL   UNL     1      -1.216  11.044  19.736  0.00  0.00    +0.000 Cl
ATOM     31  N   UNL     1       0.787   9.654  18.863  0.00  0.00    +0.000 NA
ATOM     32  C   UNL     1       1.724   8.684  18.962  0.00  0.00    +0.000 A 
ENDBRANCH  25  26
ENDBRANCH   6  25
TORSDOF 9
ENDMDL
MODEL 3
REMARK VINA RESULT:      -7.6      1.146      1.631
REMARK  Name = 
REMARK  10 active torsions:
REMARK  status: ('A' for Active; 'I' for Inactive)
REMARK    1  A    between atoms: C_1  and  C_2
REMARK    2  A    between atoms: C_2  and  O_3
REMARK    3  A    between atoms: O_3  and  C_4
REMARK    4  A    between atoms: C_4  and  C_6
REMARK    5  A    between atoms: C_6  and  C_7
REMARK    6  A    between atoms: C_6  and  N_14
REMARK    7  A    between atoms: C_7  and  C_8
REMARK    8  A    between atoms: N_18  and  N_19
REMARK    9  A    between atoms: N_22  and  C_23
REMARK   10  A    between atoms: C_23  and  C_24
REMARK                            x       y       z     vdW  Elec       q    Type
REMARK                         _______ _______ _______ _____ _____    ______ ____
ROOT
ATOM      1  N   UNL     1       3.036   4.108  17.000  0.00  0.00    +0.000 NA
ATOM      2  C   UNL     1       2.448   2.926  17.601  0.00  0.00    +0.000 C 
ATOM      3  N   UNL     1       2.346   2.869  19.018  0.00  0.00    +0.000 N 
ATOM      4  C   UNL     1       2.524   3.939  19.834  0.00  0.00    +0.000 C 
ATOM      5  N   UNL     1       2.553   3.996  21.119  0.00  0.00    +0.000 NA
ATOM      6  N   UNL     1       2.723   5.161  19.115  0.00  0.00    +0.000 N 
ATOM      7  C   UNL     1       2.433   5.230  17.689  0.00  0.00    +0.000 C 
ATOM      8  H   UNL     1       2.427   1.942  19.437  0.00  0.00    +0.000 HD
ENDROOT
BRANCH   5   9
ATOM      9  N   UNL     1       2.296   2.862  21.783  0.00  0.00    +0.000 N 
ATOM     10  O   UNL     1       3.212   2.058  22.024  0.00  0.00    +0.000 OA
ATOM     11  O   UNL     1       1.130   2.673  22.147  0.00  0.00    +0.000 OA
ENDBRANCH   5   9
BRANCH   1  12
ATOM     12  C   UNL     1       4.527   4.054  16.965  0.00  0.00    +0.000 C 
BRANCH  12  13
ATOM     13  C   UNL     1       5.194   4.186  18.346  0.00  0.00    +0.000 C 
ATOM     14  O   UNL     1       5.241   3.323  19.210  0.00  0.00    +0.000 OA
BRANCH  13  15
ATOM     15  O   UNL     1       5.763   5.425  18.456  0.00  0.00    +0.000 OA
BRANCH  15  17
ATOM     16  C   UNL     1       7.935   6.554  18.642  0.00  0.00    +0.000 C 
ATOM     17  C   UNL     1       6.985   5.515  19.207  0.00  0.00    +0.000 C 
ENDBRANCH  15  17
ENDBRANCH  13  15
ENDBRANCH  12  13
BRANCH  12  18
ATOM     18  C   UNL     1       5.203   5.120  16.040  0.00  0.00    +0.000 C 
BRANCH  18  19
ATOM     19  C   UNL     1       5.890   4.718  14.745  0.00  0.00    +0.000 A 
ATOM     20  C   UNL     1       5.213   3.847  13.870  0.00  0.00    +0.000 A 
ATOM     21  C   UNL     1       5.755   3.491  12.629  0.00  0.00    +0.000 A 
ATOM     22  C   UNL     1       6.985   4.010  12.235  0.00  0.00    +0.000 A 
ATOM     23  C   UNL     1       7.661   4.885  13.073  0.00  0.00    +0.000 A 
ATOM     24  C   UNL     1       7.117   5.241  14.315  0.00  0.00    +0.000 A 
ENDBRANCH  18  19
ENDBRANCH  12  18
ENDBRANCH   1  12
BRANCH   6  25
ATOM     25  C   UNL     1       3.139   6.400  19.810  0.00  0.00    +0.000 C 
BRANCH  25  26
ATOM     26  C   UNL     1       2.300   7.595  19.441  0.00  0.00    +0.000 A 
ATOM     27  C   UNL     1       2.308   8.140  18.151  0.00  0.00    +0.000 A 
ATOM     28  C   UNL     1       1.476   9.214  17.835  0.00  0.00    +0.000 A 
ATOM     29  C   UNL     1       0.658   9.716  18.831  0.00  0.00    +0.000 A 
ATOM     30 CL   UNL     1      -0.380  11.047  18.536  0.00  0.00    +0.000 Cl
ATOM     31  N   UNL     1       0.609   9.219  20.083  0.00  0.00    +0.000 NA
ATOM     32  C   UNL     1       1.418   8.171  20.356  0.00  0.00    +0.000 A 
ENDBRANCH  25  26
ENDBRANCH   6  25
TORSDOF 9
ENDMDL
MODEL 4
REMARK VINA RESULT:      -7.5      1.115      1.448
REMARK  Name = 
REMARK  10 active torsions:
REMARK  status: ('A' for Active; 'I' for Inactive)
REMARK    1  A    between atoms: C_1  and  C_2
REMARK    2  A    between atoms: C_2  and  O_3
REMARK    3  A    between atoms: O_3  and  C_4
REMARK    4  A    between atoms: C_4  and  C_6
REMARK    5  A    between atoms: C_6  and  C_7
REMARK    6  A    between atoms: C_6  and  N_14
REMARK    7  A    between atoms: C_7  and  C_8
REMARK    8  A    between atoms: N_18  and  N_19
REMARK    9  A    between atoms: N_22  and  C_23
REMARK   10  A    between atoms: C_23  and  C_24
REMARK                            x       y       z     vdW  Elec       q    Type
REMARK                         _______ _______ _______ _____ _____    ______ ____
ROOT
ATOM      1  N   UNL     1       3.248   4.116  16.975  0.00  0.00    +0.000 NA
ATOM      2  C   UNL     1       2.610   2.947  17.551  0.00  0.00    +0.000 C 
ATOM      3  N   UNL     1       2.422   2.905  18.960  0.00  0.00    +0.000 N 
ATOM      4  C   UNL     1       2.564   3.981  19.775  0.00  0.00    +0.000 C 
ATOM      5  N   UNL     1       2.518   4.051  21.059  0.00  0.00    +0.000 NA
ATOM      6  N   UNL     1       2.822   5.194  19.058  0.00  0.00    +0.000 N 
ATOM      7  C   UNL     1       2.619   5.252  17.617  0.00  0.00    +0.000 C 
ATOM      8  H   UNL     1       2.466   1.982  19.391  0.00  0.00    +0.000 HD
ENDROOT
BRANCH   5   9
ATOM      9  N   UNL     1       2.206   2.926  21.717  0.00  0.00    +0.000 N 
ATOM     10  O   UNL     1       1.018   2.645  21.945  0.00  0.00    +0.000 OA
ATOM     11  O   UNL     1       3.142   2.196  22.059  0.00  0.00    +0.000 OA
ENDBRANCH   5   9
BRANCH   1  12
ATOM     12  C   UNL     1       4.737   4.043  17.031  0.00  0.00    +0.000 C 
BRANCH  12  13
ATOM     13  C   UNL     1       5.324   4.205  18.445  0.00  0.00    +0.000 C 
ATOM     14  O   UNL     1       5.346   3.351  19.319  0.00  0.00    +0.000 OA
BRANCH  13  15
ATOM     15  O   UNL     1       5.852   5.460  18.574  0.00  0.00    +0.000 OA
BRANCH  15  17
ATOM     16  C   UNL     1       7.984   6.676  18.650  0.00  0.00    +0.000 C 
ATOM     17  C   UNL     1       7.129   5.563  19.227  0.00  0.00    +0.000 C 
ENDBRANCH  15  17
ENDBRANCH  13  15
ENDBRANCH  12  13
BRANCH  12  18
ATOM     18  C   UNL     1       5.481   5.076  16.120  0.00  0.00    +0.000 C 
BRANCH  18  19
ATOM     19  C   UNL     1       5.918   4.712  14.710  0.00  0.00    +0.000 A 
ATOM     20  C   UNL     1       7.130   5.242  14.227  0.00  0.00    +0.000 A 
ATOM     21  C   UNL     1       7.628   4.895  12.966  0.00  0.00    +0.000 A 
ATOM     22  C   UNL     1       6.925   3.999  12.165  0.00  0.00    +0.000 A 
ATOM     23  C   UNL     1       5.738   3.450  12.628  0.00  0.00    +0.000 A 
ATOM     24  C   UNL     1       5.241   3.799  13.891  0.00  0.00    +0.000 A 
ENDBRANCH  18  19
ENDBRANCH  12  18
ENDBRANCH   1  12
BRANCH   6  25
ATOM     25  C   UNL     1       3.211   6.435  19.766  0.00  0.00    +0.000 C 
BRANCH  25  26
ATOM     26  C   UNL     1       2.338   7.611  19.421  0.00  0.00    +0.000 A 
ATOM     27  C   UNL     1       2.311   8.167  18.135  0.00  0.00    +0.000 A 
ATOM     28  C   UNL     1       1.447   9.222  17.843  0.00  0.00    +0.000 A 
ATOM     29  C   UNL     1       0.633   9.695  18.856  0.00  0.00    +0.000 A 
ATOM     30 CL   UNL     1      -0.443  11.002  18.590  0.00  0.00    +0.000 Cl
ATOM     31  N   UNL     1       0.617   9.187  20.104  0.00  0.00    +0.000 NA
ATOM     32  C   UNL     1       1.456   8.157  20.355  0.00  0.00    +0.000 A 
ENDBRANCH  25  26
ENDBRANCH   6  25
TORSDOF 9
ENDMDL
MODEL 5
REMARK VINA RESULT:      -7.5      0.598      1.260
REMARK  Name = 
REMARK  10 active torsions:
REMARK  status: ('A' for Active; 'I' for Inactive)
REMARK    1  A    between atoms: C_1  and  C_2
REMARK    2  A    between atoms: C_2  and  O_3
REMARK    3  A    between atoms: O_3  and  C_4
REMARK    4  A    between atoms: C_4  and  C_6
REMARK    5  A    between atoms: C_6  and  C_7
REMARK    6  A    between atoms: C_6  and  N_14
REMARK    7  A    between atoms: C_7  and  C_8
REMARK    8  A    between atoms: N_18  and  N_19
REMARK    9  A    between atoms: N_22  and  C_23
REMARK   10  A    between atoms: C_23  and  C_24
REMARK                            x       y       z     vdW  Elec       q    Type
REMARK                         _______ _______ _______ _____ _____    ______ ____
ROOT
ATOM      1  N   UNL     1       3.640   4.974  17.036  0.00  0.00    +0.000 NA
ATOM      2  C   UNL     1       3.132   3.660  17.380  0.00  0.00    +0.000 C 
ATOM      3  N   UNL     1       2.790   3.401  18.736  0.00  0.00    +0.000 N 
ATOM      4  C   UNL     1       2.665   4.365  19.682  0.00  0.00    +0.000 C 
ATOM      5  N   UNL     1       2.458   4.254  20.947  0.00  0.00    +0.000 NA
ATOM      6  N   UNL     1       2.809   5.689  19.153  0.00  0.00    +0.000 N 
ATOM      7  C   UNL     1       2.769   5.911  17.714  0.00  0.00    +0.000 C 
ATOM      8  H   UNL     1       2.929   2.443  19.059  0.00  0.00    +0.000 HD
ENDROOT
BRANCH   5   9
ATOM      9  N   UNL     1       2.254   3.018  21.422  0.00  0.00    +0.000 N 
ATOM     10  O   UNL     1       3.219   2.307  21.748  0.00  0.00    +0.000 OA
ATOM     11  O   UNL     1       1.082   2.641  21.529  0.00  0.00    +0.000 OA
ENDBRANCH   5   9
BRANCH   1  12
ATOM     12  C   UNL     1       5.105   5.106  17.284  0.00  0.00    +0.000 C 
BRANCH  12  13
ATOM     13  C   UNL     1       5.694   6.469  16.875  0.00  0.00    +0.000 C 
ATOM     14  O   UNL     1       5.280   7.194  15.983  0.00  0.00    +0.000 OA
BRANCH  13  15
ATOM     15  O   UNL     1       6.750   6.768  17.690  0.00  0.00    +0.000 OA
BRANCH  15  17
ATOM     16  C   UNL     1       8.431   8.363  18.502  0.00  0.00    +0.000 C 
ATOM     17  C   UNL     1       7.495   7.957  17.379  0.00  0.00    +0.000 C 
ENDBRANCH  15  17
ENDBRANCH  13  15
ENDBRANCH  12  13
BRANCH  12  18
ATOM     18  C   UNL     1       5.991   4.015  16.595  0.00  0.00    +0.000 C 
BRANCH  18  19
ATOM     19  C   UNL     1       6.365   4.116  15.125  0.00  0.00    +0.000 A 
ATOM     20  C   UNL     1       5.545   3.471  14.180  0.00  0.00    +0.000 A 
ATOM     21  C   UNL     1       5.789   3.580  12.805  0.00  0.00    +0.000 A 
ATOM     22  C   UNL     1       6.856   4.348  12.349  0.00  0.00    +0.000 A 
ATOM     23  C   UNL     1       7.666   5.008  13.262  0.00  0.00    +0.000 A 
ATOM     24  C   UNL     1       7.421   4.898  14.638  0.00  0.00    +0.000 A 
ENDBRANCH  18  19
ENDBRANCH  12  18
ENDBRANCH   1  12
BRANCH   6  25
ATOM     25  C   UNL     1       2.913   6.864  20.046  0.00  0.00    +0.000 C 
BRANCH  25  26
ATOM     26  C   UNL     1       1.946   7.963  19.691  0.00  0.00    +0.000 A 
ATOM     27  C   UNL     1       1.059   8.507  20.630  0.00  0.00    +0.000 A 
ATOM     28  C   UNL     1       0.217   9.560  20.274  0.00  0.00    +0.000 A 
ATOM     29  C   UNL     1       0.287  10.038  18.979  0.00  0.00    +0.000 A 
ATOM     30 CL   UNL     1      -0.725  11.316  18.451  0.00  0.00    +0.000 Cl
ATOM     31  N   UNL     1       1.129   9.554  18.044  0.00  0.00    +0.000 NA
ATOM     32  C   UNL     1       1.942   8.541  18.421  0.00  0.00    +0.000 A 
ENDBRANCH  25  26
ENDBRANCH   6  25
TORSDOF 9
ENDMDL
MODEL 6
REMARK VINA RESULT:      -7.4      1.012      1.520
REMARK  Name = 
REMARK  10 active torsions:
REMARK  status: ('A' for Active; 'I' for Inactive)
REMARK    1  A    between atoms: C_1  and  C_2
REMARK    2  A    between atoms: C_2  and  O_3
REMARK    3  A    between atoms: O_3  and  C_4
REMARK    4  A    between atoms: C_4  and  C_6
REMARK    5  A    between atoms: C_6  and  C_7
REMARK    6  A    between atoms: C_6  and  N_14
REMARK    7  A    between atoms: C_7  and  C_8
REMARK    8  A    between atoms: N_18  and  N_19
REMARK    9  A    between atoms: N_22  and  C_23
REMARK   10  A    between atoms: C_23  and  C_24
REMARK                            x       y       z     vdW  Elec       q    Type
REMARK                         _______ _______ _______ _____ _____    ______ ____
ROOT
ATOM      1  N   UNL     1       4.369   4.917  16.840  0.00  0.00    +0.000 NA
ATOM      2  C   UNL     1       3.460   3.795  16.706  0.00  0.00    +0.000 C 
ATOM      3  N   UNL     1       2.583   3.503  17.787  0.00  0.00    +0.000 N 
ATOM      4  C   UNL     1       2.357   4.345  18.826  0.00  0.00    +0.000 C 
ATOM      5  N   UNL     1       1.671   4.159  19.899  0.00  0.00    +0.000 NA
ATOM      6  N   UNL     1       3.013   5.609  18.674  0.00  0.00    +0.000 N 
ATOM      7  C   UNL     1       3.571   5.995  17.386  0.00  0.00    +0.000 C 
ATOM      8  H   UNL     1       2.348   2.519  17.920  0.00  0.00    +0.000 HD
ENDROOT
BRANCH   5   9
ATOM      9  N   UNL     1       1.004   3.002  20.000  0.00  0.00    +0.000 N 
ATOM     10  O   UNL     1       0.242   2.639  19.089  0.00  0.00    +0.000 OA
ATOM     11  O   UNL     1       1.198   2.326  21.017  0.00  0.00    +0.000 OA
ENDBRANCH   5   9
BRANCH   1  12
ATOM     12  C   UNL     1       5.619   4.559  17.574  0.00  0.00    +0.000 C 
BRANCH  12  13
ATOM     13  C   UNL     1       6.179   5.691  18.454  0.00  0.00    +0.000 C 
ATOM     14  O   UNL     1       6.315   5.661  19.668  0.00  0.00    +0.000 OA
BRANCH  13  15
ATOM     15  O   UNL     1       6.537   6.746  17.659  0.00  0.00    +0.000 OA
BRANCH  15  17
ATOM     16  C   UNL     1       7.885   8.795  17.763  0.00  0.00    +0.000 C 
ATOM     17  C   UNL     1       7.858   7.280  17.845  0.00  0.00    +0.000 C 
ENDBRANCH  15  17
ENDBRANCH  13  15
ENDBRANCH  12  13
BRANCH  12  18
ATOM     18  C   UNL     1       6.799   4.075  16.666  0.00  0.00    +0.000 C 
BRANCH  18  19
ATOM     19  C   UNL     1       6.749   4.238  15.155  0.00  0.00    +0.000 A 
ATOM     20  C   UNL     1       7.613   5.174  14.554  0.00  0.00    +0.000 A 
ATOM     21  C   UNL     1       7.671   5.326  13.164  0.00  0.00    +0.000 A 
ATOM     22  C   UNL     1       6.870   4.535  12.345  0.00  0.00    +0.000 A 
ATOM     23  C   UNL     1       6.026   3.593  12.915  0.00  0.00    +0.000 A 
ATOM     24  C   UNL     1       5.969   3.441  14.307  0.00  0.00    +0.000 A 
ENDBRANCH  18  19
ENDBRANCH  12  18
ENDBRANCH   1  12
BRANCH   6  25
ATOM     25  C   UNL     1       3.063   6.585  19.786  0.00  0.00    +0.000 C 
BRANCH  25  26
ATOM     26  C   UNL     1       2.115   7.739  19.602  0.00  0.00    +0.000 A 
ATOM     27  C   UNL     1       1.344   8.245  20.657  0.00  0.00    +0.000 A 
ATOM     28  C   UNL     1       0.517   9.351  20.458  0.00  0.00    +0.000 A 
ATOM     29  C   UNL     1       0.484   9.918  19.197  0.00  0.00    +0.000 A 
ATOM     30 CL   UNL     1      -0.518  11.265  18.859  0.00  0.00    +0.000 Cl
ATOM     31  N   UNL     1       1.214   9.473  18.155  0.00  0.00    +0.000 NA
ATOM     32  C   UNL     1       2.016   8.408  18.381  0.00  0.00    +0.000 A 
ENDBRANCH  25  26
ENDBRANCH   6  25
TORSDOF 9
ENDMDL
MODEL 7
REMARK VINA RESULT:      -7.4      0.971      1.206
REMARK  Name = 
REMARK  10 active torsions:
REMARK  status: ('A' for Active; 'I' for Inactive)
REMARK    1  A    between atoms: C_1  and  C_2
REMARK    2  A    between atoms: C_2  and  O_3
REMARK    3  A    between atoms: O_3  and  C_4
REMARK    4  A    between atoms: C_4  and  C_6
REMARK    5  A    between atoms: C_6  and  C_7
REMARK    6  A    between atoms: C_6  and  N_14
REMARK    7  A    between atoms: C_7  and  C_8
REMARK    8  A    between atoms: N_18  and  N_19
REMARK    9  A    between atoms: N_22  and  C_23
REMARK   10  A    between atoms: C_23  and  C_24
REMARK                            x       y       z     vdW  Elec       q    Type
REMARK                         _______ _______ _______ _____ _____    ______ ____
ROOT
ATOM      1  N   UNL     1       4.494   4.925  16.736  0.00  0.00    +0.000 NA
ATOM      2  C   UNL     1       3.604   3.789  16.587  0.00  0.00    +0.000 C 
ATOM      3  N   UNL     1       2.726   3.474  17.660  0.00  0.00    +0.000 N 
ATOM      4  C   UNL     1       2.480   4.303  18.706  0.00  0.00    +0.000 C 
ATOM      5  N   UNL     1       1.792   4.098  19.773  0.00  0.00    +0.000 NA
ATOM      6  N   UNL     1       3.116   5.579  18.568  0.00  0.00    +0.000 N 
ATOM      7  C   UNL     1       3.675   5.985  17.285  0.00  0.00    +0.000 C 
ATOM      8  H   UNL     1       2.507   2.485  17.785  0.00  0.00    +0.000 HD
ENDROOT
BRANCH   5   9
ATOM      9  N   UNL     1       1.143   2.929  19.861  0.00  0.00    +0.000 N 
ATOM     10  O   UNL     1       1.370   2.159  20.809  0.00  0.00    +0.000 OA
ATOM     11  O   UNL     1       0.317   2.674  18.979  0.00  0.00    +0.000 OA
ENDBRANCH   5   9
BRANCH   1  12
ATOM     12  C   UNL     1       5.745   4.581  17.473  0.00  0.00    +0.000 C 
BRANCH  12  13
ATOM     13  C   UNL     1       6.234   5.683  18.431  0.00  0.00    +0.000 C 
ATOM     14  O   UNL     1       6.360   5.581  19.643  0.00  0.00    +0.000 OA
BRANCH  13  15
ATOM     15  O   UNL     1       6.541   6.804  17.711  0.00  0.00    +0.000 OA
BRANCH  15  17
ATOM     16  C   UNL     1       7.891   8.855  17.710  0.00  0.00    +0.000 C 
ATOM     17  C   UNL     1       7.860   7.349  17.887  0.00  0.00    +0.000 C 
ENDBRANCH  15  17
ENDBRANCH  13  15
ENDBRANCH  12  13
BRANCH  12  18
ATOM     18  C   UNL     1       6.963   4.209  16.564  0.00  0.00    +0.000 C 
BRANCH  18  19
ATOM     19  C   UNL     1       6.881   4.321  15.050  0.00  0.00    +0.000 A 
ATOM     20  C   UNL     1       7.724   5.243  14.400  0.00  0.00    +0.000 A 
ATOM     21  C   UNL     1       7.752   5.349  13.004  0.00  0.00    +0.000 A 
ATOM     22  C   UNL     1       6.941   4.526  12.230  0.00  0.00    +0.000 A 
ATOM     23  C   UNL     1       6.115   3.598  12.848  0.00  0.00    +0.000 A 
ATOM     24  C   UNL     1       6.089   3.492  14.245  0.00  0.00    +0.000 A 
ENDBRANCH  18  19
ENDBRANCH  12  18
ENDBRANCH   1  12
BRANCH   6  25
ATOM     25  C   UNL     1       3.145   6.546  19.688  0.00  0.00    +0.000 C 
BRANCH  25  26
ATOM     26  C   UNL     1       2.246   7.733  19.466  0.00  0.00    +0.000 A 
ATOM     27  C   UNL     1       2.092   8.326  18.206  0.00  0.00    +0.000 A 
ATOM     28  C   UNL     1       1.208   9.391  18.032  0.00  0.00    +0.000 A 
ATOM     29  C   UNL     1       0.502   9.836  19.134  0.00  0.00    +0.000 A 
ATOM     30 CL   UNL     1      -0.589  11.151  19.015  0.00  0.00    +0.000 Cl
ATOM     31  N   UNL     1       0.609   9.292  20.363  0.00  0.00    +0.000 NA
ATOM     32  C   UNL     1       1.465   8.254  20.499  0.00  0.00    +0.000 A 
ENDBRANCH  25  26
ENDBRANCH   6  25
TORSDOF 9
ENDMDL
MODEL 8
REMARK VINA RESULT:      -7.0      5.058      7.541
REMARK  Name = 
REMARK  10 active torsions:
REMARK  status: ('A' for Active; 'I' for Inactive)
REMARK    1  A    between atoms: C_1  and  C_2
REMARK    2  A    between atoms: C_2  and  O_3
REMARK    3  A    between atoms: O_3  and  C_4
REMARK    4  A    between atoms: C_4  and  C_6
REMARK    5  A    between atoms: C_6  and  C_7
REMARK    6  A    between atoms: C_6  and  N_14
REMARK    7  A    between atoms: C_7  and  C_8
REMARK    8  A    between atoms: N_18  and  N_19
REMARK    9  A    between atoms: N_22  and  C_23
REMARK   10  A    between atoms: C_23  and  C_24
REMARK                            x       y       z     vdW  Elec       q    Type
REMARK                         _______ _______ _______ _____ _____    ______ ____
ROOT
ATOM      1  N   UNL     1       1.689   9.666  19.188  0.00  0.00    +0.000 NA
ATOM      2  C   UNL     1       1.272   9.328  17.841  0.00  0.00    +0.000 C 
ATOM      3  N   UNL     1      -0.040   9.690  17.428  0.00  0.00    +0.000 N 
ATOM      4  C   UNL     1      -0.838  10.549  18.111  0.00  0.00    +0.000 C 
ATOM      5  N   UNL     1      -2.063  10.879  17.897  0.00  0.00    +0.000 NA
ATOM      6  N   UNL     1      -0.185  11.139  19.241  0.00  0.00    +0.000 N 
ATOM      7  C   UNL     1       1.260  11.035  19.390  0.00  0.00    +0.000 C 
ATOM      8  H   UNL     1      -0.489   9.063  16.760  0.00  0.00    +0.000 HD
ENDROOT
BRANCH   5   9
ATOM      9  N   UNL     1      -2.643  10.377  16.798  0.00  0.00    +0.000 N 
ATOM     10  O   UNL     1      -3.267   9.305  16.856  0.00  0.00    +0.000 OA
ATOM     11  O   UNL     1      -2.539  11.033  15.756  0.00  0.00    +0.000 OA
ENDBRANCH   5   9
BRANCH   1  12
ATOM     12  C   UNL     1       1.244   8.660  20.196  0.00  0.00    +0.000 C 
BRANCH  12  13
ATOM     13  C   UNL     1       1.039   9.233  21.611  0.00  0.00    +0.000 C 
ATOM     14  O   UNL     1       1.896   9.755  22.308  0.00  0.00    +0.000 OA
BRANCH  13  15
ATOM     15  O   UNL     1      -0.273   9.093  21.968  0.00  0.00    +0.000 OA
BRANCH  15  17
ATOM     16  C   UNL     1      -1.342  10.945  23.175  0.00  0.00    +0.000 C 
ATOM     17  C   UNL     1      -0.652   9.597  23.261  0.00  0.00    +0.000 C 
ENDBRANCH  15  17
ENDBRANCH  13  15
ENDBRANCH  12  13
BRANCH  12  18
ATOM     18  C   UNL     1       2.189   7.422  20.351  0.00  0.00    +0.000 C 
BRANCH  18  19
ATOM     19  C   UNL     1       1.811   6.065  19.777  0.00  0.00    +0.000 A 
ATOM     20  C   UNL     1       2.088   5.812  18.420  0.00  0.00    +0.000 A 
ATOM     21  C   UNL     1       1.832   4.562  17.843  0.00  0.00    +0.000 A 
ATOM     22  C   UNL     1       1.301   3.536  18.618  0.00  0.00    +0.000 A 
ATOM     23  C   UNL     1       1.038   3.757  19.963  0.00  0.00    +0.000 A 
ATOM     24  C   UNL     1       1.295   5.009  20.539  0.00  0.00    +0.000 A 
ENDBRANCH  18  19
ENDBRANCH  12  18
ENDBRANCH   1  12
BRANCH   6  25
ATOM     25  C   UNL     1      -0.941  11.939  20.231  0.00  0.00    +0.000 C 
BRANCH  25  26
ATOM     26  C   UNL     1      -0.642  13.412  20.152  0.00  0.00    +0.000 A 
ATOM     27  C   UNL     1      -0.451  14.197  21.297  0.00  0.00    +0.000 A 
ATOM     28  C   UNL     1      -0.123  15.547  21.179  0.00  0.00    +0.000 A 
ATOM     29  C   UNL     1      -0.001  16.077  19.907  0.00  0.00    +0.000 A 
ATOM     30 CL   UNL     1       0.379  17.730  19.670  0.00  0.00    +0.000 Cl
ATOM     31  N   UNL     1      -0.166  15.361  18.777  0.00  0.00    +0.000 NA
ATOM     32  C   UNL     1      -0.471  14.052  18.923  0.00  0.00    +0.000 A 
ENDBRANCH  25  26
ENDBRANCH   6  25
TORSDOF 9
ENDMDL
MODEL 9
REMARK VINA RESULT:      -7.0      2.112      4.570
REMARK  Name = 
REMARK  10 active torsions:
REMARK  status: ('A' for Active; 'I' for Inactive)
REMARK    1  A    between atoms: C_1  and  C_2
REMARK    2  A    between atoms: C_2  and  O_3
REMARK    3  A    between atoms: O_3  and  C_4
REMARK    4  A    between atoms: C_4  and  C_6
REMARK    5  A    between atoms: C_6  and  C_7
REMARK    6  A    between atoms: C_6  and  N_14
REMARK    7  A    between atoms: C_7  and  C_8
REMARK    8  A    between atoms: N_18  and  N_19
REMARK    9  A    between atoms: N_22  and  C_23
REMARK   10  A    between atoms: C_23  and  C_24
REMARK                            x       y       z     vdW  Elec       q    Type
REMARK                         _______ _______ _______ _____ _____    ______ ____
ROOT
ATOM      1  N   UNL     1       4.256   4.443  18.979  0.00  0.00    +0.000 NA
ATOM      2  C   UNL     1       5.658   4.710  19.236  0.00  0.00    +0.000 C 
ATOM      3  N   UNL     1       6.253   5.847  18.623  0.00  0.00    +0.000 N 
ATOM      4  C   UNL     1       5.547   6.838  18.022  0.00  0.00    +0.000 C 
ATOM      5  N   UNL     1       5.965   7.857  17.356  0.00  0.00    +0.000 NA
ATOM      6  N   UNL     1       4.131   6.677  18.159  0.00  0.00    +0.000 N 
ATOM      7  C   UNL     1       3.590   5.722  19.116  0.00  0.00    +0.000 C 
ATOM      8  H   UNL     1       7.240   5.761  18.381  0.00  0.00    +0.000 HD
ENDROOT
BRANCH   5   9
ATOM      9  N   UNL     1       7.291   8.038  17.293  0.00  0.00    +0.000 N 
ATOM     10  O   UNL     1       8.007   7.214  16.700  0.00  0.00    +0.000 OA
ATOM     11  O   UNL     1       7.748   9.053  17.830  0.00  0.00    +0.000 OA
ENDBRANCH   5   9
BRANCH   1  12
ATOM     12  C   UNL     1       4.038   3.696  17.706  0.00  0.00    +0.000 C 
BRANCH  12  13
ATOM     13  C   UNL     1       3.139   2.454  17.849  0.00  0.00    +0.000 C 
ATOM     14  O   UNL     1       3.510   1.323  18.126  0.00  0.00    +0.000 OA
BRANCH  13  15
ATOM     15  O   UNL     1       1.835   2.815  17.645  0.00  0.00    +0.000 OA
BRANCH  15  17
ATOM     16  C   UNL     1       1.028   3.171  19.936  0.00  0.00    +0.000 C 
ATOM     17  C   UNL     1       0.883   2.399  18.639  0.00  0.00    +0.000 C 
ENDBRANCH  15  17
ENDBRANCH  13  15
ENDBRANCH  12  13
BRANCH  12  18
ATOM     18  C   UNL     1       5.346   3.217  16.991  0.00  0.00    +0.000 C 
BRANCH  18  19
ATOM     19  C   UNL     1       5.727   3.736  15.614  0.00  0.00    +0.000 A 
ATOM     20  C   UNL     1       6.951   4.417  15.470  0.00  0.00    +0.000 A 
ATOM     21  C   UNL     1       7.398   4.860  14.220  0.00  0.00    +0.000 A 
ATOM     22  C   UNL     1       6.630   4.621  13.084  0.00  0.00    +0.000 A 
ATOM     23  C   UNL     1       5.430   3.935  13.199  0.00  0.00    +0.000 A 
ATOM     24  C   UNL     1       4.984   3.492  14.451  0.00  0.00    +0.000 A 
ENDBRANCH  18  19
ENDBRANCH  12  18
ENDBRANCH   1  12
BRANCH   6  25
ATOM     25  C   UNL     1       3.186   7.531  17.404  0.00  0.00    +0.000 C 
BRANCH  25  26
ATOM     26  C   UNL     1       2.303   8.365  18.294  0.00  0.00    +0.000 A 
ATOM     27  C   UNL     1       1.938   7.949  19.581  0.00  0.00    +0.000 A 
ATOM     28  C   UNL     1       1.162   8.775  20.394  0.00  0.00    +0.000 A 
ATOM     29  C   UNL     1       0.770  10.001  19.889  0.00  0.00    +0.000 A 
ATOM     30 CL   UNL     1      -0.201  11.069  20.811  0.00  0.00    +0.000 Cl
ATOM     31  N   UNL     1       1.104  10.448  18.662  0.00  0.00    +0.000 NA
ATOM     32  C   UNL     1       1.866   9.631  17.901  0.00  0.00    +0.000 A 
ENDBRANCH  25  26
ENDBRANCH   6  25
TORSDOF 9
ENDMDL
