MODEL 1
REMARK VINA RESULT:      -8.4      0.000      0.000
REMARK  Name = 
REMARK  3 active torsions:
REMARK  status: ('A' for Active; 'I' for Inactive)
REMARK    1  A    between atoms: C_1  and  O_2
REMARK    2  A    between atoms: O_2  and  C_3
REMARK    3  A    between atoms: C_16  and  C_17
REMARK                            x       y       z     vdW  Elec       q    Type
REMARK                         _______ _______ _______ _____ _____    ______ ____
ROOT
ATOM      1  C   UNL     1       4.717   5.231  17.302  0.00  0.00    +0.000 A 
ATOM      2  C   UNL     1       4.292   4.513  18.420  0.00  0.00    +0.000 A 
ATOM      3  C   UNL     1       3.410   5.084  19.352  0.00  0.00    +0.000 A 
ATOM      4  C   UNL     1       2.945   6.398  19.153  0.00  0.00    +0.000 A 
ATOM      5  C   UNL     1       3.362   7.074  18.012  0.00  0.00    +0.000 A 
ATOM      6  C   UNL     1       4.246   6.527  17.078  0.00  0.00    +0.000 A 
ATOM      7  N   UNL     1       2.732   8.289  18.018  0.00  0.00    +0.000 N 
ATOM      8  C   UNL     1       1.978   8.466  19.153  0.00  0.00    +0.000 A 
ATOM      9  C   UNL     1       1.186   9.557  19.551  0.00  0.00    +0.000 A 
ATOM     10  N   UNL     1       1.029  10.695  18.797  0.00  0.00    +0.000 N 
ATOM     11  C   UNL     1       2.107  11.324  18.059  0.00  0.00    +0.000 C 
ATOM     12  C   UNL     1       1.946  12.807  18.349  0.00  0.00    +0.000 C 
ATOM     13  C   UNL     1       0.450  12.991  18.552  0.00  0.00    +0.000 C 
ATOM     14  C   UNL     1      -0.051  11.638  19.101  0.00  0.00    +0.000 C 
ATOM     15  N   UNL     1       0.512   9.409  20.725  0.00  0.00    +0.000 NA
ATOM     16  C   UNL     1       0.623   8.272  21.448  0.00  0.00    +0.000 A 
ATOM     17  C   UNL     1       1.379   7.173  21.086  0.00  0.00    +0.000 A 
ATOM     18  C   UNL     1       2.083   7.282  19.881  0.00  0.00    +0.000 A 
ATOM     19  H   UNL     1       2.806   8.969  17.281  0.00  0.00    +0.000 HD
ENDROOT
BRANCH  14  20
ATOM     20  C   UNL     1      -1.330  11.206  18.400  0.00  0.00    +0.000 A 
ATOM     21  C   UNL     1      -1.313  10.222  17.394  0.00  0.00    +0.000 A 
ATOM     22  C   UNL     1      -2.483   9.838  16.742  0.00  0.00    +0.000 A 
ATOM     23  C   UNL     1      -3.694  10.430  17.086  0.00  0.00    +0.000 A 
ATOM     24  C   UNL     1      -3.733  11.397  18.091  0.00  0.00    +0.000 A 
ATOM     25  C   UNL     1      -2.560  11.783  18.746  0.00  0.00    +0.000 A 
ENDBRANCH  14  20
BRANCH   1  27
ATOM     26  C   UNL     1       6.919   4.526  16.757  0.00  0.00    +0.000 C 
ATOM     27  O   UNL     1       5.583   4.782  16.342  0.00  0.00    +0.000 OA
ENDBRANCH   1  27
TORSDOF 2
ENDMDL
MODEL 2
REMARK VINA RESULT:      -7.9      1.260      1.524
REMARK  Name = 
REMARK  3 active torsions:
REMARK  status: ('A' for Active; 'I' for Inactive)
REMARK    1  A    between atoms: C_1  and  O_2
REMARK    2  A    between atoms: O_2  and  C_3
REMARK    3  A    between atoms: C_16  and  C_17
REMARK                            x       y       z     vdW  Elec       q    Type
REMARK                         _______ _______ _______ _____ _____    ______ ____
ROOT
ATOM      1  C   UNL     1       3.489   5.480  18.512  0.00  0.00    +0.000 A 
ATOM      2  C   UNL     1       3.017   4.972  19.722  0.00  0.00    +0.000 A 
ATOM      3  C   UNL     1       2.207   5.750  20.566  0.00  0.00    +0.000 A 
ATOM      4  C   UNL     1       1.864   7.061  20.183  0.00  0.00    +0.000 A 
ATOM      5  C   UNL     1       2.324   7.526  18.956  0.00  0.00    +0.000 A 
ATOM      6  C   UNL     1       3.137   6.771  18.107  0.00  0.00    +0.000 A 
ATOM      7  N   UNL     1       1.810   8.783  18.790  0.00  0.00    +0.000 N 
ATOM      8  C   UNL     1       1.095   9.190  19.891  0.00  0.00    +0.000 A 
ATOM      9  C   UNL     1       0.415  10.396  20.132  0.00  0.00    +0.000 A 
ATOM     10  N   UNL     1       0.353  11.426  19.223  0.00  0.00    +0.000 N 
ATOM     11  C   UNL     1       1.473  11.839  18.400  0.00  0.00    +0.000 C 
ATOM     12  C   UNL     1       1.456  13.357  18.477  0.00  0.00    +0.000 C 
ATOM     13  C   UNL     1      -0.012  13.709  18.655  0.00  0.00    +0.000 C 
ATOM     14  C   UNL     1      -0.628  12.501  19.393  0.00  0.00    +0.000 C 
ATOM     15  N   UNL     1      -0.250  10.481  21.317  0.00  0.00    +0.000 NA
ATOM     16  C   UNL     1      -0.234   9.453  22.194  0.00  0.00    +0.000 A 
ATOM     17  C   UNL     1       0.410   8.247  21.991  0.00  0.00    +0.000 A 
ATOM     18  C   UNL     1       1.101   8.116  20.780  0.00  0.00    +0.000 A 
ATOM     19  H   UNL     1       1.936   9.342  17.964  0.00  0.00    +0.000 HD
ENDROOT
BRANCH  14  20
ATOM     20  C   UNL     1      -1.954  12.098  18.765  0.00  0.00    +0.000 A 
ATOM     21  C   UNL     1      -2.011  11.564  17.463  0.00  0.00    +0.000 A 
ATOM     22  C   UNL     1      -3.228  11.209  16.883  0.00  0.00    +0.000 A 
ATOM     23  C   UNL     1      -4.410  11.379  17.595  0.00  0.00    +0.000 A 
ATOM     24  C   UNL     1      -4.373  11.893  18.892  0.00  0.00    +0.000 A 
ATOM     25  C   UNL     1      -3.153  12.249  19.475  0.00  0.00    +0.000 A 
ENDBRANCH  14  20
BRANCH   1  27
ATOM     26  C   UNL     1       4.010   3.443  17.407  0.00  0.00    +0.000 C 
ATOM     27  O   UNL     1       4.293   4.820  17.623  0.00  0.00    +0.000 OA
ENDBRANCH   1  27
TORSDOF 2
ENDMDL
MODEL 3
REMARK VINA RESULT:      -7.9      0.887      1.330
REMARK  Name = 
REMARK  3 active torsions:
REMARK  status: ('A' for Active; 'I' for Inactive)
REMARK    1  A    between atoms: C_1  and  O_2
REMARK    2  A    between atoms: O_2  and  C_3
REMARK    3  A    between atoms: C_16  and  C_17
REMARK                            x       y       z     vdW  Elec       q    Type
REMARK                         _______ _______ _______ _____ _____    ______ ____
ROOT
ATOM      1  C   UNL     1       3.938   5.359  18.056  0.00  0.00    +0.000 A 
ATOM      2  C   UNL     1       3.463   4.795  19.240  0.00  0.00    +0.000 A 
ATOM      3  C   UNL     1       2.631   5.523  20.105  0.00  0.00    +0.000 A 
ATOM      4  C   UNL     1       2.268   6.843  19.771  0.00  0.00    +0.000 A 
ATOM      5  C   UNL     1       2.731   7.365  18.569  0.00  0.00    +0.000 A 
ATOM      6  C   UNL     1       3.567   6.658  17.699  0.00  0.00    +0.000 A 
ATOM      7  N   UNL     1       2.197   8.618  18.447  0.00  0.00    +0.000 N 
ATOM      8  C   UNL     1       1.463   8.968  19.555  0.00  0.00    +0.000 A 
ATOM      9  C   UNL     1       0.759  10.151  19.837  0.00  0.00    +0.000 A 
ATOM     10  N   UNL     1       0.688  11.216  18.969  0.00  0.00    +0.000 N 
ATOM     11  C   UNL     1       1.808  11.681  18.175  0.00  0.00    +0.000 C 
ATOM     12  C   UNL     1       1.763  13.193  18.312  0.00  0.00    +0.000 C 
ATOM     13  C   UNL     1       0.287  13.512  18.488  0.00  0.00    +0.000 C 
ATOM     14  C   UNL     1      -0.315  12.265  19.171  0.00  0.00    +0.000 C 
ATOM     15  N   UNL     1       0.081  10.177  21.017  0.00  0.00    +0.000 NA
ATOM     16  C   UNL     1       0.107   9.115  21.853  0.00  0.00    +0.000 A 
ATOM     17  C   UNL     1       0.775   7.930  21.609  0.00  0.00    +0.000 A 
ATOM     18  C   UNL     1       1.480   7.860  20.401  0.00  0.00    +0.000 A 
ATOM     19  H   UNL     1       2.320   9.211  17.645  0.00  0.00    +0.000 HD
ENDROOT
BRANCH  14  20
ATOM     20  C   UNL     1      -1.626  11.864  18.514  0.00  0.00    +0.000 A 
ATOM     21  C   UNL     1      -2.857  12.039  19.174  0.00  0.00    +0.000 A 
ATOM     22  C   UNL     1      -4.057  11.657  18.577  0.00  0.00    +0.000 A 
ATOM     23  C   UNL     1      -4.048  11.094  17.305  0.00  0.00    +0.000 A 
ATOM     24  C   UNL     1      -2.840  10.925  16.628  0.00  0.00    +0.000 A 
ATOM     25  C   UNL     1      -1.636  11.308  17.227  0.00  0.00    +0.000 A 
ENDBRANCH  14  20
BRANCH   1  27
ATOM     26  C   UNL     1       5.161   5.525  16.027  0.00  0.00    +0.000 C 
ATOM     27  O   UNL     1       4.763   4.749  17.150  0.00  0.00    +0.000 OA
ENDBRANCH   1  27
TORSDOF 2
ENDMDL
MODEL 4
REMARK VINA RESULT:      -7.6      1.584      2.387
REMARK  Name = 
REMARK  3 active torsions:
REMARK  status: ('A' for Active; 'I' for Inactive)
REMARK    1  A    between atoms: C_1  and  O_2
REMARK    2  A    between atoms: O_2  and  C_3
REMARK    3  A    between atoms: C_16  and  C_17
REMARK                            x       y       z     vdW  Elec       q    Type
REMARK                         _______ _______ _______ _____ _____    ______ ____
ROOT
ATOM      1  C   UNL     1       2.974   5.947  18.555  0.00  0.00    +0.000 A 
ATOM      2  C   UNL     1       2.670   5.439  19.817  0.00  0.00    +0.000 A 
ATOM      3  C   UNL     1       1.987   6.218  20.765  0.00  0.00    +0.000 A 
ATOM      4  C   UNL     1       1.601   7.532  20.435  0.00  0.00    +0.000 A 
ATOM      5  C   UNL     1       1.891   7.998  19.158  0.00  0.00    +0.000 A 
ATOM      6  C   UNL     1       2.576   7.241  18.204  0.00  0.00    +0.000 A 
ATOM      7  N   UNL     1       1.366   9.258  19.066  0.00  0.00    +0.000 N 
ATOM      8  C   UNL     1       0.810   9.665  20.255  0.00  0.00    +0.000 A 
ATOM      9  C   UNL     1       0.176  10.874  20.589  0.00  0.00    +0.000 A 
ATOM     10  N   UNL     1      -0.005  11.907  19.699  0.00  0.00    +0.000 N 
ATOM     11  C   UNL     1       0.994  12.316  18.731  0.00  0.00    +0.000 C 
ATOM     12  C   UNL     1       0.995  13.834  18.812  0.00  0.00    +0.000 C 
ATOM     13  C   UNL     1      -0.433  14.192  19.191  0.00  0.00    +0.000 C 
ATOM     14  C   UNL     1      -0.949  12.986  20.005  0.00  0.00    +0.000 C 
ATOM     15  N   UNL     1      -0.320  10.959  21.855  0.00  0.00    +0.000 NA
ATOM     16  C   UNL     1      -0.189   9.929  22.720  0.00  0.00    +0.000 A 
ATOM     17  C   UNL     1       0.415   8.720  22.427  0.00  0.00    +0.000 A 
ATOM     18  C   UNL     1       0.933   8.589  21.133  0.00  0.00    +0.000 A 
ATOM     19  H   UNL     1       1.379   9.818  18.231  0.00  0.00    +0.000 HD
ENDROOT
BRANCH  14  20
ATOM     20  C   UNL     1      -2.350  12.590  19.563  0.00  0.00    +0.000 A 
ATOM     21  C   UNL     1      -3.481  12.949  20.321  0.00  0.00    +0.000 A 
ATOM     22  C   UNL     1      -4.763  12.573  19.924  0.00  0.00    +0.000 A 
ATOM     23  C   UNL     1      -4.938  11.833  18.759  0.00  0.00    +0.000 A 
ATOM     24  C   UNL     1      -3.830  11.480  17.988  0.00  0.00    +0.000 A 
ATOM     25  C   UNL     1      -2.544  11.857  18.385  0.00  0.00    +0.000 A 
ENDBRANCH  14  20
BRANCH   1  27
ATOM     26  C   UNL     1       3.323   3.912  17.381  0.00  0.00    +0.000 C 
ATOM     27  O   UNL     1       3.645   5.286  17.562  0.00  0.00    +0.000 OA
ENDBRANCH   1  27
TORSDOF 2
ENDMDL
MODEL 5
REMARK VINA RESULT:      -7.4      1.723      2.585
REMARK  Name = 
REMARK  3 active torsions:
REMARK  status: ('A' for Active; 'I' for Inactive)
REMARK    1  A    between atoms: C_1  and  O_2
REMARK    2  A    between atoms: O_2  and  C_3
REMARK    3  A    between atoms: C_16  and  C_17
REMARK                            x       y       z     vdW  Elec       q    Type
REMARK                         _______ _______ _______ _____ _____    ______ ____
ROOT
ATOM      1  C   UNL     1       2.883   6.517  18.493  0.00  0.00    +0.000 A 
ATOM      2  C   UNL     1       2.626   5.904  19.720  0.00  0.00    +0.000 A 
ATOM      3  C   UNL     1       1.920   6.577  20.730  0.00  0.00    +0.000 A 
ATOM      4  C   UNL     1       1.462   7.889  20.500  0.00  0.00    +0.000 A 
ATOM      5  C   UNL     1       1.705   8.459  19.256  0.00  0.00    +0.000 A 
ATOM      6  C   UNL     1       2.413   7.809  18.242  0.00  0.00    +0.000 A 
ATOM      7  N   UNL     1       1.115   9.693  19.262  0.00  0.00    +0.000 N 
ATOM      8  C   UNL     1       0.559   9.985  20.484  0.00  0.00    +0.000 A 
ATOM      9  C   UNL     1      -0.132  11.133  20.912  0.00  0.00    +0.000 A 
ATOM     10  N   UNL     1      -0.380  12.215  20.101  0.00  0.00    +0.000 N 
ATOM     11  C   UNL     1       0.580  12.744  19.151  0.00  0.00    +0.000 C 
ATOM     12  C   UNL     1       0.504  14.249  19.341  0.00  0.00    +0.000 C 
ATOM     13  C   UNL     1      -0.934  14.505  19.763  0.00  0.00    +0.000 C 
ATOM     14  C   UNL     1      -1.373  13.218  20.495  0.00  0.00    +0.000 C 
ATOM     15  N   UNL     1      -0.610  11.101  22.186  0.00  0.00    +0.000 NA
ATOM     16  C   UNL     1      -0.412  10.021  22.973  0.00  0.00    +0.000 A 
ATOM     17  C   UNL     1       0.249   8.869  22.588  0.00  0.00    +0.000 A 
ATOM     18  C   UNL     1       0.751   8.858  21.281  0.00  0.00    +0.000 A 
ATOM     19  H   UNL     1       1.085  10.311  18.469  0.00  0.00    +0.000 HD
ENDROOT
BRANCH  14  20
ATOM     20  C   UNL     1      -2.759  12.781  20.044  0.00  0.00    +0.000 A 
ATOM     21  C   UNL     1      -2.940  12.028  18.869  0.00  0.00    +0.000 A 
ATOM     22  C   UNL     1      -4.212  11.641  18.449  0.00  0.00    +0.000 A 
ATOM     23  C   UNL     1      -5.327  12.000  19.200  0.00  0.00    +0.000 A 
ATOM     24  C   UNL     1      -5.167  12.734  20.374  0.00  0.00    +0.000 A 
ATOM     25  C   UNL     1      -3.891  13.122  20.797  0.00  0.00    +0.000 A 
ENDBRANCH  14  20
BRANCH   1  27
ATOM     26  C   UNL     1       4.906   5.548  17.711  0.00  0.00    +0.000 C 
ATOM     27  O   UNL     1       3.571   5.963  17.448  0.00  0.00    +0.000 OA
ENDBRANCH   1  27
TORSDOF 2
ENDMDL
MODEL 6
REMARK VINA RESULT:      -7.4      2.381      3.503
REMARK  Name = 
REMARK  3 active torsions:
REMARK  status: ('A' for Active; 'I' for Inactive)
REMARK    1  A    between atoms: C_1  and  O_2
REMARK    2  A    between atoms: O_2  and  C_3
REMARK    3  A    between atoms: C_16  and  C_17
REMARK                            x       y       z     vdW  Elec       q    Type
REMARK                         _______ _______ _______ _____ _____    ______ ____
ROOT
ATOM      1  C   UNL     1       2.645   7.733  18.207  0.00  0.00    +0.000 A 
ATOM      2  C   UNL     1       2.546   6.950  19.357  0.00  0.00    +0.000 A 
ATOM      3  C   UNL     1       1.814   7.391  20.471  0.00  0.00    +0.000 A 
ATOM      4  C   UNL     1       1.167   8.641  20.426  0.00  0.00    +0.000 A 
ATOM      5  C   UNL     1       1.258   9.383  19.254  0.00  0.00    +0.000 A 
ATOM      6  C   UNL     1       1.989   8.966  18.138  0.00  0.00    +0.000 A 
ATOM      7  N   UNL     1       0.506  10.511  19.438  0.00  0.00    +0.000 N 
ATOM      8  C   UNL     1      -0.014  10.574  20.709  0.00  0.00    +0.000 A 
ATOM      9  C   UNL     1      -0.829  11.552  21.305  0.00  0.00    +0.000 A 
ATOM     10  N   UNL     1      -1.269  12.675  20.646  0.00  0.00    +0.000 N 
ATOM     11  C   UNL     1      -0.447  13.445  19.733  0.00  0.00    +0.000 C 
ATOM     12  C   UNL     1      -0.717  14.891  20.112  0.00  0.00    +0.000 C 
ATOM     13  C   UNL     1      -2.151  14.887  20.621  0.00  0.00    +0.000 C 
ATOM     14  C   UNL     1      -2.366  13.473  21.202  0.00  0.00    +0.000 C 
ATOM     15  N   UNL     1      -1.224  11.302  22.584  0.00  0.00    +0.000 NA
ATOM     16  C   UNL     1      -0.835  10.175  23.220  0.00  0.00    +0.000 A 
ATOM     17  C   UNL     1      -0.046   9.184  22.667  0.00  0.00    +0.000 A 
ATOM     18  C   UNL     1       0.377   9.399  21.350  0.00  0.00    +0.000 A 
ATOM     19  H   UNL     1       0.346  11.207  18.731  0.00  0.00    +0.000 HD
ENDROOT
BRANCH  14  20
ATOM     20  C   UNL     1      -3.703  12.899  20.758  0.00  0.00    +0.000 A 
ATOM     21  C   UNL     1      -3.882  12.391  19.457  0.00  0.00    +0.000 A 
ATOM     22  C   UNL     1      -5.111  11.880  19.045  0.00  0.00    +0.000 A 
ATOM     23  C   UNL     1      -6.185  11.864  19.929  0.00  0.00    +0.000 A 
ATOM     24  C   UNL     1      -6.024  12.350  21.227  0.00  0.00    +0.000 A 
ATOM     25  C   UNL     1      -4.791  12.863  21.641  0.00  0.00    +0.000 A 
ENDBRANCH  14  20
BRANCH   1  27
ATOM     26  C   UNL     1       4.478   6.573  17.239  0.00  0.00    +0.000 C 
ATOM     27  O   UNL     1       3.341   7.411  17.073  0.00  0.00    +0.000 OA
ENDBRANCH   1  27
TORSDOF 2
ENDMDL
MODEL 7
REMARK VINA RESULT:      -7.4      1.949      3.081
REMARK  Name = 
REMARK  3 active torsions:
REMARK  status: ('A' for Active; 'I' for Inactive)
REMARK    1  A    between atoms: C_1  and  O_2
REMARK    2  A    between atoms: O_2  and  C_3
REMARK    3  A    between atoms: C_16  and  C_17
REMARK                            x       y       z     vdW  Elec       q    Type
REMARK                         _______ _______ _______ _____ _____    ______ ____
ROOT
ATOM      1  C   UNL     1       2.812   6.937  18.504  0.00  0.00    +0.000 A 
ATOM      2  C   UNL     1       2.583   6.256  19.699  0.00  0.00    +0.000 A 
ATOM      3  C   UNL     1       1.819   6.834  20.726  0.00  0.00    +0.000 A 
ATOM      4  C   UNL     1       1.272   8.119  20.544  0.00  0.00    +0.000 A 
ATOM      5  C   UNL     1       1.491   8.758  19.329  0.00  0.00    +0.000 A 
ATOM      6  C   UNL     1       2.255   8.203  18.299  0.00  0.00    +0.000 A 
ATOM      7  N   UNL     1       0.815   9.947  19.377  0.00  0.00    +0.000 N 
ATOM      8  C   UNL     1       0.224  10.146  20.602  0.00  0.00    +0.000 A 
ATOM      9  C   UNL     1      -0.551  11.223  21.066  0.00  0.00    +0.000 A 
ATOM     10  N   UNL     1      -0.864  12.319  20.298  0.00  0.00    +0.000 N 
ATOM     11  C   UNL     1       0.068  12.954  19.387  0.00  0.00    +0.000 C 
ATOM     12  C   UNL     1      -0.115  14.441  19.639  0.00  0.00    +0.000 C 
ATOM     13  C   UNL     1      -1.574  14.578  20.048  0.00  0.00    +0.000 C 
ATOM     14  C   UNL     1      -1.930  13.233  20.718  0.00  0.00    +0.000 C 
ATOM     15  N   UNL     1      -1.042  11.104  22.331  0.00  0.00    +0.000 NA
ATOM     16  C   UNL     1      -0.779  10.006  23.075  0.00  0.00    +0.000 A 
ATOM     17  C   UNL     1      -0.034   8.921  22.651  0.00  0.00    +0.000 A 
ATOM     18  C   UNL     1       0.485   9.002  21.353  0.00  0.00    +0.000 A 
ATOM     19  H   UNL     1       0.753  10.594  18.611  0.00  0.00    +0.000 HD
ENDROOT
BRANCH  14  20
ATOM     20  C   UNL     1      -3.276  12.721  20.227  0.00  0.00    +0.000 A 
ATOM     21  C   UNL     1      -4.438  12.862  21.009  0.00  0.00    +0.000 A 
ATOM     22  C   UNL     1      -5.668  12.379  20.566  0.00  0.00    +0.000 A 
ATOM     23  C   UNL     1      -5.759  11.747  19.329  0.00  0.00    +0.000 A 
ATOM     24  C   UNL     1      -4.621  11.610  18.534  0.00  0.00    +0.000 A 
ATOM     25  C   UNL     1      -3.387  12.095  18.978  0.00  0.00    +0.000 A 
ENDBRANCH  14  20
BRANCH   1  27
ATOM     26  C   UNL     1       3.904   5.101  17.466  0.00  0.00    +0.000 C 
ATOM     27  O   UNL     1       3.550   6.478  17.447  0.00  0.00    +0.000 OA
ENDBRANCH   1  27
TORSDOF 2
ENDMDL
MODEL 8
REMARK VINA RESULT:      -7.2      4.207      8.687
REMARK  Name = 
REMARK  3 active torsions:
REMARK  status: ('A' for Active; 'I' for Inactive)
REMARK    1  A    between atoms: C_1  and  O_2
REMARK    2  A    between atoms: O_2  and  C_3
REMARK    3  A    between atoms: C_16  and  C_17
REMARK                            x       y       z     vdW  Elec       q    Type
REMARK                         _______ _______ _______ _____ _____    ______ ____
ROOT
ATOM      1  C   UNL     1      -7.051  13.116  20.176  0.00  0.00    +0.000 A 
ATOM      2  C   UNL     1      -7.537  12.208  19.235  0.00  0.00    +0.000 A 
ATOM      3  C   UNL     1      -6.661  11.477  18.416  0.00  0.00    +0.000 A 
ATOM      4  C   UNL     1      -5.271  11.660  18.550  0.00  0.00    +0.000 A 
ATOM      5  C   UNL     1      -4.818  12.548  19.519  0.00  0.00    +0.000 A 
ATOM      6  C   UNL     1      -5.674  13.291  20.337  0.00  0.00    +0.000 A 
ATOM      7  N   UNL     1      -3.451  12.502  19.492  0.00  0.00    +0.000 N 
ATOM      8  C   UNL     1      -2.989  11.677  18.495  0.00  0.00    +0.000 A 
ATOM      9  C   UNL     1      -1.671  11.355  18.127  0.00  0.00    +0.000 A 
ATOM     10  N   UNL     1      -0.561  11.851  18.769  0.00  0.00    +0.000 N 
ATOM     11  C   UNL     1      -0.447  13.220  19.232  0.00  0.00    +0.000 C 
ATOM     12  C   UNL     1       0.952  13.642  18.815  0.00  0.00    +0.000 C 
ATOM     13  C   UNL     1       1.763  12.357  18.860  0.00  0.00    +0.000 C 
ATOM     14  C   UNL     1       0.750  11.231  18.558  0.00  0.00    +0.000 C 
ATOM     15  N   UNL     1      -1.538  10.456  17.112  0.00  0.00    +0.000 NA
ATOM     16  C   UNL     1      -2.625   9.926  16.509  0.00  0.00    +0.000 A 
ATOM     17  C   UNL     1      -3.936  10.206  16.850  0.00  0.00    +0.000 A 
ATOM     18  C   UNL     1      -4.117  11.122  17.893  0.00  0.00    +0.000 A 
ATOM     19  H   UNL     1      -2.854  13.005  20.127  0.00  0.00    +0.000 HD
ENDROOT
BRANCH  14  20
ATOM     20  C   UNL     1       0.932  10.063  19.516  0.00  0.00    +0.000 A 
ATOM     21  C   UNL     1       1.633   8.906  19.129  0.00  0.00    +0.000 A 
ATOM     22  C   UNL     1       1.787   7.830  20.002  0.00  0.00    +0.000 A 
ATOM     23  C   UNL     1       1.243   7.893  21.281  0.00  0.00    +0.000 A 
ATOM     24  C   UNL     1       0.556   9.038  21.687  0.00  0.00    +0.000 A 
ATOM     25  C   UNL     1       0.402  10.117  20.812  0.00  0.00    +0.000 A 
ENDBRANCH  14  20
BRANCH   1  27
ATOM     26  C   UNL     1      -7.146  14.454  22.136  0.00  0.00    +0.000 C 
ATOM     27  O   UNL     1      -7.810  13.889  21.012  0.00  0.00    +0.000 OA
ENDBRANCH   1  27
TORSDOF 2
ENDMDL
MODEL 9
REMARK VINA RESULT:      -7.0      4.426      8.897
REMARK  Name = 
REMARK  3 active torsions:
REMARK  status: ('A' for Active; 'I' for Inactive)
REMARK    1  A    between atoms: C_1  and  O_2
REMARK    2  A    between atoms: O_2  and  C_3
REMARK    3  A    between atoms: C_16  and  C_17
REMARK                            x       y       z     vdW  Elec       q    Type
REMARK                         _______ _______ _______ _____ _____    ______ ____
ROOT
ATOM      1  C   UNL     1      -6.931  13.185  21.792  0.00  0.00    +0.000 A 
ATOM      2  C   UNL     1      -7.553  12.464  20.773  0.00  0.00    +0.000 A 
ATOM      3  C   UNL     1      -6.811  11.935  19.705  0.00  0.00    +0.000 A 
ATOM      4  C   UNL     1      -5.417  12.133  19.663  0.00  0.00    +0.000 A 
ATOM      5  C   UNL     1      -4.823  12.829  20.710  0.00  0.00    +0.000 A 
ATOM      6  C   UNL     1      -5.546  13.370  21.777  0.00  0.00    +0.000 A 
ATOM      7  N   UNL     1      -3.476  12.832  20.471  0.00  0.00    +0.000 N 
ATOM      8  C   UNL     1      -3.170  12.233  19.273  0.00  0.00    +0.000 A 
ATOM      9  C   UNL     1      -1.924  12.032  18.655  0.00  0.00    +0.000 A 
ATOM     10  N   UNL     1      -0.730  12.428  19.210  0.00  0.00    +0.000 N 
ATOM     11  C   UNL     1      -0.549  13.683  19.913  0.00  0.00    +0.000 C 
ATOM     12  C   UNL     1       0.769  14.223  19.384  0.00  0.00    +0.000 C 
ATOM     13  C   UNL     1       1.580  12.981  19.052  0.00  0.00    +0.000 C 
ATOM     14  C   UNL     1       0.535  11.904  18.688  0.00  0.00    +0.000 C 
ATOM     15  N   UNL     1      -1.945  11.353  17.475  0.00  0.00    +0.000 NA
ATOM     16  C   UNL     1      -3.111  10.917  16.948  0.00  0.00    +0.000 A 
ATOM     17  C   UNL     1      -4.354  11.083  17.528  0.00  0.00    +0.000 A 
ATOM     18  C   UNL     1      -4.376  11.771  18.748  0.00  0.00    +0.000 A 
ATOM     19  H   UNL     1      -2.791  13.221  21.096  0.00  0.00    +0.000 HD
ENDROOT
BRANCH  14  20
ATOM     20  C   UNL     1       0.863  10.578  19.357  0.00  0.00    +0.000 A 
ATOM     21  C   UNL     1       1.474   9.531  18.640  0.00  0.00    +0.000 A 
ATOM     22  C   UNL     1       1.761   8.311  19.250  0.00  0.00    +0.000 A 
ATOM     23  C   UNL     1       1.444   8.117  20.591  0.00  0.00    +0.000 A 
ATOM     24  C   UNL     1       0.852   9.147  21.321  0.00  0.00    +0.000 A 
ATOM     25  C   UNL     1       0.564  10.371  20.710  0.00  0.00    +0.000 A 
ENDBRANCH  14  20
BRANCH   1  27
ATOM     26  C   UNL     1      -7.315  13.157  24.136  0.00  0.00    +0.000 C 
ATOM     27  O   UNL     1      -7.555  13.756  22.868  0.00  0.00    +0.000 OA
ENDBRANCH   1  27
TORSDOF 2
ENDMDL
