MODEL 1
REMARK VINA RESULT:      -7.9      0.000      0.000
REMARK  Name = 
REMARK  9 active torsions:
REMARK  status: ('A' for Active; 'I' for Inactive)
REMARK    1  A    between atoms: C_1  and  O_2
REMARK    2  A    between atoms: O_2  and  C_3
REMARK    3  A    between atoms: C_6  and  C_7
REMARK    4  A    between atoms: C_7  and  C_8
REMARK    5  A    between atoms: C_8  and  N_9
REMARK    6  A    between atoms: C_15  and  O_16
REMARK    7  A    between atoms: O_16  and  C_17
REMARK    8  A    between atoms: C_17  and  C_18
REMARK    9  A    between atoms: C_18  and  C_19
REMARK                            x       y       z     vdW  Elec       q    Type
REMARK                         _______ _______ _______ _____ _____    ______ ____
ROOT
ATOM      1  C   UNL     1       6.875   5.376  15.805  0.00  0.00    +0.000 A 
ATOM      2  C   UNL     1       5.847   4.427  15.975  0.00  0.00    +0.000 A 
ATOM      3  C   UNL     1       5.031   4.434  17.098  0.00  0.00    +0.000 A 
ATOM      4  C   UNL     1       5.174   5.433  18.042  0.00  0.00    +0.000 A 
ATOM      5  C   UNL     1       6.070   6.469  17.794  0.00  0.00    +0.000 A 
ATOM      6  C   UNL     1       6.999   6.446  16.746  0.00  0.00    +0.000 A 
ENDROOT
BRANCH   1   8
ATOM      7  C   UNL     1       7.166   4.777  13.455  0.00  0.00    +0.000 C 
ATOM      8  O   UNL     1       7.708   5.281  14.705  0.00  0.00    +0.000 OA
ENDBRANCH   1   8
BRANCH   4   9
ATOM      9  C   UNL     1       4.539   5.266  19.395  0.00  0.00    +0.000 C 
BRANCH   9  10
ATOM     10  C   UNL     1       3.014   5.113  19.376  0.00  0.00    +0.000 C 
BRANCH  10  11
ATOM     11  N   UNL     1       2.585   3.706  19.326  0.00  0.00    +0.000 NA
ATOM     12  C   UNL     1       1.221   3.588  19.872  0.00  0.00    +0.000 C 
ATOM     13  C   UNL     1       1.420   3.419  21.366  0.00  0.00    +0.000 C 
ATOM     14  C   UNL     1       2.629   2.510  21.431  0.00  0.00    +0.000 C 
ATOM     15  C   UNL     1       3.427   2.841  20.177  0.00  0.00    +0.000 C 
ENDBRANCH  10  11
ENDBRANCH   9  10
ENDBRANCH   4   9
BRANCH   6  16
ATOM     16  O   UNL     1       8.009   7.430  16.730  0.00  0.00    +0.000 OA
BRANCH  16  17
ATOM     17  C   UNL     1       8.075   8.231  17.971  0.00  0.00    +0.000 C 
BRANCH  17  18
ATOM     18  C   UNL     1       7.995   9.775  17.946  0.00  0.00    +0.000 C 
BRANCH  18  19
ATOM     19  C   UNL     1       9.151  10.489  18.592  0.00  0.00    +0.000 A 
ATOM     20  C   UNL     1       9.234  10.681  19.986  0.00  0.00    +0.000 A 
ATOM     21  C   UNL     1      10.312  11.380  20.539  0.00  0.00    +0.000 A 
ATOM     22  C   UNL     1      11.318  11.876  19.712  0.00  0.00    +0.000 A 
ATOM     23  C   UNL     1      11.262  11.648  18.341  0.00  0.00    +0.000 A 
ATOM     24  C   UNL     1      10.187  10.953  17.791  0.00  0.00    +0.000 A 
ENDBRANCH  18  19
ENDBRANCH  17  18
ENDBRANCH  16  17
ENDBRANCH   6  16
TORSDOF 8
ENDMDL
MODEL 2
REMARK VINA RESULT:      -7.7      2.317      6.790
REMARK  Name = 
REMARK  9 active torsions:
REMARK  status: ('A' for Active; 'I' for Inactive)
REMARK    1  A    between atoms: C_1  and  O_2
REMARK    2  A    between atoms: O_2  and  C_3
REMARK    3  A    between atoms: C_6  and  C_7
REMARK    4  A    between atoms: C_7  and  C_8
REMARK    5  A    between atoms: C_8  and  N_9
REMARK    6  A    between atoms: C_15  and  O_16
REMARK    7  A    between atoms: O_16  and  C_17
REMARK    8  A    between atoms: C_17  and  C_18
REMARK    9  A    between atoms: C_18  and  C_19
REMARK                            x       y       z     vdW  Elec       q    Type
REMARK                         _______ _______ _______ _____ _____    ______ ____
ROOT
ATOM      1  C   UNL     1       6.856   6.103  17.062  0.00  0.00    +0.000 A 
ATOM      2  C   UNL     1       6.606   5.745  18.402  0.00  0.00    +0.000 A 
ATOM      3  C   UNL     1       5.646   4.798  18.733  0.00  0.00    +0.000 A 
ATOM      4  C   UNL     1       4.964   4.135  17.731  0.00  0.00    +0.000 A 
ATOM      5  C   UNL     1       5.329   4.360  16.407  0.00  0.00    +0.000 A 
ATOM      6  C   UNL     1       6.197   5.386  16.014  0.00  0.00    +0.000 A 
ENDROOT
BRANCH   1   8
ATOM      7  C   UNL     1       7.900   8.210  17.723  0.00  0.00    +0.000 C 
ATOM      8  O   UNL     1       7.770   7.104  16.790  0.00  0.00    +0.000 OA
ENDBRANCH   1   8
BRANCH   4   9
ATOM      9  C   UNL     1       3.715   3.369  18.070  0.00  0.00    +0.000 C 
BRANCH   9  10
ATOM     10  C   UNL     1       2.477   4.236  18.322  0.00  0.00    +0.000 C 
BRANCH  10  11
ATOM     11  N   UNL     1       1.488   3.575  19.189  0.00  0.00    +0.000 NA
ATOM     12  C   UNL     1       1.109   4.484  20.286  0.00  0.00    +0.000 C 
ATOM     13  C   UNL     1       2.145   4.232  21.365  0.00  0.00    +0.000 C 
ATOM     14  C   UNL     1       2.325   2.731  21.298  0.00  0.00    +0.000 C 
ATOM     15  C   UNL     1       2.043   2.374  19.845  0.00  0.00    +0.000 C 
ENDBRANCH  10  11
ENDBRANCH   9  10
ENDBRANCH   4   9
BRANCH   6  16
ATOM     16  O   UNL     1       6.310   5.673  14.638  0.00  0.00    +0.000 OA
BRANCH  16  17
ATOM     17  C   UNL     1       7.477   5.034  13.994  0.00  0.00    +0.000 C 
BRANCH  17  18
ATOM     18  C   UNL     1       7.547   4.825  12.463  0.00  0.00    +0.000 C 
BRANCH  18  19
ATOM     19  C   UNL     1       6.846   3.597  11.950  0.00  0.00    +0.000 A 
ATOM     20  C   UNL     1       5.442   3.467  11.968  0.00  0.00    +0.000 A 
ATOM     21  C   UNL     1       4.836   2.293  11.510  0.00  0.00    +0.000 A 
ATOM     22  C   UNL     1       5.619   1.251  11.019  0.00  0.00    +0.000 A 
ATOM     23  C   UNL     1       7.001   1.394  10.958  0.00  0.00    +0.000 A 
ATOM     24  C   UNL     1       7.605   2.563  11.414  0.00  0.00    +0.000 A 
ENDBRANCH  18  19
ENDBRANCH  17  18
ENDBRANCH  16  17
ENDBRANCH   6  16
TORSDOF 8
ENDMDL
MODEL 3
REMARK VINA RESULT:      -7.6      3.061      5.665
REMARK  Name = 
REMARK  9 active torsions:
REMARK  status: ('A' for Active; 'I' for Inactive)
REMARK    1  A    between atoms: C_1  and  O_2
REMARK    2  A    between atoms: O_2  and  C_3
REMARK    3  A    between atoms: C_6  and  C_7
REMARK    4  A    between atoms: C_7  and  C_8
REMARK    5  A    between atoms: C_8  and  N_9
REMARK    6  A    between atoms: C_15  and  O_16
REMARK    7  A    between atoms: O_16  and  C_17
REMARK    8  A    between atoms: C_17  and  C_18
REMARK    9  A    between atoms: C_18  and  C_19
REMARK                            x       y       z     vdW  Elec       q    Type
REMARK                         _______ _______ _______ _____ _____    ______ ____
ROOT
ATOM      1  C   UNL     1       6.108   6.321  16.766  0.00  0.00    +0.000 A 
ATOM      2  C   UNL     1       6.597   5.039  16.442  0.00  0.00    +0.000 A 
ATOM      3  C   UNL     1       5.825   3.900  16.628  0.00  0.00    +0.000 A 
ATOM      4  C   UNL     1       4.522   4.020  17.072  0.00  0.00    +0.000 A 
ATOM      5  C   UNL     1       3.980   5.293  17.227  0.00  0.00    +0.000 A 
ATOM      6  C   UNL     1       4.744   6.465  17.174  0.00  0.00    +0.000 A 
ENDROOT
BRANCH   1   8
ATOM      7  C   UNL     1       7.779   7.803  17.754  0.00  0.00    +0.000 C 
ATOM      8  O   UNL     1       6.941   7.416  16.632  0.00  0.00    +0.000 OA
ENDBRANCH   1   8
BRANCH   4   9
ATOM      9  C   UNL     1       3.802   2.804  17.586  0.00  0.00    +0.000 C 
BRANCH   9  10
ATOM     10  C   UNL     1       2.339   3.039  17.974  0.00  0.00    +0.000 C 
BRANCH  10  11
ATOM     11  N   UNL     1       2.007   2.485  19.297  0.00  0.00    +0.000 NA
ATOM     12  C   UNL     1       0.709   3.024  19.745  0.00  0.00    +0.000 C 
ATOM     13  C   UNL     1       1.055   4.329  20.435  0.00  0.00    +0.000 C 
ATOM     14  C   UNL     1       2.325   3.976  21.178  0.00  0.00    +0.000 C 
ATOM     15  C   UNL     1       2.981   2.897  20.329  0.00  0.00    +0.000 C 
ENDBRANCH  10  11
ENDBRANCH   9  10
ENDBRANCH   4   9
BRANCH   6  16
ATOM     16  O   UNL     1       4.140   7.673  17.578  0.00  0.00    +0.000 OA
BRANCH  16  17
ATOM     17  C   UNL     1       2.762   7.505  18.088  0.00  0.00    +0.000 C 
BRANCH  17  18
ATOM     18  C   UNL     1       1.759   8.681  18.120  0.00  0.00    +0.000 C 
BRANCH  18  19
ATOM     19  C   UNL     1       1.197   9.010  19.477  0.00  0.00    +0.000 A 
ATOM     20  C   UNL     1       1.511   8.255  20.625  0.00  0.00    +0.000 A 
ATOM     21  C   UNL     1       0.940   8.579  21.860  0.00  0.00    +0.000 A 
ATOM     22  C   UNL     1       0.069   9.661  21.962  0.00  0.00    +0.000 A 
ATOM     23  C   UNL     1      -0.207  10.435  20.840  0.00  0.00    +0.000 A 
ATOM     24  C   UNL     1       0.362  10.112  19.610  0.00  0.00    +0.000 A 
ENDBRANCH  18  19
ENDBRANCH  17  18
ENDBRANCH  16  17
ENDBRANCH   6  16
TORSDOF 8
ENDMDL
MODEL 4
REMARK VINA RESULT:      -7.6      1.090      1.656
REMARK  Name = 
REMARK  9 active torsions:
REMARK  status: ('A' for Active; 'I' for Inactive)
REMARK    1  A    between atoms: C_1  and  O_2
REMARK    2  A    between atoms: O_2  and  C_3
REMARK    3  A    between atoms: C_6  and  C_7
REMARK    4  A    between atoms: C_7  and  C_8
REMARK    5  A    between atoms: C_8  and  N_9
REMARK    6  A    between atoms: C_15  and  O_16
REMARK    7  A    between atoms: O_16  and  C_17
REMARK    8  A    between atoms: C_17  and  C_18
REMARK    9  A    between atoms: C_18  and  C_19
REMARK                            x       y       z     vdW  Elec       q    Type
REMARK                         _______ _______ _______ _____ _____    ______ ____
ROOT
ATOM      1  C   UNL     1       6.825   5.223  15.638  0.00  0.00    +0.000 A 
ATOM      2  C   UNL     1       5.835   4.226  15.747  0.00  0.00    +0.000 A 
ATOM      3  C   UNL     1       5.064   4.090  16.895  0.00  0.00    +0.000 A 
ATOM      4  C   UNL     1       5.214   4.993  17.930  0.00  0.00    +0.000 A 
ATOM      5  C   UNL     1       6.066   6.079  17.757  0.00  0.00    +0.000 A 
ATOM      6  C   UNL     1       6.953   6.196  16.679  0.00  0.00    +0.000 A 
ENDROOT
BRANCH   1   8
ATOM      7  C   UNL     1       7.098   4.717  13.265  0.00  0.00    +0.000 C 
ATOM      8  O   UNL     1       7.615   5.269  14.505  0.00  0.00    +0.000 OA
ENDBRANCH   1   8
BRANCH   4   9
ATOM      9  C   UNL     1       4.640   4.667  19.282  0.00  0.00    +0.000 C 
BRANCH   9  10
ATOM     10  C   UNL     1       4.475   3.171  19.568  0.00  0.00    +0.000 C 
BRANCH  10  11
ATOM     11  N   UNL     1       3.190   2.853  20.211  0.00  0.00    +0.000 NA
ATOM     12  C   UNL     1       2.381   2.016  19.307  0.00  0.00    +0.000 C 
ATOM     13  C   UNL     1       1.638   3.006  18.430  0.00  0.00    +0.000 C 
ATOM     14  C   UNL     1       1.272   4.097  19.413  0.00  0.00    +0.000 C 
ATOM     15  C   UNL     1       2.381   4.065  20.456  0.00  0.00    +0.000 C 
ENDBRANCH  10  11
ENDBRANCH   9  10
ENDBRANCH   4   9
BRANCH   6  16
ATOM     16  O   UNL     1       7.930   7.211  16.728  0.00  0.00    +0.000 OA
BRANCH  16  17
ATOM     17  C   UNL     1       7.622   8.285  17.695  0.00  0.00    +0.000 C 
BRANCH  17  18
ATOM     18  C   UNL     1       8.700   8.858  18.644  0.00  0.00    +0.000 C 
BRANCH  18  19
ATOM     19  C   UNL     1       8.991  10.324  18.477  0.00  0.00    +0.000 A 
ATOM     20  C   UNL     1       8.210  11.158  17.651  0.00  0.00    +0.000 A 
ATOM     21  C   UNL     1       8.538  12.509  17.499  0.00  0.00    +0.000 A 
ATOM     22  C   UNL     1       9.631  13.040  18.179  0.00  0.00    +0.000 A 
ATOM     23  C   UNL     1      10.377  12.230  19.030  0.00  0.00    +0.000 A 
ATOM     24  C   UNL     1      10.050  10.885  19.180  0.00  0.00    +0.000 A 
ENDBRANCH  18  19
ENDBRANCH  17  18
ENDBRANCH  16  17
ENDBRANCH   6  16
TORSDOF 8
ENDMDL
MODEL 5
REMARK VINA RESULT:      -7.6      4.870      7.871
REMARK  Name = 
REMARK  9 active torsions:
REMARK  status: ('A' for Active; 'I' for Inactive)
REMARK    1  A    between atoms: C_1  and  O_2
REMARK    2  A    between atoms: O_2  and  C_3
REMARK    3  A    between atoms: C_6  and  C_7
REMARK    4  A    between atoms: C_7  and  C_8
REMARK    5  A    between atoms: C_8  and  N_9
REMARK    6  A    between atoms: C_15  and  O_16
REMARK    7  A    between atoms: O_16  and  C_17
REMARK    8  A    between atoms: C_17  and  C_18
REMARK    9  A    between atoms: C_18  and  C_19
REMARK                            x       y       z     vdW  Elec       q    Type
REMARK                         _______ _______ _______ _____ _____    ______ ____
ROOT
ATOM      1  C   UNL     1       1.821   4.371  19.506  0.00  0.00    +0.000 A 
ATOM      2  C   UNL     1       2.509   3.865  18.384  0.00  0.00    +0.000 A 
ATOM      3  C   UNL     1       3.405   4.647  17.668  0.00  0.00    +0.000 A 
ATOM      4  C   UNL     1       3.691   5.929  18.098  0.00  0.00    +0.000 A 
ATOM      5  C   UNL     1       3.146   6.372  19.300  0.00  0.00    +0.000 A 
ATOM      6  C   UNL     1       2.147   5.676  19.993  0.00  0.00    +0.000 A 
ENDROOT
BRANCH   1   8
ATOM      7  C   UNL     1       1.269   2.861  21.344  0.00  0.00    +0.000 C 
ATOM      8  O   UNL     1       0.884   3.576  20.139  0.00  0.00    +0.000 OA
ENDBRANCH   1   8
BRANCH   4   9
ATOM      9  C   UNL     1       4.386   6.882  17.166  0.00  0.00    +0.000 C 
BRANCH   9  10
ATOM     10  C   UNL     1       5.154   6.217  16.019  0.00  0.00    +0.000 C 
BRANCH  10  11
ATOM     11  N   UNL     1       6.612   6.368  16.149  0.00  0.00    +0.000 NA
ATOM     12  C   UNL     1       7.247   5.037  16.160  0.00  0.00    +0.000 C 
ATOM     13  C   UNL     1       7.214   4.611  17.616  0.00  0.00    +0.000 C 
ATOM     14  C   UNL     1       7.535   5.902  18.339  0.00  0.00    +0.000 C 
ATOM     15  C   UNL     1       6.991   6.997  17.431  0.00  0.00    +0.000 C 
ENDBRANCH  10  11
ENDBRANCH   9  10
ENDBRANCH   4   9
BRANCH   6  16
ATOM     16  O   UNL     1       1.505   6.327  21.066  0.00  0.00    +0.000 OA
BRANCH  16  17
ATOM     17  C   UNL     1       1.267   7.767  20.829  0.00  0.00    +0.000 C 
BRANCH  17  18
ATOM     18  C   UNL     1       1.478   8.819  21.942  0.00  0.00    +0.000 C 
BRANCH  18  19
ATOM     19  C   UNL     1       0.457   9.923  21.985  0.00  0.00    +0.000 A 
ATOM     20  C   UNL     1       0.364  10.903  20.977  0.00  0.00    +0.000 A 
ATOM     21  C   UNL     1      -0.580  11.930  21.076  0.00  0.00    +0.000 A 
ATOM     22  C   UNL     1      -1.445  11.978  22.167  0.00  0.00    +0.000 A 
ATOM     23  C   UNL     1      -1.386  10.986  23.141  0.00  0.00    +0.000 A 
ATOM     24  C   UNL     1      -0.445   9.964  23.042  0.00  0.00    +0.000 A 
ENDBRANCH  18  19
ENDBRANCH  17  18
ENDBRANCH  16  17
ENDBRANCH   6  16
TORSDOF 8
ENDMDL
MODEL 6
REMARK VINA RESULT:      -7.5      2.999      5.734
REMARK  Name = 
REMARK  9 active torsions:
REMARK  status: ('A' for Active; 'I' for Inactive)
REMARK    1  A    between atoms: C_1  and  O_2
REMARK    2  A    between atoms: O_2  and  C_3
REMARK    3  A    between atoms: C_6  and  C_7
REMARK    4  A    between atoms: C_7  and  C_8
REMARK    5  A    between atoms: C_8  and  N_9
REMARK    6  A    between atoms: C_15  and  O_16
REMARK    7  A    between atoms: O_16  and  C_17
REMARK    8  A    between atoms: C_17  and  C_18
REMARK    9  A    between atoms: C_18  and  C_19
REMARK                            x       y       z     vdW  Elec       q    Type
REMARK                         _______ _______ _______ _____ _____    ______ ____
ROOT
ATOM      1  C   UNL     1       6.414   6.684  17.418  0.00  0.00    +0.000 A 
ATOM      2  C   UNL     1       7.233   5.624  17.855  0.00  0.00    +0.000 A 
ATOM      3  C   UNL     1       6.694   4.478  18.426  0.00  0.00    +0.000 A 
ATOM      4  C   UNL     1       5.322   4.334  18.507  0.00  0.00    +0.000 A 
ATOM      5  C   UNL     1       4.509   5.300  17.920  0.00  0.00    +0.000 A 
ATOM      6  C   UNL     1       4.993   6.525  17.445  0.00  0.00    +0.000 A 
ENDROOT
BRANCH   1   8
ATOM      7  C   UNL     1       7.934   8.564  17.768  0.00  0.00    +0.000 C 
ATOM      8  O   UNL     1       7.003   7.833  16.924  0.00  0.00    +0.000 OA
ENDBRANCH   1   8
BRANCH   4   9
ATOM      9  C   UNL     1       4.743   3.276  19.405  0.00  0.00    +0.000 C 
BRANCH   9  10
ATOM     10  C   UNL     1       3.661   2.404  18.758  0.00  0.00    +0.000 C 
BRANCH  10  11
ATOM     11  N   UNL     1       2.507   2.181  19.644  0.00  0.00    +0.000 NA
ATOM     12  C   UNL     1       1.275   2.629  18.970  0.00  0.00    +0.000 C 
ATOM     13  C   UNL     1       1.175   4.106  19.300  0.00  0.00    +0.000 C 
ATOM     14  C   UNL     1       1.622   4.147  20.745  0.00  0.00    +0.000 C 
ATOM     15  C   UNL     1       2.596   2.984  20.880  0.00  0.00    +0.000 C 
ENDBRANCH  10  11
ENDBRANCH   9  10
ENDBRANCH   4   9
BRANCH   6  16
ATOM     16  O   UNL     1       4.056   7.518  17.091  0.00  0.00    +0.000 OA
BRANCH  16  17
ATOM     17  C   UNL     1       2.868   7.553  17.971  0.00  0.00    +0.000 C 
BRANCH  17  18
ATOM     18  C   UNL     1       1.947   8.792  18.042  0.00  0.00    +0.000 C 
BRANCH  18  19
ATOM     19  C   UNL     1       1.273   9.016  19.369  0.00  0.00    +0.000 A 
ATOM     20  C   UNL     1       0.287  10.006  19.556  0.00  0.00    +0.000 A 
ATOM     21  C   UNL     1      -0.288  10.200  20.815  0.00  0.00    +0.000 A 
ATOM     22  C   UNL     1       0.101   9.402  21.888  0.00  0.00    +0.000 A 
ATOM     23  C   UNL     1       1.040   8.395  21.697  0.00  0.00    +0.000 A 
ATOM     24  C   UNL     1       1.613   8.202  20.442  0.00  0.00    +0.000 A 
ENDBRANCH  18  19
ENDBRANCH  17  18
ENDBRANCH  16  17
ENDBRANCH   6  16
TORSDOF 8
ENDMDL
MODEL 7
REMARK VINA RESULT:      -7.4      2.325      6.768
REMARK  Name = 
REMARK  9 active torsions:
REMARK  status: ('A' for Active; 'I' for Inactive)
REMARK    1  A    between atoms: C_1  and  O_2
REMARK    2  A    between atoms: O_2  and  C_3
REMARK    3  A    between atoms: C_6  and  C_7
REMARK    4  A    between atoms: C_7  and  C_8
REMARK    5  A    between atoms: C_8  and  N_9
REMARK    6  A    between atoms: C_15  and  O_16
REMARK    7  A    between atoms: O_16  and  C_17
REMARK    8  A    between atoms: C_17  and  C_18
REMARK    9  A    between atoms: C_18  and  C_19
REMARK                            x       y       z     vdW  Elec       q    Type
REMARK                         _______ _______ _______ _____ _____    ______ ____
ROOT
ATOM      1  C   UNL     1       7.051   6.044  18.102  0.00  0.00    +0.000 A 
ATOM      2  C   UNL     1       6.389   5.609  19.267  0.00  0.00    +0.000 A 
ATOM      3  C   UNL     1       5.333   4.709  19.209  0.00  0.00    +0.000 A 
ATOM      4  C   UNL     1       4.961   4.167  17.994  0.00  0.00    +0.000 A 
ATOM      5  C   UNL     1       5.722   4.462  16.866  0.00  0.00    +0.000 A 
ATOM      6  C   UNL     1       6.713   5.451  16.844  0.00  0.00    +0.000 A 
ENDROOT
BRANCH   1   8
ATOM      7  C   UNL     1       7.778   8.349  17.749  0.00  0.00    +0.000 C 
ATOM      8  O   UNL     1       8.047   6.997  18.207  0.00  0.00    +0.000 OA
ENDBRANCH   1   8
BRANCH   4   9
ATOM      9  C   UNL     1       3.636   3.467  17.872  0.00  0.00    +0.000 C 
BRANCH   9  10
ATOM     10  C   UNL     1       2.416   4.337  18.193  0.00  0.00    +0.000 C 
BRANCH  10  11
ATOM     11  N   UNL     1       1.446   3.655  19.066  0.00  0.00    +0.000 NA
ATOM     12  C   UNL     1       1.088   4.540  20.189  0.00  0.00    +0.000 C 
ATOM     13  C   UNL     1       2.146   4.269  21.242  0.00  0.00    +0.000 C 
ATOM     14  C   UNL     1       2.328   2.770  21.140  0.00  0.00    +0.000 C 
ATOM     15  C   UNL     1       2.018   2.442  19.686  0.00  0.00    +0.000 C 
ENDBRANCH  10  11
ENDBRANCH   9  10
ENDBRANCH   4   9
BRANCH   6  16
ATOM     16  O   UNL     1       7.252   5.827  15.597  0.00  0.00    +0.000 OA
BRANCH  16  17
ATOM     17  C   UNL     1       6.544   5.235  14.443  0.00  0.00    +0.000 C 
BRANCH  17  18
ATOM     18  C   UNL     1       7.301   4.484  13.323  0.00  0.00    +0.000 C 
BRANCH  18  19
ATOM     19  C   UNL     1       6.456   3.577  12.471  0.00  0.00    +0.000 A 
ATOM     20  C   UNL     1       6.988   2.454  11.807  0.00  0.00    +0.000 A 
ATOM     21  C   UNL     1       6.170   1.658  10.999  0.00  0.00    +0.000 A 
ATOM     22  C   UNL     1       4.819   1.965  10.860  0.00  0.00    +0.000 A 
ATOM     23  C   UNL     1       4.280   3.046  11.550  0.00  0.00    +0.000 A 
ATOM     24  C   UNL     1       5.096   3.839  12.355  0.00  0.00    +0.000 A 
ENDBRANCH  18  19
ENDBRANCH  17  18
ENDBRANCH  16  17
ENDBRANCH   6  16
TORSDOF 8
ENDMDL
MODEL 8
REMARK VINA RESULT:      -7.4      0.600      1.144
REMARK  Name = 
REMARK  9 active torsions:
REMARK  status: ('A' for Active; 'I' for Inactive)
REMARK    1  A    between atoms: C_1  and  O_2
REMARK    2  A    between atoms: O_2  and  C_3
REMARK    3  A    between atoms: C_6  and  C_7
REMARK    4  A    between atoms: C_7  and  C_8
REMARK    5  A    between atoms: C_8  and  N_9
REMARK    6  A    between atoms: C_15  and  O_16
REMARK    7  A    between atoms: O_16  and  C_17
REMARK    8  A    between atoms: C_17  and  C_18
REMARK    9  A    between atoms: C_18  and  C_19
REMARK                            x       y       z     vdW  Elec       q    Type
REMARK                         _______ _______ _______ _____ _____    ______ ____
ROOT
ATOM      1  C   UNL     1       6.688   5.372  15.471  0.00  0.00    +0.000 A 
ATOM      2  C   UNL     1       5.674   4.400  15.596  0.00  0.00    +0.000 A 
ATOM      3  C   UNL     1       5.016   4.189  16.800  0.00  0.00    +0.000 A 
ATOM      4  C   UNL     1       5.302   4.992  17.887  0.00  0.00    +0.000 A 
ATOM      5  C   UNL     1       6.175   6.063  17.720  0.00  0.00    +0.000 A 
ATOM      6  C   UNL     1       6.955   6.246  16.571  0.00  0.00    +0.000 A 
ENDROOT
BRANCH   1   8
ATOM      7  C   UNL     1       7.098   4.530  13.215  0.00  0.00    +0.000 C 
ATOM      8  O   UNL     1       7.364   5.492  14.271  0.00  0.00    +0.000 OA
ENDBRANCH   1   8
BRANCH   4   9
ATOM      9  C   UNL     1       4.851   4.568  19.258  0.00  0.00    +0.000 C 
BRANCH   9  10
ATOM     10  C   UNL     1       3.558   5.231  19.744  0.00  0.00    +0.000 C 
BRANCH  10  11
ATOM     11  N   UNL     1       2.353   4.488  19.341  0.00  0.00    +0.000 NA
ATOM     12  C   UNL     1       1.289   4.698  20.339  0.00  0.00    +0.000 C 
ATOM     13  C   UNL     1       1.532   3.629  21.388  0.00  0.00    +0.000 C 
ATOM     14  C   UNL     1       1.923   2.433  20.547  0.00  0.00    +0.000 C 
ATOM     15  C   UNL     1       2.586   3.030  19.313  0.00  0.00    +0.000 C 
ENDBRANCH  10  11
ENDBRANCH   9  10
ENDBRANCH   4   9
BRANCH   6  16
ATOM     16  O   UNL     1       7.972   7.223  16.605  0.00  0.00    +0.000 OA
BRANCH  16  17
ATOM     17  C   UNL     1       7.946   8.063  17.821  0.00  0.00    +0.000 C 
BRANCH  17  18
ATOM     18  C   UNL     1       7.886   9.606  17.741  0.00  0.00    +0.000 C 
BRANCH  18  19
ATOM     19  C   UNL     1       8.972  10.331  18.487  0.00  0.00    +0.000 A 
ATOM     20  C   UNL     1      10.000  11.034  17.828  0.00  0.00    +0.000 A 
ATOM     21  C   UNL     1      11.008  11.666  18.563  0.00  0.00    +0.000 A 
ATOM     22  C   UNL     1      10.989  11.616  19.955  0.00  0.00    +0.000 A 
ATOM     23  C   UNL     1       9.951  10.962  20.610  0.00  0.00    +0.000 A 
ATOM     24  C   UNL     1       8.948  10.332  19.877  0.00  0.00    +0.000 A 
ENDBRANCH  18  19
ENDBRANCH  17  18
ENDBRANCH  16  17
ENDBRANCH   6  16
TORSDOF 8
ENDMDL
MODEL 9
REMARK VINA RESULT:      -7.4      4.402      7.588
REMARK  Name = 
REMARK  9 active torsions:
REMARK  status: ('A' for Active; 'I' for Inactive)
REMARK    1  A    between atoms: C_1  and  O_2
REMARK    2  A    between atoms: O_2  and  C_3
REMARK    3  A    between atoms: C_6  and  C_7
REMARK    4  A    between atoms: C_7  and  C_8
REMARK    5  A    between atoms: C_8  and  N_9
REMARK    6  A    between atoms: C_15  and  O_16
REMARK    7  A    between atoms: O_16  and  C_17
REMARK    8  A    between atoms: C_17  and  C_18
REMARK    9  A    between atoms: C_18  and  C_19
REMARK                            x       y       z     vdW  Elec       q    Type
REMARK                         _______ _______ _______ _____ _____    ______ ____
ROOT
ATOM      1  C   UNL     1       1.827   4.309  19.353  0.00  0.00    +0.000 A 
ATOM      2  C   UNL     1       2.534   3.789  18.251  0.00  0.00    +0.000 A 
ATOM      3  C   UNL     1       3.447   4.561  17.544  0.00  0.00    +0.000 A 
ATOM      4  C   UNL     1       3.729   5.846  17.966  0.00  0.00    +0.000 A 
ATOM      5  C   UNL     1       3.162   6.303  19.153  0.00  0.00    +0.000 A 
ATOM      6  C   UNL     1       2.148   5.618  19.833  0.00  0.00    +0.000 A 
ENDROOT
BRANCH   1   8
ATOM      7  C   UNL     1       1.232   2.825  21.199  0.00  0.00    +0.000 C 
ATOM      8  O   UNL     1       0.875   3.524  19.976  0.00  0.00    +0.000 OA
ENDBRANCH   1   8
BRANCH   4   9
ATOM      9  C   UNL     1       4.446   6.787  17.038  0.00  0.00    +0.000 C 
BRANCH   9  10
ATOM     10  C   UNL     1       5.268   6.106  15.940  0.00  0.00    +0.000 C 
BRANCH  10  11
ATOM     11  N   UNL     1       6.717   6.303  16.111  0.00  0.00    +0.000 NA
ATOM     12  C   UNL     1       7.383   4.992  16.216  0.00  0.00    +0.000 C 
ATOM     13  C   UNL     1       7.309   4.644  17.691  0.00  0.00    +0.000 C 
ATOM     14  C   UNL     1       7.572   5.979  18.353  0.00  0.00    +0.000 C 
ATOM     15  C   UNL     1       7.034   7.009  17.369  0.00  0.00    +0.000 C 
ENDBRANCH  10  11
ENDBRANCH   9  10
ENDBRANCH   4   9
BRANCH   6  16
ATOM     16  O   UNL     1       1.486   6.282  20.887  0.00  0.00    +0.000 OA
BRANCH  16  17
ATOM     17  C   UNL     1       1.967   7.662  21.111  0.00  0.00    +0.000 C 
BRANCH  17  18
ATOM     18  C   UNL     1       1.010   8.795  21.549  0.00  0.00    +0.000 C 
BRANCH  18  19
ATOM     19  C   UNL     1       0.362   9.559  20.426  0.00  0.00    +0.000 A 
ATOM     20  C   UNL     1      -0.686  10.475  20.645  0.00  0.00    +0.000 A 
ATOM     21  C   UNL     1      -1.280  11.138  19.566  0.00  0.00    +0.000 A 
ATOM     22  C   UNL     1      -0.825  10.907  18.271  0.00  0.00    +0.000 A 
ATOM     23  C   UNL     1       0.240  10.038  18.056  0.00  0.00    +0.000 A 
ATOM     24  C   UNL     1       0.831   9.377  19.131  0.00  0.00    +0.000 A 
ENDBRANCH  18  19
ENDBRANCH  17  18
ENDBRANCH  16  17
ENDBRANCH   6  16
TORSDOF 8
ENDMDL
