MODEL 1
REMARK VINA RESULT:      -7.1      0.000      0.000
REMARK  Name = 
REMARK  3 active torsions:
REMARK  status: ('A' for Active; 'I' for Inactive)
REMARK    1  A    between atoms: C_1  and  C_2
REMARK    2  A    between atoms: C_6  and  C_7
REMARK    3  A    between atoms: C_12  and  C_14
REMARK                            x       y       z     vdW  Elec       q    Type
REMARK                         _______ _______ _______ _____ _____    ______ ____
ROOT
ATOM      1  C   UNL     1       6.031   6.208  16.686  0.00  0.00    +0.000 C 
ATOM      2  C   UNL     1       7.092   5.987  17.776  0.00  0.00    +0.000 C 
ATOM      3  C   UNL     1       6.709   4.898  18.764  0.00  0.00    +0.000 C 
ATOM      4  C   UNL     1       5.333   5.155  19.355  0.00  0.00    +0.000 C 
ATOM      5  N   UNL     1       4.311   5.241  18.318  0.00  0.00    +0.000 N 
ATOM      6  C   UNL     1       3.006   4.732  18.413  0.00  0.00    +0.000 C 
ATOM      7  O   UNL     1       2.200   4.838  17.490  0.00  0.00    +0.000 OA
ATOM      8  C   UNL     1       4.585   6.204  17.234  0.00  0.00    +0.000 C 
ENDROOT
BRANCH   1  14
ATOM      9  C   UNL     1       8.634   5.646  12.638  0.00  0.00    +0.000 C 
ATOM     10  C   UNL     1       7.517   5.146  13.502  0.00  0.00    +0.000 A 
ATOM     11  N   UNL     1       6.742   4.160  13.025  0.00  0.00    +0.000 NA
ATOM     12  C   UNL     1       5.725   3.774  13.817  0.00  0.00    +0.000 A 
ATOM     13  C   UNL     1       5.453   4.329  15.049  0.00  0.00    +0.000 A 
ATOM     14  C   UNL     1       6.279   5.359  15.451  0.00  0.00    +0.000 A 
ATOM     15  N   UNL     1       7.330   5.756  14.689  0.00  0.00    +0.000 NA
ENDBRANCH   1  14
BRANCH   6  16
ATOM     16  C   UNL     1       2.545   3.998  19.609  0.00  0.00    +0.000 A 
ATOM     17  C   UNL     1       2.503   4.509  20.890  0.00  0.00    +0.000 A 
ATOM     18  N   UNL     1       2.112   3.795  21.971  0.00  0.00    +0.000 NA
ATOM     19  C   UNL     1       1.681   2.547  21.726  0.00  0.00    +0.000 A 
ATOM     20  N   UNL     1       1.587   1.977  20.515  0.00  0.00    +0.000 NA
ATOM     21  C   UNL     1       2.008   2.731  19.474  0.00  0.00    +0.000 A 
ENDBRANCH   6  16
TORSDOF 2
ENDMDL
MODEL 2
REMARK VINA RESULT:      -6.6      1.568      6.931
REMARK  Name = 
REMARK  3 active torsions:
REMARK  status: ('A' for Active; 'I' for Inactive)
REMARK    1  A    between atoms: C_1  and  C_2
REMARK    2  A    between atoms: C_6  and  C_7
REMARK    3  A    between atoms: C_12  and  C_14
REMARK                            x       y       z     vdW  Elec       q    Type
REMARK                         _______ _______ _______ _____ _____    ______ ____
ROOT
ATOM      1  C   UNL     1       3.452   5.777  19.890  0.00  0.00    +0.000 C 
ATOM      2  C   UNL     1       2.597   6.678  18.984  0.00  0.00    +0.000 C 
ATOM      3  C   UNL     1       2.772   6.369  17.506  0.00  0.00    +0.000 C 
ATOM      4  C   UNL     1       4.238   6.396  17.112  0.00  0.00    +0.000 C 
ATOM      5  N   UNL     1       5.023   5.447  17.895  0.00  0.00    +0.000 N 
ATOM      6  C   UNL     1       6.078   4.662  17.407  0.00  0.00    +0.000 C 
ATOM      7  O   UNL     1       6.691   3.876  18.129  0.00  0.00    +0.000 OA
ATOM      8  C   UNL     1       4.889   5.569  19.360  0.00  0.00    +0.000 C 
ENDROOT
BRANCH   1  14
ATOM      9  C   UNL     1       0.623   2.084  18.535  0.00  0.00    +0.000 C 
ATOM     10  C   UNL     1       1.327   2.794  19.651  0.00  0.00    +0.000 A 
ATOM     11  N   UNL     1       1.085   2.391  20.907  0.00  0.00    +0.000 NA
ATOM     12  C   UNL     1       1.705   3.086  21.879  0.00  0.00    +0.000 A 
ATOM     13  C   UNL     1       2.543   4.155  21.648  0.00  0.00    +0.000 A 
ATOM     14  C   UNL     1       2.714   4.524  20.328  0.00  0.00    +0.000 A 
ATOM     15  N   UNL     1       2.125   3.829  19.323  0.00  0.00    +0.000 NA
ENDBRANCH   1  14
BRANCH   6  16
ATOM     16  C   UNL     1       6.481   4.700  15.986  0.00  0.00    +0.000 A 
ATOM     17  C   UNL     1       7.505   5.467  15.468  0.00  0.00    +0.000 A 
ATOM     18  N   UNL     1       7.822   5.509  14.154  0.00  0.00    +0.000 NA
ATOM     19  C   UNL     1       7.123   4.687  13.355  0.00  0.00    +0.000 A 
ATOM     20  N   UNL     1       6.173   3.829  13.757  0.00  0.00    +0.000 NA
ATOM     21  C   UNL     1       5.885   3.843  15.079  0.00  0.00    +0.000 A 
ENDBRANCH   6  16
TORSDOF 2
ENDMDL
MODEL 3
REMARK VINA RESULT:      -6.5      1.566      7.001
REMARK  Name = 
REMARK  3 active torsions:
REMARK  status: ('A' for Active; 'I' for Inactive)
REMARK    1  A    between atoms: C_1  and  C_2
REMARK    2  A    between atoms: C_6  and  C_7
REMARK    3  A    between atoms: C_12  and  C_14
REMARK                            x       y       z     vdW  Elec       q    Type
REMARK                         _______ _______ _______ _____ _____    ______ ____
ROOT
ATOM      1  C   UNL     1       3.489   5.815  19.850  0.00  0.00    +0.000 C 
ATOM      2  C   UNL     1       2.645   6.728  18.948  0.00  0.00    +0.000 C 
ATOM      3  C   UNL     1       2.800   6.410  17.470  0.00  0.00    +0.000 C 
ATOM      4  C   UNL     1       4.263   6.408  17.062  0.00  0.00    +0.000 C 
ATOM      5  N   UNL     1       5.036   5.447  17.842  0.00  0.00    +0.000 N 
ATOM      6  C   UNL     1       6.072   4.639  17.348  0.00  0.00    +0.000 C 
ATOM      7  O   UNL     1       6.675   3.844  18.068  0.00  0.00    +0.000 OA
ATOM      8  C   UNL     1       4.918   5.576  19.308  0.00  0.00    +0.000 C 
ENDROOT
BRANCH   1  14
ATOM      9  C   UNL     1       0.624   2.140  18.524  0.00  0.00    +0.000 C 
ATOM     10  C   UNL     1       1.327   2.857  19.635  0.00  0.00    +0.000 A 
ATOM     11  N   UNL     1       1.069   2.476  20.895  0.00  0.00    +0.000 NA
ATOM     12  C   UNL     1       1.690   3.177  21.862  0.00  0.00    +0.000 A 
ATOM     13  C   UNL     1       2.545   4.231  21.623  0.00  0.00    +0.000 A 
ATOM     14  C   UNL     1       2.731   4.578  20.300  0.00  0.00    +0.000 A 
ATOM     15  N   UNL     1       2.141   3.876  19.299  0.00  0.00    +0.000 NA
ENDBRANCH   1  14
BRANCH   6  16
ATOM     16  C   UNL     1       6.462   4.663  15.924  0.00  0.00    +0.000 A 
ATOM     17  C   UNL     1       5.799   4.011  14.904  0.00  0.00    +0.000 A 
ATOM     18  N   UNL     1       6.208   4.022  13.615  0.00  0.00    +0.000 NA
ATOM     19  C   UNL     1       7.281   4.782  13.345  0.00  0.00    +0.000 A 
ATOM     20  N   UNL     1       7.949   5.533  14.233  0.00  0.00    +0.000 NA
ATOM     21  C   UNL     1       7.507   5.470  15.510  0.00  0.00    +0.000 A 
ENDBRANCH   6  16
TORSDOF 2
ENDMDL
MODEL 4
REMARK VINA RESULT:      -6.5      1.676      7.061
REMARK  Name = 
REMARK  3 active torsions:
REMARK  status: ('A' for Active; 'I' for Inactive)
REMARK    1  A    between atoms: C_1  and  C_2
REMARK    2  A    between atoms: C_6  and  C_7
REMARK    3  A    between atoms: C_12  and  C_14
REMARK                            x       y       z     vdW  Elec       q    Type
REMARK                         _______ _______ _______ _____ _____    ______ ____
ROOT
ATOM      1  C   UNL     1       4.123   5.519  18.822  0.00  0.00    +0.000 C 
ATOM      2  C   UNL     1       3.872   6.944  18.304  0.00  0.00    +0.000 C 
ATOM      3  C   UNL     1       3.967   7.051  16.791  0.00  0.00    +0.000 C 
ATOM      4  C   UNL     1       5.284   6.489  16.286  0.00  0.00    +0.000 C 
ATOM      5  N   UNL     1       5.459   5.095  16.678  0.00  0.00    +0.000 N 
ATOM      6  C   UNL     1       6.030   4.088  15.884  0.00  0.00    +0.000 C 
ATOM      7  O   UNL     1       6.137   2.929  16.283  0.00  0.00    +0.000 OA
ATOM      8  C   UNL     1       5.310   4.817  18.120  0.00  0.00    +0.000 C 
ENDROOT
BRANCH   1  14
ATOM      9  C   UNL     1       1.376   2.723  21.669  0.00  0.00    +0.000 C 
ATOM     10  C   UNL     1       1.577   3.341  20.319  0.00  0.00    +0.000 A 
ATOM     11  N   UNL     1       0.753   2.972  19.327  0.00  0.00    +0.000 NA
ATOM     12  C   UNL     1       0.999   3.520  18.122  0.00  0.00    +0.000 A 
ATOM     13  C   UNL     1       2.024   4.406  17.873  0.00  0.00    +0.000 A 
ATOM     14  C   UNL     1       2.844   4.708  18.941  0.00  0.00    +0.000 A 
ATOM     15  N   UNL     1       2.609   4.195  20.175  0.00  0.00    +0.000 NA
ENDBRANCH   1  14
BRANCH   6  16
ATOM     16  C   UNL     1       6.488   4.354  14.505  0.00  0.00    +0.000 A 
ATOM     17  C   UNL     1       7.506   5.219  14.158  0.00  0.00    +0.000 A 
ATOM     18  N   UNL     1       7.875   5.470  12.881  0.00  0.00    +0.000 NA
ATOM     19  C   UNL     1       7.237   4.762  11.935  0.00  0.00    +0.000 A 
ATOM     20  N   UNL     1       6.301   3.827  12.158  0.00  0.00    +0.000 NA
ATOM     21  C   UNL     1       5.959   3.631  13.452  0.00  0.00    +0.000 A 
ENDBRANCH   6  16
TORSDOF 2
ENDMDL
MODEL 5
REMARK VINA RESULT:      -6.4      1.676      7.129
REMARK  Name = 
REMARK  3 active torsions:
REMARK  status: ('A' for Active; 'I' for Inactive)
REMARK    1  A    between atoms: C_1  and  C_2
REMARK    2  A    between atoms: C_6  and  C_7
REMARK    3  A    between atoms: C_12  and  C_14
REMARK                            x       y       z     vdW  Elec       q    Type
REMARK                         _______ _______ _______ _____ _____    ______ ____
ROOT
ATOM      1  C   UNL     1       4.147   5.493  18.791  0.00  0.00    +0.000 C 
ATOM      2  C   UNL     1       3.899   6.912  18.256  0.00  0.00    +0.000 C 
ATOM      3  C   UNL     1       3.968   6.996  16.740  0.00  0.00    +0.000 C 
ATOM      4  C   UNL     1       5.271   6.413  16.220  0.00  0.00    +0.000 C 
ATOM      5  N   UNL     1       5.440   5.023  16.630  0.00  0.00    +0.000 N 
ATOM      6  C   UNL     1       5.986   4.000  15.841  0.00  0.00    +0.000 C 
ATOM      7  O   UNL     1       6.091   2.846  16.256  0.00  0.00    +0.000 OA
ATOM      8  C   UNL     1       5.314   4.769  18.079  0.00  0.00    +0.000 C 
ENDROOT
BRANCH   1  14
ATOM      9  C   UNL     1       1.457   2.713  21.708  0.00  0.00    +0.000 C 
ATOM     10  C   UNL     1       1.624   3.336  20.355  0.00  0.00    +0.000 A 
ATOM     11  N   UNL     1       0.765   2.982  19.387  0.00  0.00    +0.000 NA
ATOM     12  C   UNL     1       0.980   3.533  18.178  0.00  0.00    +0.000 A 
ATOM     13  C   UNL     1       2.007   4.409  17.902  0.00  0.00    +0.000 A 
ATOM     14  C   UNL     1       2.863   4.696  18.946  0.00  0.00    +0.000 A 
ATOM     15  N   UNL     1       2.660   4.179  20.184  0.00  0.00    +0.000 NA
ENDBRANCH   1  14
BRANCH   6  16
ATOM     16  C   UNL     1       6.423   4.241  14.451  0.00  0.00    +0.000 A 
ATOM     17  C   UNL     1       5.865   3.662  13.329  0.00  0.00    +0.000 A 
ATOM     18  N   UNL     1       6.315   3.873  12.071  0.00  0.00    +0.000 NA
ATOM     19  C   UNL     1       7.316   4.761  11.947  0.00  0.00    +0.000 A 
ATOM     20  N   UNL     1       7.872   5.455  12.951  0.00  0.00    +0.000 NA
ATOM     21  C   UNL     1       7.395   5.189  14.189  0.00  0.00    +0.000 A 
ENDBRANCH   6  16
TORSDOF 2
ENDMDL
MODEL 6
REMARK VINA RESULT:      -6.2      8.405     11.175
REMARK  Name = 
REMARK  3 active torsions:
REMARK  status: ('A' for Active; 'I' for Inactive)
REMARK    1  A    between atoms: C_1  and  C_2
REMARK    2  A    between atoms: C_6  and  C_7
REMARK    3  A    between atoms: C_12  and  C_14
REMARK                            x       y       z     vdW  Elec       q    Type
REMARK                         _______ _______ _______ _____ _____    ______ ____
ROOT
ATOM      1  C   UNL     1      -3.567  12.035  18.083  0.00  0.00    +0.000 C 
ATOM      2  C   UNL     1      -4.043  10.834  17.251  0.00  0.00    +0.000 C 
ATOM      3  C   UNL     1      -3.297   9.552  17.581  0.00  0.00    +0.000 C 
ATOM      4  C   UNL     1      -1.795   9.752  17.480  0.00  0.00    +0.000 C 
ATOM      5  N   UNL     1      -1.334  10.814  18.367  0.00  0.00    +0.000 N 
ATOM      6  C   UNL     1      -0.139  10.803  19.102  0.00  0.00    +0.000 C 
ATOM      7  O   UNL     1       0.180  11.737  19.837  0.00  0.00    +0.000 OA
ATOM      8  C   UNL     1      -2.029  12.109  18.223  0.00  0.00    +0.000 C 
ENDROOT
BRANCH   1  14
ATOM      9  C   UNL     1      -3.403  13.018  22.825  0.00  0.00    +0.000 C 
ATOM     10  C   UNL     1      -4.239  12.640  21.640  0.00  0.00    +0.000 A 
ATOM     11  N   UNL     1      -5.520  12.305  21.853  0.00  0.00    +0.000 NA
ATOM     12  C   UNL     1      -6.220  11.930  20.767  0.00  0.00    +0.000 A 
ATOM     13  C   UNL     1      -5.696  11.876  19.493  0.00  0.00    +0.000 A 
ATOM     14  C   UNL     1      -4.362  12.207  19.366  0.00  0.00    +0.000 A 
ATOM     15  N   UNL     1      -3.634  12.614  20.437  0.00  0.00    +0.000 NA
ENDBRANCH   1  14
BRANCH   6  16
ATOM     16  C   UNL     1       0.780   9.647  19.072  0.00  0.00    +0.000 A 
ATOM     17  C   UNL     1       1.532   9.255  17.983  0.00  0.00    +0.000 A 
ATOM     18  N   UNL     1       2.334   8.166  17.976  0.00  0.00    +0.000 NA
ATOM     19  C   UNL     1       2.430   7.500  19.139  0.00  0.00    +0.000 A 
ATOM     20  N   UNL     1       1.823   7.841  20.286  0.00  0.00    +0.000 NA
ATOM     21  C   UNL     1       1.020   8.928  20.229  0.00  0.00    +0.000 A 
ENDBRANCH   6  16
TORSDOF 2
ENDMDL
MODEL 7
REMARK VINA RESULT:      -6.2      8.307     11.169
REMARK  Name = 
REMARK  3 active torsions:
REMARK  status: ('A' for Active; 'I' for Inactive)
REMARK    1  A    between atoms: C_1  and  C_2
REMARK    2  A    between atoms: C_6  and  C_7
REMARK    3  A    between atoms: C_12  and  C_14
REMARK                            x       y       z     vdW  Elec       q    Type
REMARK                         _______ _______ _______ _____ _____    ______ ____
ROOT
ATOM      1  C   UNL     1      -2.970  12.241  18.487  0.00  0.00    +0.000 C 
ATOM      2  C   UNL     1      -3.553  11.193  17.526  0.00  0.00    +0.000 C 
ATOM      3  C   UNL     1      -2.888   9.833  17.658  0.00  0.00    +0.000 C 
ATOM      4  C   UNL     1      -1.379   9.947  17.523  0.00  0.00    +0.000 C 
ATOM      5  N   UNL     1      -0.818  10.852  18.521  0.00  0.00    +0.000 N 
ATOM      6  C   UNL     1       0.396  10.668  19.200  0.00  0.00    +0.000 C 
ATOM      7  O   UNL     1       0.801  11.474  20.036  0.00  0.00    +0.000 OA
ATOM      8  C   UNL     1      -1.426  12.197  18.572  0.00  0.00    +0.000 C 
ENDROOT
BRANCH   1  14
ATOM      9  C   UNL     1      -7.266  12.010  20.714  0.00  0.00    +0.000 C 
ATOM     10  C   UNL     1      -5.788  12.219  20.837  0.00  0.00    +0.000 A 
ATOM     11  N   UNL     1      -5.304  12.616  22.024  0.00  0.00    +0.000 NA
ATOM     12  C   UNL     1      -3.977  12.834  22.076  0.00  0.00    +0.000 A 
ATOM     13  C   UNL     1      -3.127  12.674  21.003  0.00  0.00    +0.000 A 
ATOM     14  C   UNL     1      -3.710  12.293  19.812  0.00  0.00    +0.000 A 
ATOM     15  N   UNL     1      -5.041  12.041  19.731  0.00  0.00    +0.000 NA
ENDBRANCH   1  14
BRANCH   6  16
ATOM     16  C   UNL     1       1.231   9.469  18.984  0.00  0.00    +0.000 A 
ATOM     17  C   UNL     1       1.985   9.216  17.857  0.00  0.00    +0.000 A 
ATOM     18  N   UNL     1       2.708   8.087  17.674  0.00  0.00    +0.000 NA
ATOM     19  C   UNL     1       2.722   7.226  18.704  0.00  0.00    +0.000 A 
ATOM     20  N   UNL     1       2.108   7.407  19.882  0.00  0.00    +0.000 NA
ATOM     21  C   UNL     1       1.385   8.545  20.001  0.00  0.00    +0.000 A 
ENDBRANCH   6  16
TORSDOF 2
ENDMDL
MODEL 8
REMARK VINA RESULT:      -6.2      1.658      6.884
REMARK  Name = 
REMARK  3 active torsions:
REMARK  status: ('A' for Active; 'I' for Inactive)
REMARK    1  A    between atoms: C_1  and  C_2
REMARK    2  A    between atoms: C_6  and  C_7
REMARK    3  A    between atoms: C_12  and  C_14
REMARK                            x       y       z     vdW  Elec       q    Type
REMARK                         _______ _______ _______ _____ _____    ______ ____
ROOT
ATOM      1  C   UNL     1       4.203   5.917  19.374  0.00  0.00    +0.000 C 
ATOM      2  C   UNL     1       3.346   6.886  18.545  0.00  0.00    +0.000 C 
ATOM      3  C   UNL     1       3.377   6.579  17.056  0.00  0.00    +0.000 C 
ATOM      4  C   UNL     1       4.805   6.503  16.544  0.00  0.00    +0.000 C 
ATOM      5  N   UNL     1       5.578   5.492  17.256  0.00  0.00    +0.000 N 
ATOM      6  C   UNL     1       6.530   4.636  16.681  0.00  0.00    +0.000 C 
ATOM      7  O   UNL     1       7.140   3.801  17.348  0.00  0.00    +0.000 OA
ATOM      8  C   UNL     1       5.574   5.609  18.728  0.00  0.00    +0.000 C 
ENDROOT
BRANCH   1  14
ATOM      9  C   UNL     1       3.223   1.211  18.764  0.00  0.00    +0.000 C 
ATOM     10  C   UNL     1       2.938   2.474  19.518  0.00  0.00    +0.000 A 
ATOM     11  N   UNL     1       1.913   2.476  20.383  0.00  0.00    +0.000 NA
ATOM     12  C   UNL     1       1.667   3.644  21.004  0.00  0.00    +0.000 A 
ATOM     13  C   UNL     1       2.395   4.796  20.796  0.00  0.00    +0.000 A 
ATOM     14  C   UNL     1       3.413   4.717  19.867  0.00  0.00    +0.000 A 
ATOM     15  N   UNL     1       3.704   3.548  19.242  0.00  0.00    +0.000 NA
ENDBRANCH   1  14
BRANCH   6  16
ATOM     16  C   UNL     1       6.818   4.658  15.232  0.00  0.00    +0.000 A 
ATOM     17  C   UNL     1       6.155   3.916  14.277  0.00  0.00    +0.000 A 
ATOM     18  N   UNL     1       6.471   3.930  12.962  0.00  0.00    +0.000 NA
ATOM     19  C   UNL     1       7.443   4.783  12.600  0.00  0.00    +0.000 A 
ATOM     20  N   UNL     1       8.092   5.621  13.422  0.00  0.00    +0.000 NA
ATOM     21  C   UNL     1       7.747   5.551  14.729  0.00  0.00    +0.000 A 
ENDBRANCH   6  16
TORSDOF 2
ENDMDL
MODEL 9
REMARK VINA RESULT:      -6.1      8.859     11.606
REMARK  Name = 
REMARK  3 active torsions:
REMARK  status: ('A' for Active; 'I' for Inactive)
REMARK    1  A    between atoms: C_1  and  C_2
REMARK    2  A    between atoms: C_6  and  C_7
REMARK    3  A    between atoms: C_12  and  C_14
REMARK                            x       y       z     vdW  Elec       q    Type
REMARK                         _______ _______ _______ _____ _____    ______ ____
ROOT
ATOM      1  C   UNL     1      -4.156  11.926  18.110  0.00  0.00    +0.000 C 
ATOM      2  C   UNL     1      -4.212  10.892  16.976  0.00  0.00    +0.000 C 
ATOM      3  C   UNL     1      -3.402   9.641  17.273  0.00  0.00    +0.000 C 
ATOM      4  C   UNL     1      -1.973   9.993  17.648  0.00  0.00    +0.000 C 
ATOM      5  N   UNL     1      -1.925  10.880  18.806  0.00  0.00    +0.000 N 
ATOM      6  C   UNL     1      -0.979  10.821  19.841  0.00  0.00    +0.000 C 
ATOM      7  O   UNL     1      -1.008  11.602  20.791  0.00  0.00    +0.000 OA
ATOM      8  C   UNL     1      -2.738  12.107  18.700  0.00  0.00    +0.000 C 
ENDROOT
BRANCH   1  14
ATOM      9  C   UNL     1      -5.811  13.008  22.533  0.00  0.00    +0.000 C 
ATOM     10  C   UNL     1      -6.019  12.254  21.256  0.00  0.00    +0.000 A 
ATOM     11  N   UNL     1      -7.029  11.373  21.199  0.00  0.00    +0.000 NA
ATOM     12  C   UNL     1      -7.150  10.688  20.047  0.00  0.00    +0.000 A 
ATOM     13  C   UNL     1      -6.311  10.845  18.965  0.00  0.00    +0.000 A 
ATOM     14  C   UNL     1      -5.279  11.749  19.117  0.00  0.00    +0.000 A 
ATOM     15  N   UNL     1      -5.144  12.475  20.255  0.00  0.00    +0.000 NA
ENDBRANCH   1  14
BRANCH   6  16
ATOM     16  C   UNL     1       0.074   9.785  19.872  0.00  0.00    +0.000 A 
ATOM     17  C   UNL     1       1.026   9.588  18.893  0.00  0.00    +0.000 A 
ATOM     18  N   UNL     1       1.952   8.603  18.934  0.00  0.00    +0.000 NA
ATOM     19  C   UNL     1       1.955   7.845  20.042  0.00  0.00    +0.000 A 
ATOM     20  N   UNL     1       1.143   8.003  21.098  0.00  0.00    +0.000 NA
ATOM     21  C   UNL     1       0.225   8.991  20.994  0.00  0.00    +0.000 A 
ENDBRANCH   6  16
TORSDOF 2
ENDMDL
