MODEL 1
REMARK VINA RESULT:      -8.0      0.000      0.000
REMARK  Name = 
REMARK  6 active torsions:
REMARK  status: ('A' for Active; 'I' for Inactive)
REMARK    1  A    between atoms: C_1  and  O_2
REMARK    2  A    between atoms: O_2  and  C_3
REMARK    3  A    between atoms: C_6  and  C_7
REMARK    4  A    between atoms: C_11  and  C_12
REMARK    5  A    between atoms: N_14  and  C_15
REMARK    6  A    between atoms: C_15  and  C_16
REMARK                            x       y       z     vdW  Elec       q    Type
REMARK                         _______ _______ _______ _____ _____    ______ ____
ROOT
ATOM      1  C   UNL     1       3.507   4.490  19.486  0.00  0.00    +0.000 A 
ATOM      2  O   UNL     1       3.430   3.336  20.217  0.00  0.00    +0.000 OA
ATOM      3  C   UNL     1       2.492   3.609  21.165  0.00  0.00    +0.000 A 
ATOM      4  N   UNL     1       1.971   4.815  21.114  0.00  0.00    +0.000 NA
ATOM      5  C   UNL     1       2.581   5.378  20.000  0.00  0.00    +0.000 A 
ENDROOT
BRANCH   1   9
ATOM      6  C   UNL     1       6.647   4.720  16.698  0.00  0.00    +0.000 A 
ATOM      7  C   UNL     1       5.479   4.039  16.335  0.00  0.00    +0.000 A 
ATOM      8  C   UNL     1       4.408   3.953  17.225  0.00  0.00    +0.000 A 
ATOM      9  C   UNL     1       4.533   4.556  18.464  0.00  0.00    +0.000 A 
ATOM     10  N   UNL     1       5.639   5.226  18.846  0.00  0.00    +0.000 NA
ATOM     11  C   UNL     1       6.651   5.325  17.952  0.00  0.00    +0.000 A 
ATOM     12 CL   UNL     1       7.883   6.361  18.556  0.00  0.00    +0.000 Cl
BRANCH   6  14
ATOM     13  C   UNL     1       7.150   4.798  14.382  0.00  0.00    +0.000 C 
ATOM     14  O   UNL     1       7.610   4.739  15.728  0.00  0.00    +0.000 OA
ENDBRANCH   6  14
ENDBRANCH   1   9
BRANCH   5  15
ATOM     15  C   UNL     1       2.260   6.696  19.465  0.00  0.00    +0.000 C 
ATOM     16  O   UNL     1       2.368   6.975  18.272  0.00  0.00    +0.000 OA
ATOM     17  N   UNL     1       1.794   7.590  20.401  0.00  0.00    +0.000 N 
ATOM     18  H   UNL     1       1.705   7.269  21.359  0.00  0.00    +0.000 HD
BRANCH  17  19
ATOM     19  C   UNL     1       1.505   8.959  20.058  0.00  0.00    +0.000 C 
BRANCH  19  20
ATOM     20  C   UNL     1       0.766   9.667  21.159  0.00  0.00    +0.000 A 
ATOM     21  C   UNL     1       0.317  10.980  21.002  0.00  0.00    +0.000 A 
ATOM     22  C   UNL     1      -0.390  11.568  22.041  0.00  0.00    +0.000 A 
ATOM     23  N   UNL     1      -0.665  10.950  23.209  0.00  0.00    +0.000 NA
ATOM     24  C   UNL     1      -0.206   9.688  23.348  0.00  0.00    +0.000 A 
ATOM     25  C   UNL     1       0.508   9.015  22.369  0.00  0.00    +0.000 A 
ENDBRANCH  19  20
ENDBRANCH  17  19
ENDBRANCH   5  15
TORSDOF 5
ENDMDL
MODEL 2
REMARK VINA RESULT:      -8.0      2.246      3.020
REMARK  Name = 
REMARK  6 active torsions:
REMARK  status: ('A' for Active; 'I' for Inactive)
REMARK    1  A    between atoms: C_1  and  O_2
REMARK    2  A    between atoms: O_2  and  C_3
REMARK    3  A    between atoms: C_6  and  C_7
REMARK    4  A    between atoms: C_11  and  C_12
REMARK    5  A    between atoms: N_14  and  C_15
REMARK    6  A    between atoms: C_15  and  C_16
REMARK                            x       y       z     vdW  Elec       q    Type
REMARK                         _______ _______ _______ _____ _____    ______ ____
ROOT
ATOM      1  C   UNL     1       3.843   3.602  18.407  0.00  0.00    +0.000 A 
ATOM      2  O   UNL     1       3.834   2.438  17.688  0.00  0.00    +0.000 OA
ATOM      3  C   UNL     1       2.962   1.640  18.365  0.00  0.00    +0.000 A 
ATOM      4  N   UNL     1       2.422   2.175  19.438  0.00  0.00    +0.000 NA
ATOM      5  C   UNL     1       2.944   3.463  19.447  0.00  0.00    +0.000 A 
ENDROOT
BRANCH   1   9
ATOM      6  C   UNL     1       6.774   6.422  17.339  0.00  0.00    +0.000 A 
ATOM      7  C   UNL     1       5.588   6.378  16.598  0.00  0.00    +0.000 A 
ATOM      8  C   UNL     1       4.583   5.468  16.929  0.00  0.00    +0.000 A 
ATOM      9  C   UNL     1       4.793   4.620  18.002  0.00  0.00    +0.000 A 
ATOM     10  N   UNL     1       5.920   4.638  18.742  0.00  0.00    +0.000 NA
ATOM     11  C   UNL     1       6.864   5.553  18.423  0.00  0.00    +0.000 A 
ATOM     12 CL   UNL     1       8.130   5.537  19.586  0.00  0.00    +0.000 Cl
BRANCH   6  14
ATOM     13  C   UNL     1       7.772   8.540  17.716  0.00  0.00    +0.000 C 
ATOM     14  O   UNL     1       7.665   7.368  16.915  0.00  0.00    +0.000 OA
ENDBRANCH   6  14
ENDBRANCH   1   9
BRANCH   5  15
ATOM     15  C   UNL     1       2.567   4.495  20.406  0.00  0.00    +0.000 C 
ATOM     16  O   UNL     1       2.524   4.295  21.619  0.00  0.00    +0.000 OA
ATOM     17  N   UNL     1       2.299   5.721  19.843  0.00  0.00    +0.000 N 
ATOM     18  H   UNL     1       2.389   5.810  18.836  0.00  0.00    +0.000 HD
BRANCH  17  19
ATOM     19  C   UNL     1       1.836   6.831  20.636  0.00  0.00    +0.000 C 
BRANCH  19  20
ATOM     20  C   UNL     1       1.661   8.074  19.810  0.00  0.00    +0.000 A 
ATOM     21  C   UNL     1       0.945   9.172  20.296  0.00  0.00    +0.000 A 
ATOM     22  C   UNL     1       0.848  10.304  19.500  0.00  0.00    +0.000 A 
ATOM     23  N   UNL     1       1.396  10.411  18.271  0.00  0.00    +0.000 NA
ATOM     24  C   UNL     1       2.066   9.333  17.813  0.00  0.00    +0.000 A 
ATOM     25  C   UNL     1       2.221   8.158  18.531  0.00  0.00    +0.000 A 
ENDBRANCH  19  20
ENDBRANCH  17  19
ENDBRANCH   5  15
TORSDOF 5
ENDMDL
MODEL 3
REMARK VINA RESULT:      -7.9      2.375      3.098
REMARK  Name = 
REMARK  6 active torsions:
REMARK  status: ('A' for Active; 'I' for Inactive)
REMARK    1  A    between atoms: C_1  and  O_2
REMARK    2  A    between atoms: O_2  and  C_3
REMARK    3  A    between atoms: C_6  and  C_7
REMARK    4  A    between atoms: C_11  and  C_12
REMARK    5  A    between atoms: N_14  and  C_15
REMARK    6  A    between atoms: C_15  and  C_16
REMARK                            x       y       z     vdW  Elec       q    Type
REMARK                         _______ _______ _______ _____ _____    ______ ____
ROOT
ATOM      1  C   UNL     1       4.141   3.074  19.834  0.00  0.00    +0.000 A 
ATOM      2  O   UNL     1       4.811   1.962  20.270  0.00  0.00    +0.000 OA
ATOM      3  C   UNL     1       4.137   1.592  21.395  0.00  0.00    +0.000 A 
ATOM      4  N   UNL     1       3.116   2.355  21.718  0.00  0.00    +0.000 NA
ATOM      5  C   UNL     1       3.076   3.286  20.688  0.00  0.00    +0.000 A 
ENDROOT
BRANCH   1   9
ATOM      6  C   UNL     1       6.005   5.137  16.679  0.00  0.00    +0.000 A 
ATOM      7  C   UNL     1       4.835   4.417  16.408  0.00  0.00    +0.000 A 
ATOM      8  C   UNL     1       4.177   3.731  17.430  0.00  0.00    +0.000 A 
ATOM      9  C   UNL     1       4.710   3.785  18.706  0.00  0.00    +0.000 A 
ATOM     10  N   UNL     1       5.830   4.473  19.006  0.00  0.00    +0.000 NA
ATOM     11  C   UNL     1       6.430   5.158  18.004  0.00  0.00    +0.000 A 
ATOM     12 CL   UNL     1       7.724   6.108  18.622  0.00  0.00    +0.000 Cl
BRANCH   6  14
ATOM     13  C   UNL     1       6.838   4.952  14.467  0.00  0.00    +0.000 C 
ATOM     14  O   UNL     1       6.537   5.771  15.592  0.00  0.00    +0.000 OA
ENDBRANCH   6  14
ENDBRANCH   1   9
BRANCH   5  15
ATOM     15  C   UNL     1       2.045   4.307  20.542  0.00  0.00    +0.000 C 
ATOM     16  O   UNL     1       0.919   4.061  20.110  0.00  0.00    +0.000 OA
ATOM     17  N   UNL     1       2.425   5.561  20.961  0.00  0.00    +0.000 N 
ATOM     18  H   UNL     1       3.361   5.672  21.334  0.00  0.00    +0.000 HD
BRANCH  17  19
ATOM     19  C   UNL     1       1.557   6.701  20.814  0.00  0.00    +0.000 C 
BRANCH  19  20
ATOM     20  C   UNL     1       1.924   7.533  19.617  0.00  0.00    +0.000 A 
ATOM     21  C   UNL     1       2.810   7.057  18.648  0.00  0.00    +0.000 A 
ATOM     22  C   UNL     1       3.083   7.856  17.548  0.00  0.00    +0.000 A 
ATOM     23  N   UNL     1       2.550   9.082  17.357  0.00  0.00    +0.000 NA
ATOM     24  C   UNL     1       1.711   9.531  18.314  0.00  0.00    +0.000 A 
ATOM     25  C   UNL     1       1.374   8.808  19.448  0.00  0.00    +0.000 A 
ENDBRANCH  19  20
ENDBRANCH  17  19
ENDBRANCH   5  15
TORSDOF 5
ENDMDL
MODEL 4
REMARK VINA RESULT:      -7.9      0.506      1.082
REMARK  Name = 
REMARK  6 active torsions:
REMARK  status: ('A' for Active; 'I' for Inactive)
REMARK    1  A    between atoms: C_1  and  O_2
REMARK    2  A    between atoms: O_2  and  C_3
REMARK    3  A    between atoms: C_6  and  C_7
REMARK    4  A    between atoms: C_11  and  C_12
REMARK    5  A    between atoms: N_14  and  C_15
REMARK    6  A    between atoms: C_15  and  C_16
REMARK                            x       y       z     vdW  Elec       q    Type
REMARK                         _______ _______ _______ _____ _____    ______ ____
ROOT
ATOM      1  C   UNL     1       3.728   4.633  19.063  0.00  0.00    +0.000 A 
ATOM      2  O   UNL     1       3.739   3.445  19.743  0.00  0.00    +0.000 OA
ATOM      3  C   UNL     1       2.839   3.634  20.748  0.00  0.00    +0.000 A 
ATOM      4  N   UNL     1       2.265   4.817  20.778  0.00  0.00    +0.000 NA
ATOM      5  C   UNL     1       2.792   5.454  19.662  0.00  0.00    +0.000 A 
ENDROOT
BRANCH   1   9
ATOM      6  C   UNL     1       6.699   5.158  16.134  0.00  0.00    +0.000 A 
ATOM      7  C   UNL     1       5.631   4.298  15.855  0.00  0.00    +0.000 A 
ATOM      8  C   UNL     1       4.615   4.108  16.793  0.00  0.00    +0.000 A 
ATOM      9  C   UNL     1       4.696   4.789  17.995  0.00  0.00    +0.000 A 
ATOM     10  N   UNL     1       5.707   5.629  18.296  0.00  0.00    +0.000 NA
ATOM     11  C   UNL     1       6.660   5.824  17.355  0.00  0.00    +0.000 A 
ATOM     12 CL   UNL     1       7.750   7.057  17.855  0.00  0.00    +0.000 Cl
BRANCH   6  14
ATOM     13  C   UNL     1       7.186   4.827  13.836  0.00  0.00    +0.000 C 
ATOM     14  O   UNL     1       7.614   5.261  15.123  0.00  0.00    +0.000 OA
ENDBRANCH   6  14
ENDBRANCH   1   9
BRANCH   5  15
ATOM     15  C   UNL     1       2.388   6.778  19.204  0.00  0.00    +0.000 C 
ATOM     16  O   UNL     1       2.470   7.130  18.028  0.00  0.00    +0.000 OA
ATOM     17  N   UNL     1       1.875   7.588  20.190  0.00  0.00    +0.000 N 
ATOM     18  H   UNL     1       1.813   7.209  21.129  0.00  0.00    +0.000 HD
BRANCH  17  19
ATOM     19  C   UNL     1       1.501   8.954  19.928  0.00  0.00    +0.000 C 
BRANCH  19  20
ATOM     20  C   UNL     1       0.763   9.564  21.086  0.00  0.00    +0.000 A 
ATOM     21  C   UNL     1       0.646   8.893  22.305  0.00  0.00    +0.000 A 
ATOM     22  C   UNL     1      -0.016   9.523  23.348  0.00  0.00    +0.000 A 
ATOM     23  N   UNL     1      -0.570  10.751  23.257  0.00  0.00    +0.000 NA
ATOM     24  C   UNL     1      -0.462  11.375  22.065  0.00  0.00    +0.000 A 
ATOM     25  C   UNL     1       0.181  10.830  20.964  0.00  0.00    +0.000 A 
ENDBRANCH  19  20
ENDBRANCH  17  19
ENDBRANCH   5  15
TORSDOF 5
ENDMDL
MODEL 5
REMARK VINA RESULT:      -7.7      2.516      3.964
REMARK  Name = 
REMARK  6 active torsions:
REMARK  status: ('A' for Active; 'I' for Inactive)
REMARK    1  A    between atoms: C_1  and  O_2
REMARK    2  A    between atoms: O_2  and  C_3
REMARK    3  A    between atoms: C_6  and  C_7
REMARK    4  A    between atoms: C_11  and  C_12
REMARK    5  A    between atoms: N_14  and  C_15
REMARK    6  A    between atoms: C_15  and  C_16
REMARK                            x       y       z     vdW  Elec       q    Type
REMARK                         _______ _______ _______ _____ _____    ______ ____
ROOT
ATOM      1  C   UNL     1       6.902   4.852  17.555  0.00  0.00    +0.000 A 
ATOM      2  O   UNL     1       8.217   4.917  17.930  0.00  0.00    +0.000 OA
ATOM      3  C   UNL     1       8.169   5.343  19.223  0.00  0.00    +0.000 A 
ATOM      4  N   UNL     1       6.963   5.558  19.703  0.00  0.00    +0.000 NA
ATOM      5  C   UNL     1       6.133   5.193  18.651  0.00  0.00    +0.000 A 
ENDROOT
BRANCH   1   9
ATOM      6  C   UNL     1       6.343   4.019  13.472  0.00  0.00    +0.000 A 
ATOM      7  C   UNL     1       5.450   3.463  14.395  0.00  0.00    +0.000 A 
ATOM      8  C   UNL     1       5.591   3.727  15.758  0.00  0.00    +0.000 A 
ATOM      9  C   UNL     1       6.629   4.548  16.164  0.00  0.00    +0.000 A 
ATOM     10  N   UNL     1       7.503   5.105  15.303  0.00  0.00    +0.000 NA
ATOM     11  C   UNL     1       7.324   4.862  13.984  0.00  0.00    +0.000 A 
ATOM     12 CL   UNL     1       8.420   5.801  13.049  0.00  0.00    +0.000 Cl
BRANCH   6  14
ATOM     13  C   UNL     1       4.735   3.337  11.867  0.00  0.00    +0.000 C 
ATOM     14  O   UNL     1       6.081   3.690  12.171  0.00  0.00    +0.000 OA
ENDBRANCH   6  14
ENDBRANCH   1   9
BRANCH   5  15
ATOM     15  C   UNL     1       4.677   5.165  18.724  0.00  0.00    +0.000 C 
ATOM     16  O   UNL     1       4.057   4.287  19.322  0.00  0.00    +0.000 OA
ATOM     17  N   UNL     1       4.057   6.221  18.098  0.00  0.00    +0.000 N 
ATOM     18  H   UNL     1       4.643   6.919  17.654  0.00  0.00    +0.000 HD
BRANCH  17  19
ATOM     19  C   UNL     1       2.622   6.307  18.006  0.00  0.00    +0.000 C 
BRANCH  19  20
ATOM     20  C   UNL     1       2.094   7.559  18.649  0.00  0.00    +0.000 A 
ATOM     21  C   UNL     1       1.814   8.699  17.893  0.00  0.00    +0.000 A 
ATOM     22  C   UNL     1       1.296   9.812  18.538  0.00  0.00    +0.000 A 
ATOM     23  N   UNL     1       1.053   9.869  19.865  0.00  0.00    +0.000 NA
ATOM     24  C   UNL     1       1.348   8.763  20.580  0.00  0.00    +0.000 A 
ATOM     25  C   UNL     1       1.867   7.602  20.028  0.00  0.00    +0.000 A 
ENDBRANCH  19  20
ENDBRANCH  17  19
ENDBRANCH   5  15
TORSDOF 5
ENDMDL
MODEL 6
REMARK VINA RESULT:      -7.7      3.712      5.174
REMARK  Name = 
REMARK  6 active torsions:
REMARK  status: ('A' for Active; 'I' for Inactive)
REMARK    1  A    between atoms: C_1  and  O_2
REMARK    2  A    between atoms: O_2  and  C_3
REMARK    3  A    between atoms: C_6  and  C_7
REMARK    4  A    between atoms: C_11  and  C_12
REMARK    5  A    between atoms: N_14  and  C_15
REMARK    6  A    between atoms: C_15  and  C_16
REMARK                            x       y       z     vdW  Elec       q    Type
REMARK                         _______ _______ _______ _____ _____    ______ ____
ROOT
ATOM      1  C   UNL     1       7.010   4.976  17.490  0.00  0.00    +0.000 A 
ATOM      2  O   UNL     1       8.287   4.766  17.938  0.00  0.00    +0.000 OA
ATOM      3  C   UNL     1       8.288   5.301  19.190  0.00  0.00    +0.000 A 
ATOM      4  N   UNL     1       7.149   5.831  19.580  0.00  0.00    +0.000 NA
ATOM      5  C   UNL     1       6.300   5.581  18.509  0.00  0.00    +0.000 A 
ENDROOT
BRANCH   1   9
ATOM      6  C   UNL     1       6.426   4.014  13.439  0.00  0.00    +0.000 A 
ATOM      7  C   UNL     1       5.568   3.450  14.390  0.00  0.00    +0.000 A 
ATOM      8  C   UNL     1       5.717   3.756  15.743  0.00  0.00    +0.000 A 
ATOM      9  C   UNL     1       6.729   4.625  16.112  0.00  0.00    +0.000 A 
ATOM     10  N   UNL     1       7.570   5.191  15.224  0.00  0.00    +0.000 NA
ATOM     11  C   UNL     1       7.382   4.906  13.914  0.00  0.00    +0.000 A 
ATOM     12 CL   UNL     1       8.429   5.860  12.939  0.00  0.00    +0.000 Cl
BRANCH   6  14
ATOM     13  C   UNL     1       4.820   3.244  11.873  0.00  0.00    +0.000 C 
ATOM     14  O   UNL     1       6.159   3.640  12.151  0.00  0.00    +0.000 OA
ENDBRANCH   6  14
ENDBRANCH   1   9
BRANCH   5  15
ATOM     15  C   UNL     1       4.877   5.899  18.498  0.00  0.00    +0.000 C 
ATOM     16  O   UNL     1       4.317   6.412  17.530  0.00  0.00    +0.000 OA
ATOM     17  N   UNL     1       4.207   5.544  19.646  0.00  0.00    +0.000 N 
ATOM     18  H   UNL     1       4.738   5.096  20.384  0.00  0.00    +0.000 HD
BRANCH  17  19
ATOM     19  C   UNL     1       2.813   5.857  19.834  0.00  0.00    +0.000 C 
BRANCH  19  20
ATOM     20  C   UNL     1       1.937   4.655  19.624  0.00  0.00    +0.000 A 
ATOM     21  C   UNL     1       1.702   4.142  18.346  0.00  0.00    +0.000 A 
ATOM     22  C   UNL     1       0.912   3.009  18.220  0.00  0.00    +0.000 A 
ATOM     23  N   UNL     1       0.341   2.369  19.263  0.00  0.00    +0.000 NA
ATOM     24  C   UNL     1       0.564   2.891  20.488  0.00  0.00    +0.000 A 
ATOM     25  C   UNL     1       1.339   4.018  20.717  0.00  0.00    +0.000 A 
ENDBRANCH  19  20
ENDBRANCH  17  19
ENDBRANCH   5  15
TORSDOF 5
ENDMDL
MODEL 7
REMARK VINA RESULT:      -7.6      1.315      1.538
REMARK  Name = 
REMARK  6 active torsions:
REMARK  status: ('A' for Active; 'I' for Inactive)
REMARK    1  A    between atoms: C_1  and  O_2
REMARK    2  A    between atoms: O_2  and  C_3
REMARK    3  A    between atoms: C_6  and  C_7
REMARK    4  A    between atoms: C_11  and  C_12
REMARK    5  A    between atoms: N_14  and  C_15
REMARK    6  A    between atoms: C_15  and  C_16
REMARK                            x       y       z     vdW  Elec       q    Type
REMARK                         _______ _______ _______ _____ _____    ______ ____
ROOT
ATOM      1  C   UNL     1       4.392   3.885  18.677  0.00  0.00    +0.000 A 
ATOM      2  O   UNL     1       4.821   2.828  19.433  0.00  0.00    +0.000 OA
ATOM      3  C   UNL     1       3.913   2.757  20.445  0.00  0.00    +0.000 A 
ATOM      4  N   UNL     1       2.958   3.661  20.412  0.00  0.00    +0.000 NA
ATOM      5  C   UNL     1       3.227   4.364  19.244  0.00  0.00    +0.000 A 
ENDROOT
BRANCH   1   9
ATOM      6  C   UNL     1       7.011   5.184  15.654  0.00  0.00    +0.000 A 
ATOM      7  C   UNL     1       6.157   4.109  15.382  0.00  0.00    +0.000 A 
ATOM      8  C   UNL     1       5.261   3.657  16.352  0.00  0.00    +0.000 A 
ATOM      9  C   UNL     1       5.244   4.298  17.578  0.00  0.00    +0.000 A 
ATOM     10  N   UNL     1       6.047   5.339  17.874  0.00  0.00    +0.000 NA
ATOM     11  C   UNL     1       6.881   5.781  16.904  0.00  0.00    +0.000 A 
ATOM     12 CL   UNL     1       7.681   7.216  17.412  0.00  0.00    +0.000 Cl
BRANCH   6  14
ATOM     13  C   UNL     1       7.518   4.950  13.349  0.00  0.00    +0.000 C 
ATOM     14  O   UNL     1       7.825   5.531  14.612  0.00  0.00    +0.000 OA
ENDBRANCH   6  14
ENDBRANCH   1   9
BRANCH   5  15
ATOM     15  C   UNL     1       2.381   5.426  18.710  0.00  0.00    +0.000 C 
ATOM     16  O   UNL     1       1.507   5.222  17.869  0.00  0.00    +0.000 OA
ATOM     17  N   UNL     1       2.620   6.667  19.252  0.00  0.00    +0.000 N 
ATOM     18  H   UNL     1       3.338   6.743  19.964  0.00  0.00    +0.000 HD
BRANCH  17  19
ATOM     19  C   UNL     1       1.930   7.841  18.782  0.00  0.00    +0.000 C 
BRANCH  19  20
ATOM     20  C   UNL     1       1.472   8.713  19.918  0.00  0.00    +0.000 A 
ATOM     21  C   UNL     1       1.045  10.024  19.698  0.00  0.00    +0.000 A 
ATOM     22  C   UNL     1       0.601  10.768  20.781  0.00  0.00    +0.000 A 
ATOM     23  N   UNL     1       0.566  10.305  22.049  0.00  0.00    +0.000 NA
ATOM     24  C   UNL     1       1.001   9.042  22.243  0.00  0.00    +0.000 A 
ATOM     25  C   UNL     1       1.461   8.220  21.226  0.00  0.00    +0.000 A 
ENDBRANCH  19  20
ENDBRANCH  17  19
ENDBRANCH   5  15
TORSDOF 5
ENDMDL
MODEL 8
REMARK VINA RESULT:      -7.6      2.395      3.171
REMARK  Name = 
REMARK  6 active torsions:
REMARK  status: ('A' for Active; 'I' for Inactive)
REMARK    1  A    between atoms: C_1  and  O_2
REMARK    2  A    between atoms: O_2  and  C_3
REMARK    3  A    between atoms: C_6  and  C_7
REMARK    4  A    between atoms: C_11  and  C_12
REMARK    5  A    between atoms: N_14  and  C_15
REMARK    6  A    between atoms: C_15  and  C_16
REMARK                            x       y       z     vdW  Elec       q    Type
REMARK                         _______ _______ _______ _____ _____    ______ ____
ROOT
ATOM      1  C   UNL     1       3.500   3.387  18.529  0.00  0.00    +0.000 A 
ATOM      2  O   UNL     1       3.319   2.231  17.819  0.00  0.00    +0.000 OA
ATOM      3  C   UNL     1       2.316   1.591  18.481  0.00  0.00    +0.000 A 
ATOM      4  N   UNL     1       1.847   2.217  19.538  0.00  0.00    +0.000 NA
ATOM      5  C   UNL     1       2.568   3.405  19.550  0.00  0.00    +0.000 A 
ENDROOT
BRANCH   1   9
ATOM      6  C   UNL     1       6.595   5.897  17.188  0.00  0.00    +0.000 A 
ATOM      7  C   UNL     1       6.483   5.650  18.562  0.00  0.00    +0.000 A 
ATOM      8  C   UNL     1       5.479   4.810  19.047  0.00  0.00    +0.000 A 
ATOM      9  C   UNL     1       4.609   4.235  18.138  0.00  0.00    +0.000 A 
ATOM     10  N   UNL     1       4.690   4.445  16.809  0.00  0.00    +0.000 NA
ATOM     11  C   UNL     1       5.694   5.235  16.360  0.00  0.00    +0.000 A 
ATOM     12 CL   UNL     1       5.736   5.230  14.641  0.00  0.00    +0.000 Cl
BRANCH   6  14
ATOM     13  C   UNL     1       7.719   7.950  17.571  0.00  0.00    +0.000 C 
ATOM     14  O   UNL     1       7.629   6.725  16.851  0.00  0.00    +0.000 OA
ENDBRANCH   6  14
ENDBRANCH   1   9
BRANCH   5  15
ATOM     15  C   UNL     1       2.342   4.495  20.492  0.00  0.00    +0.000 C 
ATOM     16  O   UNL     1       2.391   4.342  21.711  0.00  0.00    +0.000 OA
ATOM     17  N   UNL     1       2.105   5.715  19.902  0.00  0.00    +0.000 N 
ATOM     18  H   UNL     1       2.114   5.760  18.889  0.00  0.00    +0.000 HD
BRANCH  17  19
ATOM     19  C   UNL     1       1.784   6.881  20.683  0.00  0.00    +0.000 C 
BRANCH  19  20
ATOM     20  C   UNL     1       1.643   8.107  19.826  0.00  0.00    +0.000 A 
ATOM     21  C   UNL     1       0.946   9.231  20.277  0.00  0.00    +0.000 A 
ATOM     22  C   UNL     1       0.879  10.345  19.454  0.00  0.00    +0.000 A 
ATOM     23  N   UNL     1       1.442  10.411  18.228  0.00  0.00    +0.000 NA
ATOM     24  C   UNL     1       2.094   9.308  17.803  0.00  0.00    +0.000 A 
ATOM     25  C   UNL     1       2.217   8.148  18.551  0.00  0.00    +0.000 A 
ENDBRANCH  19  20
ENDBRANCH  17  19
ENDBRANCH   5  15
TORSDOF 5
ENDMDL
MODEL 9
REMARK VINA RESULT:      -7.6      2.486      4.072
REMARK  Name = 
REMARK  6 active torsions:
REMARK  status: ('A' for Active; 'I' for Inactive)
REMARK    1  A    between atoms: C_1  and  O_2
REMARK    2  A    between atoms: O_2  and  C_3
REMARK    3  A    between atoms: C_6  and  C_7
REMARK    4  A    between atoms: C_11  and  C_12
REMARK    5  A    between atoms: N_14  and  C_15
REMARK    6  A    between atoms: C_15  and  C_16
REMARK                            x       y       z     vdW  Elec       q    Type
REMARK                         _______ _______ _______ _____ _____    ______ ____
ROOT
ATOM      1  C   UNL     1       6.894   4.838  17.505  0.00  0.00    +0.000 A 
ATOM      2  O   UNL     1       8.200   4.978  17.889  0.00  0.00    +0.000 OA
ATOM      3  C   UNL     1       8.121   5.359  19.194  0.00  0.00    +0.000 A 
ATOM      4  N   UNL     1       6.902   5.478  19.674  0.00  0.00    +0.000 NA
ATOM      5  C   UNL     1       6.101   5.093  18.607  0.00  0.00    +0.000 A 
ENDROOT
BRANCH   1   9
ATOM      6  C   UNL     1       6.407   4.082  13.397  0.00  0.00    +0.000 A 
ATOM      7  C   UNL     1       5.494   3.514  14.294  0.00  0.00    +0.000 A 
ATOM      8  C   UNL     1       5.611   3.753  15.664  0.00  0.00    +0.000 A 
ATOM      9  C   UNL     1       6.645   4.560  16.104  0.00  0.00    +0.000 A 
ATOM     10  N   UNL     1       7.539   5.128  15.269  0.00  0.00    +0.000 NA
ATOM     11  C   UNL     1       7.383   4.910  13.943  0.00  0.00    +0.000 A 
ATOM     12 CL   UNL     1       8.501   5.860  13.046  0.00  0.00    +0.000 Cl
BRANCH   6  14
ATOM     13  C   UNL     1       5.020   2.978  11.822  0.00  0.00    +0.000 C 
ATOM     14  O   UNL     1       6.168   3.778  12.086  0.00  0.00    +0.000 OA
ENDBRANCH   6  14
ENDBRANCH   1   9
BRANCH   5  15
ATOM     15  C   UNL     1       4.649   4.967  18.672  0.00  0.00    +0.000 C 
ATOM     16  O   UNL     1       4.079   3.882  18.775  0.00  0.00    +0.000 OA
ATOM     17  N   UNL     1       3.974   6.165  18.645  0.00  0.00    +0.000 N 
ATOM     18  H   UNL     1       4.522   7.017  18.590  0.00  0.00    +0.000 HD
BRANCH  17  19
ATOM     19  C   UNL     1       2.535   6.220  18.621  0.00  0.00    +0.000 C 
BRANCH  19  20
ATOM     20  C   UNL     1       2.024   7.610  18.877  0.00  0.00    +0.000 A 
ATOM     21  C   UNL     1       1.616   8.008  20.153  0.00  0.00    +0.000 A 
ATOM     22  C   UNL     1       1.187   9.315  20.334  0.00  0.00    +0.000 A 
ATOM     23  N   UNL     1       1.127  10.233  19.345  0.00  0.00    +0.000 NA
ATOM     24  C   UNL     1       1.507   9.822  18.116  0.00  0.00    +0.000 A 
ATOM     25  C   UNL     1       1.952   8.540  17.835  0.00  0.00    +0.000 A 
ENDBRANCH  19  20
ENDBRANCH  17  19
ENDBRANCH   5  15
TORSDOF 5
ENDMDL
