MODEL 1
REMARK VINA RESULT:      -8.6      0.000      0.000
REMARK  Name = 
REMARK  14 active torsions:
REMARK  status: ('A' for Active; 'I' for Inactive)
REMARK    1  A    between atoms: C_1  and  C_2
REMARK    2  A    between atoms: C_2  and  C_3
REMARK    3  A    between atoms: C_3  and  C_4
REMARK    4  A    between atoms: C_4  and  N_5
REMARK    5  A    between atoms: C_6  and  O_8
REMARK    6  A    between atoms: O_8  and  C_9
REMARK    7  A    between atoms: C_13  and  C_14
REMARK    8  A    between atoms: C_14  and  N_15
REMARK    9  A    between atoms: N_15  and  C_16
REMARK   10  A    between atoms: N_15  and  C_17
REMARK   11  A    between atoms: C_17  and  C_18
REMARK   12  A    between atoms: C_18  and  C_19
REMARK   13  A    between atoms: C_19  and  O_20
REMARK   14  A    between atoms: O_20  and  C_21
REMARK                            x       y       z     vdW  Elec       q    Type
REMARK                         _______ _______ _______ _____ _____    ______ ____
ROOT
ATOM      1  C   UNL     1       1.870   2.868  19.647  0.00  0.00    +0.000 C 
ENDROOT
BRANCH   1   2
ATOM      2  N   UNL     1       2.370   3.616  18.483  0.00  0.00    +0.000 NA
ATOM      3  C   UNL     1       1.295   3.737  17.488  0.00  0.00    +0.000 C 
BRANCH   2   4
ATOM      4  C   UNL     1       3.574   2.986  17.900  0.00  0.00    +0.000 C 
BRANCH   4   9
ATOM      5  C   UNL     1       5.863   5.381  16.032  0.00  0.00    +0.000 A 
ATOM      6  C   UNL     1       6.803   5.709  17.008  0.00  0.00    +0.000 A 
ATOM      7  C   UNL     1       6.661   5.202  18.301  0.00  0.00    +0.000 A 
ATOM      8  C   UNL     1       5.600   4.340  18.599  0.00  0.00    +0.000 A 
ATOM      9  C   UNL     1       4.673   3.985  17.610  0.00  0.00    +0.000 A 
ATOM     10  C   UNL     1       4.798   4.537  16.324  0.00  0.00    +0.000 A 
BRANCH   5  11
ATOM     11  O   UNL     1       6.121   5.789  14.713  0.00  0.00    +0.000 OA
BRANCH  11  13
ATOM     12  N   UNL     1       6.578   3.971  13.382  0.00  0.00    +0.000 N 
ATOM     13  C   UNL     1       7.081   5.092  13.994  0.00  0.00    +0.000 C 
ATOM     14  O   UNL     1       8.266   5.382  13.887  0.00  0.00    +0.000 OA
ATOM     15  H   UNL     1       7.294   3.461  12.883  0.00  0.00    +0.000 HD
BRANCH  12  16
ATOM     16  C   UNL     1       5.226   3.888  12.866  0.00  0.00    +0.000 C 
BRANCH  16  17
ATOM     17  C   UNL     1       5.146   2.974  11.642  0.00  0.00    +0.000 C 
BRANCH  17  19
ATOM     18  C   UNL     1       3.410   3.983  10.147  0.00  0.00    +0.000 C 
ATOM     19  C   UNL     1       3.724   2.839  11.094  0.00  0.00    +0.000 C 
ENDBRANCH  17  19
ENDBRANCH  16  17
ENDBRANCH  12  16
ENDBRANCH  11  13
ENDBRANCH   5  11
ENDBRANCH   4   9
ENDBRANCH   2   4
ENDBRANCH   1   2
BRANCH   1  20
ATOM     20  C   UNL     1       1.329   3.738  20.780  0.00  0.00    +0.000 C 
BRANCH  20  21
ATOM     21  C   UNL     1       2.323   4.795  21.252  0.00  0.00    +0.000 C 
BRANCH  21  22
ATOM     22  O   UNL     1       2.629   5.601  20.114  0.00  0.00    +0.000 OA
BRANCH  22  23
ATOM     23  C   UNL     1       2.116   6.865  20.083  0.00  0.00    +0.000 A 
ATOM     24  C   UNL     1       2.305   7.521  18.861  0.00  0.00    +0.000 A 
ATOM     25  C   UNL     1       1.765   8.784  18.646  0.00  0.00    +0.000 A 
ATOM     26  C   UNL     1       1.056   9.399  19.674  0.00  0.00    +0.000 A 
ATOM     27  C   UNL     1       0.268  10.607  19.414  0.00  0.00    +0.000 A 
ATOM     28  O   UNL     1       0.298  11.183  18.336  0.00  0.00    +0.000 OA
ATOM     29  C   UNL     1      -0.602  11.059  20.505  0.00  0.00    +0.000 A 
ATOM     30  C   UNL     1      -1.636  11.967  20.274  0.00  0.00    +0.000 A 
ATOM     31  C   UNL     1      -2.391  12.434  21.347  0.00  0.00    +0.000 A 
ATOM     32  C   UNL     1      -2.060  12.048  22.648  0.00  0.00    +0.000 A 
ATOM     33  C   UNL     1      -1.040  11.125  22.864  0.00  0.00    +0.000 A 
ATOM     34  C   UNL     1      -0.360  10.562  21.783  0.00  0.00    +0.000 A 
ATOM     35  O   UNL     1       0.455   9.482  22.027  0.00  0.00    +0.000 OA
ATOM     36  C   UNL     1       0.978   8.818  20.938  0.00  0.00    +0.000 A 
ATOM     37  C   UNL     1       1.473   7.525  21.134  0.00  0.00    +0.000 A 
ENDBRANCH  22  23
ENDBRANCH  21  22
ENDBRANCH  20  21
ENDBRANCH   1  20
TORSDOF 12
ENDMDL
MODEL 2
REMARK VINA RESULT:      -8.5      1.310      2.126
REMARK  Name = 
REMARK  14 active torsions:
REMARK  status: ('A' for Active; 'I' for Inactive)
REMARK    1  A    between atoms: C_1  and  C_2
REMARK    2  A    between atoms: C_2  and  C_3
REMARK    3  A    between atoms: C_3  and  C_4
REMARK    4  A    between atoms: C_4  and  N_5
REMARK    5  A    between atoms: C_6  and  O_8
REMARK    6  A    between atoms: O_8  and  C_9
REMARK    7  A    between atoms: C_13  and  C_14
REMARK    8  A    between atoms: C_14  and  N_15
REMARK    9  A    between atoms: N_15  and  C_16
REMARK   10  A    between atoms: N_15  and  C_17
REMARK   11  A    between atoms: C_17  and  C_18
REMARK   12  A    between atoms: C_18  and  C_19
REMARK   13  A    between atoms: C_19  and  O_20
REMARK   14  A    between atoms: O_20  and  C_21
REMARK                            x       y       z     vdW  Elec       q    Type
REMARK                         _______ _______ _______ _____ _____    ______ ____
ROOT
ATOM      1  C   UNL     1       2.699   3.194  20.192  0.00  0.00    +0.000 C 
ENDROOT
BRANCH   1   2
ATOM      2  N   UNL     1       3.098   3.110  18.779  0.00  0.00    +0.000 NA
ATOM      3  C   UNL     1       2.369   2.008  18.135  0.00  0.00    +0.000 C 
BRANCH   2   4
ATOM      4  C   UNL     1       4.561   2.947  18.629  0.00  0.00    +0.000 C 
BRANCH   4   9
ATOM      5  C   UNL     1       5.805   5.463  16.062  0.00  0.00    +0.000 A 
ATOM      6  C   UNL     1       6.583   6.317  16.842  0.00  0.00    +0.000 A 
ATOM      7  C   UNL     1       6.656   6.116  18.222  0.00  0.00    +0.000 A 
ATOM      8  C   UNL     1       5.980   5.040  18.807  0.00  0.00    +0.000 A 
ATOM      9  C   UNL     1       5.224   4.163  18.018  0.00  0.00    +0.000 A 
ATOM     10  C   UNL     1       5.118   4.399  16.638  0.00  0.00    +0.000 A 
BRANCH   5  11
ATOM     11  O   UNL     1       5.876   5.607  14.666  0.00  0.00    +0.000 OA
BRANCH  11  13
ATOM     12  N   UNL     1       6.573   3.712  13.568  0.00  0.00    +0.000 N 
ATOM     13  C   UNL     1       6.912   4.969  14.000  0.00  0.00    +0.000 C 
ATOM     14  O   UNL     1       8.033   5.418  13.796  0.00  0.00    +0.000 OA
ATOM     15  H   UNL     1       7.345   3.252  13.105  0.00  0.00    +0.000 HD
BRANCH  12  16
ATOM     16  C   UNL     1       5.236   3.355  13.135  0.00  0.00    +0.000 C 
BRANCH  16  17
ATOM     17  C   UNL     1       4.983   3.773  11.685  0.00  0.00    +0.000 C 
BRANCH  17  19
ATOM     18  C   UNL     1       3.248   3.956   9.889  0.00  0.00    +0.000 C 
ATOM     19  C   UNL     1       3.697   3.175  11.111  0.00  0.00    +0.000 C 
ENDBRANCH  17  19
ENDBRANCH  16  17
ENDBRANCH  12  16
ENDBRANCH  11  13
ENDBRANCH   5  11
ENDBRANCH   4   9
ENDBRANCH   2   4
ENDBRANCH   1   2
BRANCH   1  20
ATOM     20  C   UNL     1       2.474   4.614  20.708  0.00  0.00    +0.000 C 
BRANCH  20  21
ATOM     21  C   UNL     1       1.871   5.544  19.659  0.00  0.00    +0.000 C 
BRANCH  21  22
ATOM     22  O   UNL     1       2.551   6.793  19.785  0.00  0.00    +0.000 OA
BRANCH  22  23
ATOM     23  C   UNL     1       1.807   7.881  20.137  0.00  0.00    +0.000 A 
ATOM     24  C   UNL     1       1.300   7.821  21.440  0.00  0.00    +0.000 A 
ATOM     25  C   UNL     1       0.592   8.893  21.973  0.00  0.00    +0.000 A 
ATOM     26  C   UNL     1       0.372  10.017  21.182  0.00  0.00    +0.000 A 
ATOM     27  C   UNL     1      -0.146  11.252  21.775  0.00  0.00    +0.000 A 
ATOM     28  O   UNL     1      -0.514  11.310  22.940  0.00  0.00    +0.000 OA
ATOM     29  C   UNL     1      -0.149  12.435  20.907  0.00  0.00    +0.000 A 
ATOM     30  C   UNL     1      -0.287  13.718  21.436  0.00  0.00    +0.000 A 
ATOM     31  C   UNL     1      -0.365  14.811  20.576  0.00  0.00    +0.000 A 
ATOM     32  C   UNL     1      -0.380  14.605  19.195  0.00  0.00    +0.000 A 
ATOM     33  C   UNL     1      -0.221  13.322  18.678  0.00  0.00    +0.000 A 
ATOM     34  C   UNL     1      -0.021  12.238  19.535  0.00  0.00    +0.000 A 
ATOM     35  O   UNL     1       0.379  11.045  18.981  0.00  0.00    +0.000 OA
ATOM     36  C   UNL     1       0.750  10.035  19.841  0.00  0.00    +0.000 A 
ATOM     37  C   UNL     1       1.510   8.980  19.325  0.00  0.00    +0.000 A 
ENDBRANCH  22  23
ENDBRANCH  21  22
ENDBRANCH  20  21
ENDBRANCH   1  20
TORSDOF 12
ENDMDL
MODEL 3
REMARK VINA RESULT:      -8.3      2.857      8.509
REMARK  Name = 
REMARK  14 active torsions:
REMARK  status: ('A' for Active; 'I' for Inactive)
REMARK    1  A    between atoms: C_1  and  C_2
REMARK    2  A    between atoms: C_2  and  C_3
REMARK    3  A    between atoms: C_3  and  C_4
REMARK    4  A    between atoms: C_4  and  N_5
REMARK    5  A    between atoms: C_6  and  O_8
REMARK    6  A    between atoms: O_8  and  C_9
REMARK    7  A    between atoms: C_13  and  C_14
REMARK    8  A    between atoms: C_14  and  N_15
REMARK    9  A    between atoms: N_15  and  C_16
REMARK   10  A    between atoms: N_15  and  C_17
REMARK   11  A    between atoms: C_17  and  C_18
REMARK   12  A    between atoms: C_18  and  C_19
REMARK   13  A    between atoms: C_19  and  O_20
REMARK   14  A    between atoms: O_20  and  C_21
REMARK                            x       y       z     vdW  Elec       q    Type
REMARK                         _______ _______ _______ _____ _____    ______ ____
ROOT
ATOM      1  C   UNL     1       0.712   3.959  20.400  0.00  0.00    +0.000 C 
ENDROOT
BRANCH   1   2
ATOM      2  N   UNL     1       1.891   4.808  20.633  0.00  0.00    +0.000 NA
ATOM      3  C   UNL     1       2.742   4.184  21.655  0.00  0.00    +0.000 C 
BRANCH   2   4
ATOM      4  C   UNL     1       1.509   6.185  21.018  0.00  0.00    +0.000 C 
BRANCH   4   9
ATOM      5  C   UNL     1       1.448   9.390  18.972  0.00  0.00    +0.000 A 
ATOM      6  C   UNL     1       2.182   9.031  17.843  0.00  0.00    +0.000 A 
ATOM      7  C   UNL     1       2.757   7.762  17.769  0.00  0.00    +0.000 A 
ATOM      8  C   UNL     1       2.563   6.846  18.809  0.00  0.00    +0.000 A 
ATOM      9  C   UNL     1       1.798   7.196  19.930  0.00  0.00    +0.000 A 
ATOM     10  C   UNL     1       1.262   8.491  20.017  0.00  0.00    +0.000 A 
BRANCH   5  11
ATOM     11  O   UNL     1       0.764  10.617  18.944  0.00  0.00    +0.000 OA
BRANCH  11  13
ATOM     12  N   UNL     1       1.498  12.318  20.306  0.00  0.00    +0.000 N 
ATOM     13  C   UNL     1       0.597  11.295  20.143  0.00  0.00    +0.000 C 
ATOM     14  O   UNL     1      -0.234  11.052  21.009  0.00  0.00    +0.000 OA
ATOM     15  H   UNL     1       1.379  12.786  21.193  0.00  0.00    +0.000 HD
BRANCH  12  16
ATOM     16  C   UNL     1       2.008  13.109  19.204  0.00  0.00    +0.000 C 
BRANCH  16  17
ATOM     17  C   UNL     1       1.525  14.559  19.282  0.00  0.00    +0.000 C 
BRANCH  17  19
ATOM     18  C   UNL     1      -0.238  16.222  18.652  0.00  0.00    +0.000 C 
ATOM     19  C   UNL     1       0.118  14.748  18.710  0.00  0.00    +0.000 C 
ENDBRANCH  17  19
ENDBRANCH  16  17
ENDBRANCH  12  16
ENDBRANCH  11  13
ENDBRANCH   5  11
ENDBRANCH   4   9
ENDBRANCH   2   4
ENDBRANCH   1   2
BRANCH   1  20
ATOM     20  C   UNL     1       1.026   2.480  20.182  0.00  0.00    +0.000 C 
BRANCH  20  21
ATOM     21  C   UNL     1       1.439   2.159  18.749  0.00  0.00    +0.000 C 
BRANCH  21  22
ATOM     22  O   UNL     1       2.839   1.883  18.781  0.00  0.00    +0.000 OA
BRANCH  22  23
ATOM     23  C   UNL     1       3.678   2.825  18.263  0.00  0.00    +0.000 A 
ATOM     24  C   UNL     1       3.361   3.204  16.953  0.00  0.00    +0.000 A 
ATOM     25  C   UNL     1       4.073   4.215  16.318  0.00  0.00    +0.000 A 
ATOM     26  C   UNL     1       5.124   4.828  16.994  0.00  0.00    +0.000 A 
ATOM     27  C   UNL     1       5.734   6.051  16.466  0.00  0.00    +0.000 A 
ATOM     28  O   UNL     1       5.436   6.506  15.371  0.00  0.00    +0.000 OA
ATOM     29  C   UNL     1       6.689   6.731  17.348  0.00  0.00    +0.000 A 
ATOM     30  C   UNL     1       7.069   8.053  17.117  0.00  0.00    +0.000 A 
ATOM     31  C   UNL     1       8.036   8.641  17.929  0.00  0.00    +0.000 A 
ATOM     32  C   UNL     1       8.669   7.880  18.915  0.00  0.00    +0.000 A 
ATOM     33  C   UNL     1       8.266   6.568  19.151  0.00  0.00    +0.000 A 
ATOM     34  C   UNL     1       7.213   6.014  18.420  0.00  0.00    +0.000 A 
ATOM     35  O   UNL     1       6.689   4.819  18.853  0.00  0.00    +0.000 OA
ATOM     36  C   UNL     1       5.538   4.369  18.243  0.00  0.00    +0.000 A 
ATOM     37  C   UNL     1       4.786   3.391  18.901  0.00  0.00    +0.000 A 
ENDBRANCH  22  23
ENDBRANCH  21  22
ENDBRANCH  20  21
ENDBRANCH   1  20
TORSDOF 12
ENDMDL
MODEL 4
REMARK VINA RESULT:      -8.2      2.692      4.591
REMARK  Name = 
REMARK  14 active torsions:
REMARK  status: ('A' for Active; 'I' for Inactive)
REMARK    1  A    between atoms: C_1  and  C_2
REMARK    2  A    between atoms: C_2  and  C_3
REMARK    3  A    between atoms: C_3  and  C_4
REMARK    4  A    between atoms: C_4  and  N_5
REMARK    5  A    between atoms: C_6  and  O_8
REMARK    6  A    between atoms: O_8  and  C_9
REMARK    7  A    between atoms: C_13  and  C_14
REMARK    8  A    between atoms: C_14  and  N_15
REMARK    9  A    between atoms: N_15  and  C_16
REMARK   10  A    between atoms: N_15  and  C_17
REMARK   11  A    between atoms: C_17  and  C_18
REMARK   12  A    between atoms: C_18  and  C_19
REMARK   13  A    between atoms: C_19  and  O_20
REMARK   14  A    between atoms: O_20  and  C_21
REMARK                            x       y       z     vdW  Elec       q    Type
REMARK                         _______ _______ _______ _____ _____    ______ ____
ROOT
ATOM      1  C   UNL     1       2.882   2.636  19.517  0.00  0.00    +0.000 C 
ENDROOT
BRANCH   1   2
ATOM      2  N   UNL     1       4.053   2.963  18.688  0.00  0.00    +0.000 NA
ATOM      3  C   UNL     1       5.125   3.482  19.548  0.00  0.00    +0.000 C 
BRANCH   2   4
ATOM      4  C   UNL     1       3.715   3.920  17.612  0.00  0.00    +0.000 C 
BRANCH   4   9
ATOM      5  C   UNL     1       6.770   5.982  16.674  0.00  0.00    +0.000 A 
ATOM      6  C   UNL     1       7.102   5.462  15.424  0.00  0.00    +0.000 A 
ATOM      7  C   UNL     1       6.370   4.392  14.906  0.00  0.00    +0.000 A 
ATOM      8  C   UNL     1       5.289   3.873  15.625  0.00  0.00    +0.000 A 
ATOM      9  C   UNL     1       4.935   4.416  16.867  0.00  0.00    +0.000 A 
ATOM     10  C   UNL     1       5.705   5.462  17.402  0.00  0.00    +0.000 A 
BRANCH   5  11
ATOM     11  O   UNL     1       7.431   7.148  17.093  0.00  0.00    +0.000 OA
BRANCH  11  13
ATOM     12  N   UNL     1       8.698   8.308  18.621  0.00  0.00    +0.000 N 
ATOM     13  C   UNL     1       8.034   7.140  18.342  0.00  0.00    +0.000 C 
ATOM     14  O   UNL     1       8.025   6.220  19.151  0.00  0.00    +0.000 OA
ATOM     15  H   UNL     1       9.152   8.277  19.523  0.00  0.00    +0.000 HD
BRANCH  12  16
ATOM     16  C   UNL     1       8.256   9.605  18.148  0.00  0.00    +0.000 C 
BRANCH  16  17
ATOM     17  C   UNL     1       9.179  10.725  18.630  0.00  0.00    +0.000 C 
BRANCH  17  19
ATOM     18  C   UNL     1      10.421  11.738  20.555  0.00  0.00    +0.000 C 
ATOM     19  C   UNL     1       9.351  10.739  20.151  0.00  0.00    +0.000 C 
ENDBRANCH  17  19
ENDBRANCH  16  17
ENDBRANCH  12  16
ENDBRANCH  11  13
ENDBRANCH   5  11
ENDBRANCH   4   9
ENDBRANCH   2   4
ENDBRANCH   1   2
BRANCH   1  20
ATOM     20  C   UNL     1       1.730   3.634  19.416  0.00  0.00    +0.000 C 
BRANCH  20  21
ATOM     21  C   UNL     1       1.795   4.734  20.471  0.00  0.00    +0.000 C 
BRANCH  21  22
ATOM     22  O   UNL     1       2.554   5.800  19.901  0.00  0.00    +0.000 OA
BRANCH  22  23
ATOM     23  C   UNL     1       2.021   7.054  19.962  0.00  0.00    +0.000 A 
ATOM     24  C   UNL     1       2.199   7.800  18.791  0.00  0.00    +0.000 A 
ATOM     25  C   UNL     1       1.639   9.067  18.668  0.00  0.00    +0.000 A 
ATOM     26  C   UNL     1       0.919   9.594  19.737  0.00  0.00    +0.000 A 
ATOM     27  C   UNL     1       0.112  10.804  19.565  0.00  0.00    +0.000 A 
ATOM     28  O   UNL     1       0.133  11.458  18.532  0.00  0.00    +0.000 OA
ATOM     29  C   UNL     1      -0.766  11.161  20.686  0.00  0.00    +0.000 A 
ATOM     30  C   UNL     1      -1.814  12.067  20.520  0.00  0.00    +0.000 A 
ATOM     31  C   UNL     1      -2.577  12.442  21.623  0.00  0.00    +0.000 A 
ATOM     32  C   UNL     1      -2.240  11.968  22.893  0.00  0.00    +0.000 A 
ATOM     33  C   UNL     1      -1.204  11.047  23.042  0.00  0.00    +0.000 A 
ATOM     34  C   UNL     1      -0.515  10.576  21.924  0.00  0.00    +0.000 A 
ATOM     35  O   UNL     1       0.317   9.495  22.089  0.00  0.00    +0.000 OA
ATOM     36  C   UNL     1       0.850   8.921  20.956  0.00  0.00    +0.000 A 
ATOM     37  C   UNL     1       1.366   7.625  21.057  0.00  0.00    +0.000 A 
ENDBRANCH  22  23
ENDBRANCH  21  22
ENDBRANCH  20  21
ENDBRANCH   1  20
TORSDOF 12
ENDMDL
MODEL 5
REMARK VINA RESULT:      -7.9      1.095      1.517
REMARK  Name = 
REMARK  14 active torsions:
REMARK  status: ('A' for Active; 'I' for Inactive)
REMARK    1  A    between atoms: C_1  and  C_2
REMARK    2  A    between atoms: C_2  and  C_3
REMARK    3  A    between atoms: C_3  and  C_4
REMARK    4  A    between atoms: C_4  and  N_5
REMARK    5  A    between atoms: C_6  and  O_8
REMARK    6  A    between atoms: O_8  and  C_9
REMARK    7  A    between atoms: C_13  and  C_14
REMARK    8  A    between atoms: C_14  and  N_15
REMARK    9  A    between atoms: N_15  and  C_16
REMARK   10  A    between atoms: N_15  and  C_17
REMARK   11  A    between atoms: C_17  and  C_18
REMARK   12  A    between atoms: C_18  and  C_19
REMARK   13  A    between atoms: C_19  and  O_20
REMARK   14  A    between atoms: O_20  and  C_21
REMARK                            x       y       z     vdW  Elec       q    Type
REMARK                         _______ _______ _______ _____ _____    ______ ____
ROOT
ATOM      1  C   UNL     1       2.464   2.692  19.762  0.00  0.00    +0.000 C 
ENDROOT
BRANCH   1   2
ATOM      2  N   UNL     1       3.540   2.602  18.763  0.00  0.00    +0.000 NA
ATOM      3  C   UNL     1       3.925   1.194  18.593  0.00  0.00    +0.000 C 
BRANCH   2   4
ATOM      4  C   UNL     1       4.704   3.438  19.130  0.00  0.00    +0.000 C 
BRANCH   4   9
ATOM      5  C   UNL     1       6.277   4.452  15.819  0.00  0.00    +0.000 A 
ATOM      6  C   UNL     1       6.275   5.843  15.908  0.00  0.00    +0.000 A 
ATOM      7  C   UNL     1       5.703   6.463  17.021  0.00  0.00    +0.000 A 
ATOM      8  C   UNL     1       5.169   5.686  18.054  0.00  0.00    +0.000 A 
ATOM      9  C   UNL     1       5.199   4.287  17.979  0.00  0.00    +0.000 A 
ATOM     10  C   UNL     1       5.735   3.673  16.836  0.00  0.00    +0.000 A 
BRANCH   5  11
ATOM     11  O   UNL     1       6.991   3.866  14.761  0.00  0.00    +0.000 OA
BRANCH  11  13
ATOM     12  N   UNL     1       6.640   4.122  12.504  0.00  0.00    +0.000 N 
ATOM     13  C   UNL     1       7.227   4.637  13.632  0.00  0.00    +0.000 C 
ATOM     14  O   UNL     1       7.888   5.667  13.577  0.00  0.00    +0.000 OA
ATOM     15  H   UNL     1       6.841   4.681  11.686  0.00  0.00    +0.000 HD
BRANCH  12  16
ATOM     16  C   UNL     1       5.380   3.406  12.521  0.00  0.00    +0.000 C 
BRANCH  16  17
ATOM     17  C   UNL     1       5.281   2.411  11.364  0.00  0.00    +0.000 C 
BRANCH  17  19
ATOM     18  C   UNL     1       6.176   0.077  11.204  0.00  0.00    +0.000 C 
ATOM     19  C   UNL     1       6.539   1.552  11.212  0.00  0.00    +0.000 C 
ENDBRANCH  17  19
ENDBRANCH  16  17
ENDBRANCH  12  16
ENDBRANCH  11  13
ENDBRANCH   5  11
ENDBRANCH   4   9
ENDBRANCH   2   4
ENDBRANCH   1   2
BRANCH   1  20
ATOM     20  C   UNL     1       1.307   3.610  19.372  0.00  0.00    +0.000 C 
BRANCH  20  21
ATOM     21  C   UNL     1       1.767   4.917  18.734  0.00  0.00    +0.000 C 
BRANCH  21  22
ATOM     22  O   UNL     1       2.324   5.708  19.784  0.00  0.00    +0.000 OA
BRANCH  22  23
ATOM     23  C   UNL     1       1.883   6.994  19.904  0.00  0.00    +0.000 A 
ATOM     24  C   UNL     1       2.188   7.800  18.802  0.00  0.00    +0.000 A 
ATOM     25  C   UNL     1       1.733   9.113  18.739  0.00  0.00    +0.000 A 
ATOM     26  C   UNL     1       0.990   9.621  19.800  0.00  0.00    +0.000 A 
ATOM     27  C   UNL     1       0.288  10.900  19.670  0.00  0.00    +0.000 A 
ATOM     28  O   UNL     1       0.421  11.618  18.690  0.00  0.00    +0.000 OA
ATOM     29  C   UNL     1      -0.629  11.250  20.762  0.00  0.00    +0.000 A 
ATOM     30  C   UNL     1      -1.594  12.244  20.602  0.00  0.00    +0.000 A 
ATOM     31  C   UNL     1      -2.395  12.603  21.684  0.00  0.00    +0.000 A 
ATOM     32  C   UNL     1      -2.173  12.019  22.934  0.00  0.00    +0.000 A 
ATOM     33  C   UNL     1      -1.220  11.013  23.076  0.00  0.00    +0.000 A 
ATOM     34  C   UNL     1      -0.500  10.565  21.967  0.00  0.00    +0.000 A 
ATOM     35  O   UNL     1       0.237   9.412  22.101  0.00  0.00    +0.000 OA
ATOM     36  C   UNL     1       0.795   8.876  20.962  0.00  0.00    +0.000 A 
ATOM     37  C   UNL     1       1.206   7.540  20.999  0.00  0.00    +0.000 A 
ENDBRANCH  22  23
ENDBRANCH  21  22
ENDBRANCH  20  21
ENDBRANCH   1  20
TORSDOF 12
ENDMDL
MODEL 6
REMARK VINA RESULT:      -7.8      3.515      6.197
REMARK  Name = 
REMARK  14 active torsions:
REMARK  status: ('A' for Active; 'I' for Inactive)
REMARK    1  A    between atoms: C_1  and  C_2
REMARK    2  A    between atoms: C_2  and  C_3
REMARK    3  A    between atoms: C_3  and  C_4
REMARK    4  A    between atoms: C_4  and  N_5
REMARK    5  A    between atoms: C_6  and  O_8
REMARK    6  A    between atoms: O_8  and  C_9
REMARK    7  A    between atoms: C_13  and  C_14
REMARK    8  A    between atoms: C_14  and  N_15
REMARK    9  A    between atoms: N_15  and  C_16
REMARK   10  A    between atoms: N_15  and  C_17
REMARK   11  A    between atoms: C_17  and  C_18
REMARK   12  A    between atoms: C_18  and  C_19
REMARK   13  A    between atoms: C_19  and  O_20
REMARK   14  A    between atoms: O_20  and  C_21
REMARK                            x       y       z     vdW  Elec       q    Type
REMARK                         _______ _______ _______ _____ _____    ______ ____
ROOT
ATOM      1  C   UNL     1       1.609   8.378  19.974  0.00  0.00    +0.000 C 
ENDROOT
BRANCH   1   2
ATOM      2  N   UNL     1       2.365   8.184  18.727  0.00  0.00    +0.000 NA
ATOM      3  C   UNL     1       2.126   9.327  17.835  0.00  0.00    +0.000 C 
BRANCH   2   4
ATOM      4  C   UNL     1       2.022   6.905  18.069  0.00  0.00    +0.000 C 
BRANCH   4   9
ATOM      5  C   UNL     1       5.487   5.348  18.248  0.00  0.00    +0.000 A 
ATOM      6  C   UNL     1       5.197   3.985  18.214  0.00  0.00    +0.000 A 
ATOM      7  C   UNL     1       3.866   3.562  18.197  0.00  0.00    +0.000 A 
ATOM      8  C   UNL     1       2.835   4.507  18.177  0.00  0.00    +0.000 A 
ATOM      9  C   UNL     1       3.127   5.877  18.179  0.00  0.00    +0.000 A 
ATOM     10  C   UNL     1       4.467   6.293  18.243  0.00  0.00    +0.000 A 
BRANCH   5  11
ATOM     11  O   UNL     1       6.831   5.733  18.115  0.00  0.00    +0.000 OA
BRANCH  11  13
ATOM     12  N   UNL     1       7.551   7.659  17.088  0.00  0.00    +0.000 N 
ATOM     13  C   UNL     1       7.218   6.338  16.928  0.00  0.00    +0.000 C 
ATOM     14  O   UNL     1       7.267   5.811  15.823  0.00  0.00    +0.000 OA
ATOM     15  H   UNL     1       7.808   8.091  16.210  0.00  0.00    +0.000 HD
BRANCH  12  16
ATOM     16  C   UNL     1       8.173   8.182  18.288  0.00  0.00    +0.000 C 
BRANCH  16  17
ATOM     17  C   UNL     1       8.642   9.625  18.097  0.00  0.00    +0.000 C 
BRANCH  17  19
ATOM     18  C   UNL     1       9.907  11.561  19.058  0.00  0.00    +0.000 C 
ATOM     19  C   UNL     1       9.263  10.220  19.363  0.00  0.00    +0.000 C 
ENDBRANCH  17  19
ENDBRANCH  16  17
ENDBRANCH  12  16
ENDBRANCH  11  13
ENDBRANCH   5  11
ENDBRANCH   4   9
ENDBRANCH   2   4
ENDBRANCH   1   2
BRANCH   1  20
ATOM     20  C   UNL     1       1.145   9.812  20.222  0.00  0.00    +0.000 C 
BRANCH  20  21
ATOM     21  C   UNL     1      -0.075   9.898  21.135  0.00  0.00    +0.000 C 
BRANCH  21  22
ATOM     22  O   UNL     1       0.230  10.876  22.129  0.00  0.00    +0.000 OA
BRANCH  22  23
ATOM     23  C   UNL     1      -0.756  11.755  22.471  0.00  0.00    +0.000 A 
ATOM     24  C   UNL     1      -0.431  13.093  22.221  0.00  0.00    +0.000 A 
ATOM     25  C   UNL     1      -1.365  14.100  22.438  0.00  0.00    +0.000 A 
ATOM     26  C   UNL     1      -2.621  13.760  22.931  0.00  0.00    +0.000 A 
ATOM     27  C   UNL     1      -3.707  14.744  22.941  0.00  0.00    +0.000 A 
ATOM     28  O   UNL     1      -3.526  15.914  22.636  0.00  0.00    +0.000 OA
ATOM     29  C   UNL     1      -5.039  14.235  23.286  0.00  0.00    +0.000 A 
ATOM     30  C   UNL     1      -6.189  14.972  23.002  0.00  0.00    +0.000 A 
ATOM     31  C   UNL     1      -7.430  14.493  23.415  0.00  0.00    +0.000 A 
ATOM     32  C   UNL     1      -7.504  13.322  24.173  0.00  0.00    +0.000 A 
ATOM     33  C   UNL     1      -6.351  12.584  24.432  0.00  0.00    +0.000 A 
ATOM     34  C   UNL     1      -5.121  12.996  23.917  0.00  0.00    +0.000 A 
ATOM     35  O   UNL     1      -4.068  12.115  23.983  0.00  0.00    +0.000 OA
ATOM     36  C   UNL     1      -2.912  12.452  23.313  0.00  0.00    +0.000 A 
ATOM     37  C   UNL     1      -1.991  11.435  23.042  0.00  0.00    +0.000 A 
ENDBRANCH  22  23
ENDBRANCH  21  22
ENDBRANCH  20  21
ENDBRANCH   1  20
TORSDOF 12
ENDMDL
MODEL 7
REMARK VINA RESULT:      -7.8      4.326     11.941
REMARK  Name = 
REMARK  14 active torsions:
REMARK  status: ('A' for Active; 'I' for Inactive)
REMARK    1  A    between atoms: C_1  and  C_2
REMARK    2  A    between atoms: C_2  and  C_3
REMARK    3  A    between atoms: C_3  and  C_4
REMARK    4  A    between atoms: C_4  and  N_5
REMARK    5  A    between atoms: C_6  and  O_8
REMARK    6  A    between atoms: O_8  and  C_9
REMARK    7  A    between atoms: C_13  and  C_14
REMARK    8  A    between atoms: C_14  and  N_15
REMARK    9  A    between atoms: N_15  and  C_16
REMARK   10  A    between atoms: N_15  and  C_17
REMARK   11  A    between atoms: C_17  and  C_18
REMARK   12  A    between atoms: C_18  and  C_19
REMARK   13  A    between atoms: C_19  and  O_20
REMARK   14  A    between atoms: O_20  and  C_21
REMARK                            x       y       z     vdW  Elec       q    Type
REMARK                         _______ _______ _______ _____ _____    ______ ____
ROOT
ATOM      1  C   UNL     1      -2.368  11.181  16.923  0.00  0.00    +0.000 C 
ENDROOT
BRANCH   1   2
ATOM      2  N   UNL     1      -3.720  10.736  16.551  0.00  0.00    +0.000 NA
ATOM      3  C   UNL     1      -3.706  10.256  15.162  0.00  0.00    +0.000 C 
BRANCH   2   4
ATOM      4  C   UNL     1      -4.723  11.806  16.741  0.00  0.00    +0.000 C 
BRANCH   4   9
ATOM      5  C   UNL     1      -5.440  12.261  20.448  0.00  0.00    +0.000 A 
ATOM      6  C   UNL     1      -6.571  11.466  20.627  0.00  0.00    +0.000 A 
ATOM      7  C   UNL     1      -7.146  10.826  19.528  0.00  0.00    +0.000 A 
ATOM      8  C   UNL     1      -6.564  10.956  18.263  0.00  0.00    +0.000 A 
ATOM      9  C   UNL     1      -5.409  11.730  18.088  0.00  0.00    +0.000 A 
ATOM     10  C   UNL     1      -4.864  12.407  19.191  0.00  0.00    +0.000 A 
BRANCH   5  11
ATOM     11  O   UNL     1      -4.808  12.765  21.597  0.00  0.00    +0.000 OA
BRANCH  11  13
ATOM     12  N   UNL     1      -5.358  13.494  23.706  0.00  0.00    +0.000 N 
ATOM     13  C   UNL     1      -5.492  13.702  22.357  0.00  0.00    +0.000 C 
ATOM     14  O   UNL     1      -6.171  14.630  21.933  0.00  0.00    +0.000 OA
ATOM     15  H   UNL     1      -5.881  14.170  24.246  0.00  0.00    +0.000 HD
BRANCH  12  16
ATOM     16  C   UNL     1      -4.155  12.956  24.310  0.00  0.00    +0.000 C 
BRANCH  16  17
ATOM     17  C   UNL     1      -2.999  13.956  24.250  0.00  0.00    +0.000 C 
BRANCH  17  19
ATOM     18  C   UNL     1      -2.895  16.360  24.944  0.00  0.00    +0.000 C 
ATOM     19  C   UNL     1      -2.990  14.926  25.434  0.00  0.00    +0.000 C 
ENDBRANCH  17  19
ENDBRANCH  16  17
ENDBRANCH  12  16
ENDBRANCH  11  13
ENDBRANCH   5  11
ENDBRANCH   4   9
ENDBRANCH   2   4
ENDBRANCH   1   2
BRANCH   1  20
ATOM     20  C   UNL     1      -1.722  10.381  18.053  0.00  0.00    +0.000 C 
BRANCH  20  21
ATOM     21  C   UNL     1      -0.486  11.060  18.637  0.00  0.00    +0.000 C 
BRANCH  21  22
ATOM     22  O   UNL     1      -0.153  10.343  19.826  0.00  0.00    +0.000 OA
BRANCH  22  23
ATOM     23  C   UNL     1       0.741   9.318  19.712  0.00  0.00    +0.000 A 
ATOM     24  C   UNL     1       0.725   8.433  20.796  0.00  0.00    +0.000 A 
ATOM     25  C   UNL     1       1.519   7.292  20.788  0.00  0.00    +0.000 A 
ATOM     26  C   UNL     1       2.350   7.055  19.696  0.00  0.00    +0.000 A 
ATOM     27  C   UNL     1       3.010   5.757  19.533  0.00  0.00    +0.000 A 
ATOM     28  O   UNL     1       2.958   4.889  20.392  0.00  0.00    +0.000 OA
ATOM     29  C   UNL     1       3.696   5.536  18.255  0.00  0.00    +0.000 A 
ATOM     30  C   UNL     1       4.058   4.254  17.843  0.00  0.00    +0.000 A 
ATOM     31  C   UNL     1       4.776   4.090  16.661  0.00  0.00    +0.000 A 
ATOM     32  C   UNL     1       5.192   5.213  15.942  0.00  0.00    +0.000 A 
ATOM     33  C   UNL     1       4.807   6.487  16.352  0.00  0.00    +0.000 A 
ATOM     34  C   UNL     1       3.984   6.648  17.468  0.00  0.00    +0.000 A 
ATOM     35  O   UNL     1       3.429   7.887  17.685  0.00  0.00    +0.000 OA
ATOM     36  C   UNL     1       2.478   7.995  18.676  0.00  0.00    +0.000 A 
ATOM     37  C   UNL     1       1.638   9.113  18.659  0.00  0.00    +0.000 A 
ENDBRANCH  22  23
ENDBRANCH  21  22
ENDBRANCH  20  21
ENDBRANCH   1  20
TORSDOF 12
ENDMDL
MODEL 8
REMARK VINA RESULT:      -7.7      3.016      9.310
REMARK  Name = 
REMARK  14 active torsions:
REMARK  status: ('A' for Active; 'I' for Inactive)
REMARK    1  A    between atoms: C_1  and  C_2
REMARK    2  A    between atoms: C_2  and  C_3
REMARK    3  A    between atoms: C_3  and  C_4
REMARK    4  A    between atoms: C_4  and  N_5
REMARK    5  A    between atoms: C_6  and  O_8
REMARK    6  A    between atoms: O_8  and  C_9
REMARK    7  A    between atoms: C_13  and  C_14
REMARK    8  A    between atoms: C_14  and  N_15
REMARK    9  A    between atoms: N_15  and  C_16
REMARK   10  A    between atoms: N_15  and  C_17
REMARK   11  A    between atoms: C_17  and  C_18
REMARK   12  A    between atoms: C_18  and  C_19
REMARK   13  A    between atoms: C_19  and  O_20
REMARK   14  A    between atoms: O_20  and  C_21
REMARK                            x       y       z     vdW  Elec       q    Type
REMARK                         _______ _______ _______ _____ _____    ______ ____
ROOT
ATOM      1  C   UNL     1       1.478   5.225  21.001  0.00  0.00    +0.000 C 
ENDROOT
BRANCH   1   2
ATOM      2  N   UNL     1       1.471   6.572  20.408  0.00  0.00    +0.000 NA
ATOM      3  C   UNL     1       2.319   6.576  19.208  0.00  0.00    +0.000 C 
BRANCH   2   4
ATOM      4  C   UNL     1       1.904   7.602  21.377  0.00  0.00    +0.000 C 
BRANCH   4   9
ATOM      5  C   UNL     1       0.394  10.967  20.452  0.00  0.00    +0.000 A 
ATOM      6  C   UNL     1      -0.545  11.155  21.465  0.00  0.00    +0.000 A 
ATOM      7  C   UNL     1      -0.738  10.156  22.421  0.00  0.00    +0.000 A 
ATOM      8  C   UNL     1       0.036   8.992  22.379  0.00  0.00    +0.000 A 
ATOM      9  C   UNL     1       1.002   8.817  21.380  0.00  0.00    +0.000 A 
ATOM     10  C   UNL     1       1.157   9.806  20.395  0.00  0.00    +0.000 A 
BRANCH   5  11
ATOM     11  O   UNL     1       0.662  12.051  19.600  0.00  0.00    +0.000 OA
BRANCH  11  13
ATOM     12  N   UNL     1       1.119  14.303  19.519  0.00  0.00    +0.000 N 
ATOM     13  C   UNL     1       1.421  13.098  20.102  0.00  0.00    +0.000 C 
ATOM     14  O   UNL     1       2.291  13.022  20.962  0.00  0.00    +0.000 OA
ATOM     15  H   UNL     1       1.696  15.051  19.878  0.00  0.00    +0.000 HD
BRANCH  12  16
ATOM     16  C   UNL     1      -0.214  14.655  19.071  0.00  0.00    +0.000 C 
BRANCH  16  17
ATOM     17  C   UNL     1      -0.541  16.119  19.372  0.00  0.00    +0.000 C 
BRANCH  17  19
ATOM     18  C   UNL     1       0.689  17.725  17.897  0.00  0.00    +0.000 C 
ATOM     19  C   UNL     1      -0.617  16.982  18.110  0.00  0.00    +0.000 C 
ENDBRANCH  17  19
ENDBRANCH  16  17
ENDBRANCH  12  16
ENDBRANCH  11  13
ENDBRANCH   5  11
ENDBRANCH   4   9
ENDBRANCH   2   4
ENDBRANCH   1   2
BRANCH   1  20
ATOM     20  C   UNL     1       0.955   4.122  20.084  0.00  0.00    +0.000 C 
BRANCH  20  21
ATOM     21  C   UNL     1       1.153   2.722  20.656  0.00  0.00    +0.000 C 
BRANCH  21  22
ATOM     22  O   UNL     1       1.975   2.015  19.727  0.00  0.00    +0.000 OA
BRANCH  22  23
ATOM     23  C   UNL     1       2.911   2.734  19.043  0.00  0.00    +0.000 A 
ATOM     24  C   UNL     1       2.642   2.854  17.675  0.00  0.00    +0.000 A 
ATOM     25  C   UNL     1       3.460   3.627  16.859  0.00  0.00    +0.000 A 
ATOM     26  C   UNL     1       4.566   4.261  17.418  0.00  0.00    +0.000 A 
ATOM     27  C   UNL     1       5.304   5.274  16.658  0.00  0.00    +0.000 A 
ATOM     28  O   UNL     1       5.061   5.511  15.484  0.00  0.00    +0.000 OA
ATOM     29  C   UNL     1       6.320   6.027  17.402  0.00  0.00    +0.000 A 
ATOM     30  C   UNL     1       6.839   7.223  16.905  0.00  0.00    +0.000 A 
ATOM     31  C   UNL     1       7.858   7.870  17.600  0.00  0.00    +0.000 A 
ATOM     32  C   UNL     1       8.402   7.278  18.743  0.00  0.00    +0.000 A 
ATOM     33  C   UNL     1       7.862   6.095  19.240  0.00  0.00    +0.000 A 
ATOM     34  C   UNL     1       6.761   5.507  18.616  0.00  0.00    +0.000 A 
ATOM     35  O   UNL     1       6.111   4.492  19.278  0.00  0.00    +0.000 OA
ATOM     36  C   UNL     1       4.923   4.041  18.746  0.00  0.00    +0.000 A 
ATOM     37  C   UNL     1       4.069   3.308  19.577  0.00  0.00    +0.000 A 
ENDBRANCH  22  23
ENDBRANCH  21  22
ENDBRANCH  20  21
ENDBRANCH   1  20
TORSDOF 12
ENDMDL
MODEL 9
REMARK VINA RESULT:      -7.7      1.736      2.273
REMARK  Name = 
REMARK  14 active torsions:
REMARK  status: ('A' for Active; 'I' for Inactive)
REMARK    1  A    between atoms: C_1  and  C_2
REMARK    2  A    between atoms: C_2  and  C_3
REMARK    3  A    between atoms: C_3  and  C_4
REMARK    4  A    between atoms: C_4  and  N_5
REMARK    5  A    between atoms: C_6  and  O_8
REMARK    6  A    between atoms: O_8  and  C_9
REMARK    7  A    between atoms: C_13  and  C_14
REMARK    8  A    between atoms: C_14  and  N_15
REMARK    9  A    between atoms: N_15  and  C_16
REMARK   10  A    between atoms: N_15  and  C_17
REMARK   11  A    between atoms: C_17  and  C_18
REMARK   12  A    between atoms: C_18  and  C_19
REMARK   13  A    between atoms: C_19  and  O_20
REMARK   14  A    between atoms: O_20  and  C_21
REMARK                            x       y       z     vdW  Elec       q    Type
REMARK                         _______ _______ _______ _____ _____    ______ ____
ROOT
ATOM      1  C   UNL     1       3.090   4.628  20.203  0.00  0.00    +0.000 C 
ENDROOT
BRANCH   1   2
ATOM      2  N   UNL     1       3.253   3.558  19.206  0.00  0.00    +0.000 NA
ATOM      3  C   UNL     1       2.490   2.378  19.634  0.00  0.00    +0.000 C 
BRANCH   2   4
ATOM      4  C   UNL     1       4.678   3.226  18.984  0.00  0.00    +0.000 C 
BRANCH   4   9
ATOM      5  C   UNL     1       6.070   5.587  16.348  0.00  0.00    +0.000 A 
ATOM      6  C   UNL     1       6.986   6.339  17.083  0.00  0.00    +0.000 A 
ATOM      7  C   UNL     1       7.110   6.125  18.457  0.00  0.00    +0.000 A 
ATOM      8  C   UNL     1       6.343   5.135  19.080  0.00  0.00    +0.000 A 
ATOM      9  C   UNL     1       5.446   4.357  18.336  0.00  0.00    +0.000 A 
ATOM     10  C   UNL     1       5.294   4.610  16.963  0.00  0.00    +0.000 A 
BRANCH   5  11
ATOM     11  O   UNL     1       6.082   5.728  14.950  0.00  0.00    +0.000 OA
BRANCH  11  13
ATOM     12  N   UNL     1       6.765   3.896  13.742  0.00  0.00    +0.000 N 
ATOM     13  C   UNL     1       7.112   5.124  14.245  0.00  0.00    +0.000 C 
ATOM     14  O   UNL     1       8.236   5.577  14.065  0.00  0.00    +0.000 OA
ATOM     15  H   UNL     1       7.533   3.459  13.252  0.00  0.00    +0.000 HD
BRANCH  12  16
ATOM     16  C   UNL     1       5.425   3.572  13.293  0.00  0.00    +0.000 C 
BRANCH  16  17
ATOM     17  C   UNL     1       5.415   3.123  11.830  0.00  0.00    +0.000 C 
BRANCH  17  19
ATOM     18  C   UNL     1       6.294   0.912  11.051  0.00  0.00    +0.000 C 
ATOM     19  C   UNL     1       6.666   2.330  11.444  0.00  0.00    +0.000 C 
ENDBRANCH  17  19
ENDBRANCH  16  17
ENDBRANCH  12  16
ENDBRANCH  11  13
ENDBRANCH   5  11
ENDBRANCH   4   9
ENDBRANCH   2   4
ENDBRANCH   1   2
BRANCH   1  20
ATOM     20  C   UNL     1       1.955   5.606  19.907  0.00  0.00    +0.000 C 
BRANCH  20  21
ATOM     21  C   UNL     1       2.282   7.042  20.307  0.00  0.00    +0.000 C 
BRANCH  21  22
ATOM     22  O   UNL     1       1.036   7.683  20.578  0.00  0.00    +0.000 OA
BRANCH  22  23
ATOM     23  C   UNL     1       0.970   9.033  20.394  0.00  0.00    +0.000 A 
ATOM     24  C   UNL     1       1.311   9.444  19.101  0.00  0.00    +0.000 A 
ATOM     25  C   UNL     1       1.211  10.782  18.735  0.00  0.00    +0.000 A 
ATOM     26  C   UNL     1       0.791  11.711  19.682  0.00  0.00    +0.000 A 
ATOM     27  C   UNL     1       0.438  13.075  19.278  0.00  0.00    +0.000 A 
ATOM     28  O   UNL     1       0.610  13.481  18.138  0.00  0.00    +0.000 OA
ATOM     29  C   UNL     1      -0.186  13.913  20.309  0.00  0.00    +0.000 A 
ATOM     30  C   UNL     1      -0.869  15.082  19.972  0.00  0.00    +0.000 A 
ATOM     31  C   UNL     1      -1.380  15.893  20.982  0.00  0.00    +0.000 A 
ATOM     32  C   UNL     1      -1.139  15.570  22.319  0.00  0.00    +0.000 A 
ATOM     33  C   UNL     1      -0.474  14.390  22.643  0.00  0.00    +0.000 A 
ATOM     34  C   UNL     1      -0.066  13.513  21.637  0.00  0.00    +0.000 A 
ATOM     35  O   UNL     1       0.355  12.258  22.009  0.00  0.00    +0.000 OA
ATOM     36  C   UNL     1       0.580  11.339  21.008  0.00  0.00    +0.000 A 
ATOM     37  C   UNL     1       0.627   9.986  21.359  0.00  0.00    +0.000 A 
ENDBRANCH  22  23
ENDBRANCH  21  22
ENDBRANCH  20  21
ENDBRANCH   1  20
TORSDOF 12
ENDMDL
