MODEL 1
REMARK VINA RESULT:      -7.4      0.000      0.000
REMARK  Name = 
REMARK  5 active torsions:
REMARK  status: ('A' for Active; 'I' for Inactive)
REMARK    1  A    between atoms: C_1  and  C_2
REMARK    2  A    between atoms: C_11  and  C_12
REMARK    3  A    between atoms: N_14  and  C_15
REMARK    4  A    between atoms: C_15  and  C_16
REMARK    5  A    between atoms: C_16  and  C_17
REMARK                            x       y       z     vdW  Elec       q    Type
REMARK                         _______ _______ _______ _____ _____    ______ ____
ROOT
ATOM      1  C   UNL     1       1.951   8.256  21.224  0.00  0.00    +0.000 C 
ATOM      2  C   UNL     1       2.001   7.315  20.004  0.00  0.00    +0.000 C 
ATOM      3  O   UNL     1       2.176   7.947  18.950  0.00  0.00    +0.000 OA
ATOM      4  N   UNL     1       1.982   5.891  19.951  0.00  0.00    +0.000 N 
ATOM      5  C   UNL     1       1.453   4.762  20.801  0.00  0.00    +0.000 C 
ATOM      6  C   UNL     1       0.963   3.561  20.015  0.00  0.00    +0.000 C 
ATOM      7  C   UNL     1       2.184   2.951  19.374  0.00  0.00    +0.000 C 
ATOM      8  O   UNL     1       1.751   1.974  18.423  0.00  0.00    +0.000 OA
ATOM      9  C   UNL     1       2.757   1.939  17.418  0.00  0.00    +0.000 C 
ATOM     10  C   UNL     1       3.196   3.380  17.254  0.00  0.00    +0.000 C 
ATOM     11  C   UNL     1       3.055   3.990  18.651  0.00  0.00    +0.000 C 
ATOM     12  C   UNL     1       2.367   5.382  18.609  0.00  0.00    +0.000 C 
ENDROOT
BRANCH  11  13
ATOM     13  C   UNL     1       4.464   4.277  19.184  0.00  0.00    +0.000 C 
ATOM     14  O   UNL     1       5.044   3.451  19.898  0.00  0.00    +0.000 OA
ATOM     15  N   UNL     1       5.052   5.476  18.917  0.00  0.00    +0.000 N 
ATOM     16  H   UNL     1       4.629   6.190  18.335  0.00  0.00    +0.000 HD
BRANCH  15  17
ATOM     17  C   UNL     1       6.395   5.773  19.385  0.00  0.00    +0.000 C 
BRANCH  17  18
ATOM     18  C   UNL     1       7.367   5.920  18.224  0.00  0.00    +0.000 C 
BRANCH  18  19
ATOM     19  C   UNL     1       6.750   5.520  16.908  0.00  0.00    +0.000 A 
ATOM     20  C   UNL     1       7.034   4.284  16.335  0.00  0.00    +0.000 A 
ATOM     21  C   UNL     1       6.488   3.982  15.091  0.00  0.00    +0.000 A 
ATOM     22  C   UNL     1       5.677   4.916  14.457  0.00  0.00    +0.000 A 
ATOM     23  C   UNL     1       5.421   6.109  15.109  0.00  0.00    +0.000 A 
ATOM     24  N   UNL     1       5.918   6.423  16.327  0.00  0.00    +0.000 NA
ENDBRANCH  18  19
ENDBRANCH  17  18
ENDBRANCH  15  17
ENDBRANCH  11  13
TORSDOF 4
ENDMDL
MODEL 2
REMARK VINA RESULT:      -7.4      2.236      6.564
REMARK  Name = 
REMARK  5 active torsions:
REMARK  status: ('A' for Active; 'I' for Inactive)
REMARK    1  A    between atoms: C_1  and  C_2
REMARK    2  A    between atoms: C_11  and  C_12
REMARK    3  A    between atoms: N_14  and  C_15
REMARK    4  A    between atoms: C_15  and  C_16
REMARK    5  A    between atoms: C_16  and  C_17
REMARK                            x       y       z     vdW  Elec       q    Type
REMARK                         _______ _______ _______ _____ _____    ______ ____
ROOT
ATOM      1  C   UNL     1       7.690   6.683  18.242  0.00  0.00    +0.000 C 
ATOM      2  C   UNL     1       6.649   5.686  18.790  0.00  0.00    +0.000 C 
ATOM      3  O   UNL     1       6.881   5.391  19.974  0.00  0.00    +0.000 OA
ATOM      4  N   UNL     1       5.467   5.178  18.180  0.00  0.00    +0.000 N 
ATOM      5  C   UNL     1       4.968   4.929  16.777  0.00  0.00    +0.000 C 
ATOM      6  C   UNL     1       4.076   3.710  16.634  0.00  0.00    +0.000 C 
ATOM      7  C   UNL     1       2.809   4.026  17.387  0.00  0.00    +0.000 C 
ATOM      8  O   UNL     1       2.042   2.824  17.499  0.00  0.00    +0.000 OA
ATOM      9  C   UNL     1       1.295   2.952  18.703  0.00  0.00    +0.000 C 
ATOM     10  C   UNL     1       2.230   3.645  19.673  0.00  0.00    +0.000 C 
ATOM     11  C   UNL     1       3.077   4.572  18.798  0.00  0.00    +0.000 C 
ATOM     12  C   UNL     1       4.585   4.495  19.162  0.00  0.00    +0.000 C 
ENDROOT
BRANCH  11  13
ATOM     13  C   UNL     1       2.681   6.018  19.121  0.00  0.00    +0.000 C 
ATOM     14  O   UNL     1       2.818   6.909  18.276  0.00  0.00    +0.000 OA
ATOM     15  N   UNL     1       2.231   6.328  20.369  0.00  0.00    +0.000 N 
ATOM     16  H   UNL     1       2.093   5.641  21.102  0.00  0.00    +0.000 HD
BRANCH  15  17
ATOM     17  C   UNL     1       1.823   7.681  20.704  0.00  0.00    +0.000 C 
BRANCH  17  18
ATOM     18  C   UNL     1       0.425   7.707  21.301  0.00  0.00    +0.000 C 
BRANCH  18  19
ATOM     19  C   UNL     1      -0.058   9.111  21.566  0.00  0.00    +0.000 A 
ATOM     20  C   UNL     1      -0.432   9.505  22.847  0.00  0.00    +0.000 A 
ATOM     21  C   UNL     1      -0.926  10.793  23.032  0.00  0.00    +0.000 A 
ATOM     22  C   UNL     1      -1.032  11.648  21.941  0.00  0.00    +0.000 A 
ATOM     23  C   UNL     1      -0.610  11.187  20.707  0.00  0.00    +0.000 A 
ATOM     24  N   UNL     1      -0.104   9.949  20.498  0.00  0.00    +0.000 NA
ENDBRANCH  18  19
ENDBRANCH  17  18
ENDBRANCH  15  17
ENDBRANCH  11  13
TORSDOF 4
ENDMDL
MODEL 3
REMARK VINA RESULT:      -7.3      2.329      6.356
REMARK  Name = 
REMARK  5 active torsions:
REMARK  status: ('A' for Active; 'I' for Inactive)
REMARK    1  A    between atoms: C_1  and  C_2
REMARK    2  A    between atoms: C_11  and  C_12
REMARK    3  A    between atoms: N_14  and  C_15
REMARK    4  A    between atoms: C_15  and  C_16
REMARK    5  A    between atoms: C_16  and  C_17
REMARK                            x       y       z     vdW  Elec       q    Type
REMARK                         _______ _______ _______ _____ _____    ______ ____
ROOT
ATOM      1  C   UNL     1       7.174   5.845  17.497  0.00  0.00    +0.000 C 
ATOM      2  C   UNL     1       6.278   5.174  18.557  0.00  0.00    +0.000 C 
ATOM      3  O   UNL     1       6.691   5.392  19.707  0.00  0.00    +0.000 OA
ATOM      4  N   UNL     1       5.049   4.470  18.396  0.00  0.00    +0.000 N 
ATOM      5  C   UNL     1       4.370   3.669  17.313  0.00  0.00    +0.000 C 
ATOM      6  C   UNL     1       3.534   2.509  17.819  0.00  0.00    +0.000 C 
ATOM      7  C   UNL     1       2.371   3.120  18.559  0.00  0.00    +0.000 C 
ATOM      8  O   UNL     1       1.695   2.079  19.270  0.00  0.00    +0.000 OA
ATOM      9  C   UNL     1       1.121   2.700  20.414  0.00  0.00    +0.000 C 
ATOM     10  C   UNL     1       2.146   3.723  20.860  0.00  0.00    +0.000 C 
ATOM     11  C   UNL     1       2.809   4.198  19.564  0.00  0.00    +0.000 C 
ATOM     12  C   UNL     1       4.356   4.263  19.694  0.00  0.00    +0.000 C 
ENDROOT
BRANCH  11  13
ATOM     13  C   UNL     1       2.385   5.652  19.323  0.00  0.00    +0.000 C 
ATOM     14  O   UNL     1       2.186   6.064  18.176  0.00  0.00    +0.000 OA
ATOM     15  N   UNL     1       2.287   6.507  20.380  0.00  0.00    +0.000 N 
ATOM     16  H   UNL     1       2.433   6.226  21.343  0.00  0.00    +0.000 HD
BRANCH  15  17
ATOM     17  C   UNL     1       1.865   7.884  20.193  0.00  0.00    +0.000 C 
BRANCH  17  18
ATOM     18  C   UNL     1       1.323   8.478  21.484  0.00  0.00    +0.000 C 
BRANCH  18  19
ATOM     19  C   UNL     1       0.439   9.674  21.236  0.00  0.00    +0.000 A 
ATOM     20  C   UNL     1      -0.116   9.902  19.981  0.00  0.00    +0.000 A 
ATOM     21  C   UNL     1      -0.879  11.050  19.785  0.00  0.00    +0.000 A 
ATOM     22  C   UNL     1      -1.067  11.933  20.841  0.00  0.00    +0.000 A 
ATOM     23  C   UNL     1      -0.504  11.617  22.066  0.00  0.00    +0.000 A 
ATOM     24  N   UNL     1       0.222  10.499  22.294  0.00  0.00    +0.000 NA
ENDBRANCH  18  19
ENDBRANCH  17  18
ENDBRANCH  15  17
ENDBRANCH  11  13
TORSDOF 4
ENDMDL
MODEL 4
REMARK VINA RESULT:      -7.2      2.178      6.513
REMARK  Name = 
REMARK  5 active torsions:
REMARK  status: ('A' for Active; 'I' for Inactive)
REMARK    1  A    between atoms: C_1  and  C_2
REMARK    2  A    between atoms: C_11  and  C_12
REMARK    3  A    between atoms: N_14  and  C_15
REMARK    4  A    between atoms: C_15  and  C_16
REMARK    5  A    between atoms: C_16  and  C_17
REMARK                            x       y       z     vdW  Elec       q    Type
REMARK                         _______ _______ _______ _____ _____    ______ ____
ROOT
ATOM      1  C   UNL     1       7.490   6.538  18.248  0.00  0.00    +0.000 C 
ATOM      2  C   UNL     1       6.454   5.555  18.828  0.00  0.00    +0.000 C 
ATOM      3  O   UNL     1       6.669   5.324  20.029  0.00  0.00    +0.000 OA
ATOM      4  N   UNL     1       5.290   4.998  18.225  0.00  0.00    +0.000 N 
ATOM      5  C   UNL     1       4.820   4.671  16.828  0.00  0.00    +0.000 C 
ATOM      6  C   UNL     1       3.948   3.433  16.733  0.00  0.00    +0.000 C 
ATOM      7  C   UNL     1       2.663   3.767  17.446  0.00  0.00    +0.000 C 
ATOM      8  O   UNL     1       1.912   2.561  17.607  0.00  0.00    +0.000 OA
ATOM      9  C   UNL     1       1.142   2.738  18.790  0.00  0.00    +0.000 C 
ATOM     10  C   UNL     1       2.050   3.493  19.739  0.00  0.00    +0.000 C 
ATOM     11  C   UNL     1       2.899   4.388  18.832  0.00  0.00    +0.000 C 
ATOM     12  C   UNL     1       4.402   4.353  19.225  0.00  0.00    +0.000 C 
ENDROOT
BRANCH  11  13
ATOM     13  C   UNL     1       2.476   5.842  19.075  0.00  0.00    +0.000 C 
ATOM     14  O   UNL     1       2.305   6.612  18.123  0.00  0.00    +0.000 OA
ATOM     15  N   UNL     1       2.348   6.301  20.351  0.00  0.00    +0.000 N 
ATOM     16  H   UNL     1       2.471   5.717  21.171  0.00  0.00    +0.000 HD
BRANCH  15  17
ATOM     17  C   UNL     1       1.925   7.664  20.619  0.00  0.00    +0.000 C 
BRANCH  17  18
ATOM     18  C   UNL     1       0.474   7.716  21.071  0.00  0.00    +0.000 C 
BRANCH  18  19
ATOM     19  C   UNL     1       0.058   9.101  21.498  0.00  0.00    +0.000 A 
ATOM     20  C   UNL     1       0.330  10.206  20.697  0.00  0.00    +0.000 A 
ATOM     21  C   UNL     1      -0.023  11.470  21.160  0.00  0.00    +0.000 A 
ATOM     22  C   UNL     1      -0.634  11.598  22.401  0.00  0.00    +0.000 A 
ATOM     23  C   UNL     1      -0.895  10.446  23.122  0.00  0.00    +0.000 A 
ATOM     24  N   UNL     1      -0.586   9.201  22.690  0.00  0.00    +0.000 NA
ENDBRANCH  18  19
ENDBRANCH  17  18
ENDBRANCH  15  17
ENDBRANCH  11  13
TORSDOF 4
ENDMDL
MODEL 5
REMARK VINA RESULT:      -7.2      0.580      1.003
REMARK  Name = 
REMARK  5 active torsions:
REMARK  status: ('A' for Active; 'I' for Inactive)
REMARK    1  A    between atoms: C_1  and  C_2
REMARK    2  A    between atoms: C_11  and  C_12
REMARK    3  A    between atoms: N_14  and  C_15
REMARK    4  A    between atoms: C_15  and  C_16
REMARK    5  A    between atoms: C_16  and  C_17
REMARK                            x       y       z     vdW  Elec       q    Type
REMARK                         _______ _______ _______ _____ _____    ______ ____
ROOT
ATOM      1  C   UNL     1       1.966   8.167  21.291  0.00  0.00    +0.000 C 
ATOM      2  C   UNL     1       2.015   7.238  20.062  0.00  0.00    +0.000 C 
ATOM      3  O   UNL     1       2.201   7.878  19.014  0.00  0.00    +0.000 OA
ATOM      4  N   UNL     1       1.985   5.815  19.995  0.00  0.00    +0.000 N 
ATOM      5  C   UNL     1       1.441   4.683  20.832  0.00  0.00    +0.000 C 
ATOM      6  C   UNL     1       0.946   3.492  20.032  0.00  0.00    +0.000 C 
ATOM      7  C   UNL     1       2.165   2.878  19.392  0.00  0.00    +0.000 C 
ATOM      8  O   UNL     1       1.729   1.914  18.430  0.00  0.00    +0.000 OA
ATOM      9  C   UNL     1       2.740   1.881  17.430  0.00  0.00    +0.000 C 
ATOM     10  C   UNL     1       3.192   3.319  17.281  0.00  0.00    +0.000 C 
ATOM     11  C   UNL     1       3.049   3.917  18.683  0.00  0.00    +0.000 C 
ATOM     12  C   UNL     1       2.373   5.315  18.651  0.00  0.00    +0.000 C 
ENDROOT
BRANCH  11  13
ATOM     13  C   UNL     1       4.457   4.187  19.227  0.00  0.00    +0.000 C 
ATOM     14  O   UNL     1       5.028   3.348  19.932  0.00  0.00    +0.000 OA
ATOM     15  N   UNL     1       5.054   5.386  18.980  0.00  0.00    +0.000 N 
ATOM     16  H   UNL     1       4.639   6.111  18.405  0.00  0.00    +0.000 HD
BRANCH  15  17
ATOM     17  C   UNL     1       6.397   5.667  19.457  0.00  0.00    +0.000 C 
BRANCH  17  18
ATOM     18  C   UNL     1       7.308   6.110  18.323  0.00  0.00    +0.000 C 
BRANCH  18  19
ATOM     19  C   UNL     1       6.796   5.671  16.974  0.00  0.00    +0.000 A 
ATOM     20  C   UNL     1       5.848   6.426  16.292  0.00  0.00    +0.000 A 
ATOM     21  C   UNL     1       5.363   5.952  15.076  0.00  0.00    +0.000 A 
ATOM     22  C   UNL     1       5.835   4.744  14.578  0.00  0.00    +0.000 A 
ATOM     23  C   UNL     1       6.799   4.068  15.305  0.00  0.00    +0.000 A 
ATOM     24  N   UNL     1       7.308   4.515  16.477  0.00  0.00    +0.000 NA
ENDBRANCH  18  19
ENDBRANCH  17  18
ENDBRANCH  15  17
ENDBRANCH  11  13
TORSDOF 4
ENDMDL
MODEL 6
REMARK VINA RESULT:      -7.1      2.741      6.007
REMARK  Name = 
REMARK  5 active torsions:
REMARK  status: ('A' for Active; 'I' for Inactive)
REMARK    1  A    between atoms: C_1  and  C_2
REMARK    2  A    between atoms: C_11  and  C_12
REMARK    3  A    between atoms: N_14  and  C_15
REMARK    4  A    between atoms: C_15  and  C_16
REMARK    5  A    between atoms: C_16  and  C_17
REMARK                            x       y       z     vdW  Elec       q    Type
REMARK                         _______ _______ _______ _____ _____    ______ ____
ROOT
ATOM      1  C   UNL     1       7.484   6.526  18.203  0.00  0.00    +0.000 C 
ATOM      2  C   UNL     1       6.464   5.526  18.783  0.00  0.00    +0.000 C 
ATOM      3  O   UNL     1       6.781   5.164  19.927  0.00  0.00    +0.000 OA
ATOM      4  N   UNL     1       5.223   5.077  18.245  0.00  0.00    +0.000 N 
ATOM      5  C   UNL     1       4.608   4.914  16.877  0.00  0.00    +0.000 C 
ATOM      6  C   UNL     1       3.675   3.725  16.745  0.00  0.00    +0.000 C 
ATOM      7  C   UNL     1       2.480   4.029  17.612  0.00  0.00    +0.000 C 
ATOM      8  O   UNL     1       1.693   2.841  17.726  0.00  0.00    +0.000 OA
ATOM      9  C   UNL     1       1.047   2.923  18.991  0.00  0.00    +0.000 C 
ATOM     10  C   UNL     1       2.075   3.542  19.916  0.00  0.00    +0.000 C 
ATOM     11  C   UNL     1       2.875   4.495  19.023  0.00  0.00    +0.000 C 
ATOM     12  C   UNL     1       4.405   4.365  19.260  0.00  0.00    +0.000 C 
ENDROOT
BRANCH  11  13
ATOM     13  C   UNL     1       2.544   5.930  19.450  0.00  0.00    +0.000 C 
ATOM     14  O   UNL     1       2.330   6.197  20.637  0.00  0.00    +0.000 OA
ATOM     15  N   UNL     1       2.428   6.903  18.503  0.00  0.00    +0.000 N 
ATOM     16  H   UNL     1       2.597   6.747  17.516  0.00  0.00    +0.000 HD
BRANCH  15  17
ATOM     17  C   UNL     1       2.141   8.278  18.873  0.00  0.00    +0.000 C 
BRANCH  17  18
ATOM     18  C   UNL     1       1.396   9.006  17.765  0.00  0.00    +0.000 C 
BRANCH  18  19
ATOM     19  C   UNL     1       0.322   9.918  18.301  0.00  0.00    +0.000 A 
ATOM     20  C   UNL     1      -0.939   9.956  17.714  0.00  0.00    +0.000 A 
ATOM     21  C   UNL     1      -1.880  10.855  18.207  0.00  0.00    +0.000 A 
ATOM     22  C   UNL     1      -1.539  11.687  19.267  0.00  0.00    +0.000 A 
ATOM     23  C   UNL     1      -0.273  11.566  19.812  0.00  0.00    +0.000 A 
ATOM     24  N   UNL     1       0.655  10.686  19.371  0.00  0.00    +0.000 NA
ENDBRANCH  18  19
ENDBRANCH  17  18
ENDBRANCH  15  17
ENDBRANCH  11  13
TORSDOF 4
ENDMDL
MODEL 7
REMARK VINA RESULT:      -6.8      2.542      5.615
REMARK  Name = 
REMARK  5 active torsions:
REMARK  status: ('A' for Active; 'I' for Inactive)
REMARK    1  A    between atoms: C_1  and  C_2
REMARK    2  A    between atoms: C_11  and  C_12
REMARK    3  A    between atoms: N_14  and  C_15
REMARK    4  A    between atoms: C_15  and  C_16
REMARK    5  A    between atoms: C_16  and  C_17
REMARK                            x       y       z     vdW  Elec       q    Type
REMARK                         _______ _______ _______ _____ _____    ______ ____
ROOT
ATOM      1  C   UNL     1       7.543   6.871  18.265  0.00  0.00    +0.000 C 
ATOM      2  C   UNL     1       6.738   5.670  18.797  0.00  0.00    +0.000 C 
ATOM      3  O   UNL     1       7.130   5.320  19.922  0.00  0.00    +0.000 OA
ATOM      4  N   UNL     1       5.598   5.020  18.240  0.00  0.00    +0.000 N 
ATOM      5  C   UNL     1       5.011   4.808  16.866  0.00  0.00    +0.000 C 
ATOM      6  C   UNL     1       4.318   3.471  16.678  0.00  0.00    +0.000 C 
ATOM      7  C   UNL     1       3.097   3.502  17.561  0.00  0.00    +0.000 C 
ATOM      8  O   UNL     1       2.550   2.181  17.618  0.00  0.00    +0.000 OA
ATOM      9  C   UNL     1       1.915   2.079  18.886  0.00  0.00    +0.000 C 
ATOM     10  C   UNL     1       2.817   2.837  19.839  0.00  0.00    +0.000 C 
ATOM     11  C   UNL     1       3.412   3.966  18.992  0.00  0.00    +0.000 C 
ATOM     12  C   UNL     1       4.941   4.117  19.220  0.00  0.00    +0.000 C 
ENDROOT
BRANCH  11  13
ATOM     13  C   UNL     1       2.820   5.290  19.490  0.00  0.00    +0.000 C 
ATOM     14  O   UNL     1       2.385   5.388  20.642  0.00  0.00    +0.000 OA
ATOM     15  N   UNL     1       2.720   6.345  18.634  0.00  0.00    +0.000 N 
ATOM     16  H   UNL     1       3.064   6.327  17.680  0.00  0.00    +0.000 HD
BRANCH  15  17
ATOM     17  C   UNL     1       2.188   7.622  19.076  0.00  0.00    +0.000 C 
BRANCH  17  18
ATOM     18  C   UNL     1       2.269   8.668  17.975  0.00  0.00    +0.000 C 
BRANCH  18  19
ATOM     19  C   UNL     1       1.618   9.969  18.373  0.00  0.00    +0.000 A 
ATOM     20  C   UNL     1       2.174  11.188  17.999  0.00  0.00    +0.000 A 
ATOM     21  C   UNL     1       1.570  12.362  18.438  0.00  0.00    +0.000 A 
ATOM     22  C   UNL     1       0.433  12.289  19.235  0.00  0.00    +0.000 A 
ATOM     23  C   UNL     1      -0.072  11.037  19.539  0.00  0.00    +0.000 A 
ATOM     24  N   UNL     1       0.478   9.878  19.108  0.00  0.00    +0.000 NA
ENDBRANCH  18  19
ENDBRANCH  17  18
ENDBRANCH  15  17
ENDBRANCH  11  13
TORSDOF 4
ENDMDL
MODEL 8
REMARK VINA RESULT:      -6.8      2.593      6.044
REMARK  Name = 
REMARK  5 active torsions:
REMARK  status: ('A' for Active; 'I' for Inactive)
REMARK    1  A    between atoms: C_1  and  C_2
REMARK    2  A    between atoms: C_11  and  C_12
REMARK    3  A    between atoms: N_14  and  C_15
REMARK    4  A    between atoms: C_15  and  C_16
REMARK    5  A    between atoms: C_16  and  C_17
REMARK                            x       y       z     vdW  Elec       q    Type
REMARK                         _______ _______ _______ _____ _____    ______ ____
ROOT
ATOM      1  C   UNL     1       7.505   6.147  17.884  0.00  0.00    +0.000 C 
ATOM      2  C   UNL     1       6.385   5.436  18.669  0.00  0.00    +0.000 C 
ATOM      3  O   UNL     1       6.670   5.328  19.872  0.00  0.00    +0.000 OA
ATOM      4  N   UNL     1       5.096   5.011  18.233  0.00  0.00    +0.000 N 
ATOM      5  C   UNL     1       4.454   4.591  16.934  0.00  0.00    +0.000 C 
ATOM      6  C   UNL     1       3.393   3.516  17.076  0.00  0.00    +0.000 C 
ATOM      7  C   UNL     1       2.248   4.151  17.822  0.00  0.00    +0.000 C 
ATOM      8  O   UNL     1       1.334   3.120  18.205  0.00  0.00    +0.000 OA
ATOM      9  C   UNL     1       0.714   3.576  19.401  0.00  0.00    +0.000 C 
ATOM     10  C   UNL     1       1.812   4.283  20.168  0.00  0.00    +0.000 C 
ATOM     11  C   UNL     1       2.705   4.897  19.086  0.00  0.00    +0.000 C 
ATOM     12  C   UNL     1       4.213   4.659  19.375  0.00  0.00    +0.000 C 
ENDROOT
BRANCH  11  13
ATOM     13  C   UNL     1       2.541   6.421  19.149  0.00  0.00    +0.000 C 
ATOM     14  O   UNL     1       2.304   6.981  20.224  0.00  0.00    +0.000 OA
ATOM     15  N   UNL     1       2.598   7.150  18.000  0.00  0.00    +0.000 N 
ATOM     16  H   UNL     1       2.794   6.748  17.090  0.00  0.00    +0.000 HD
BRANCH  15  17
ATOM     17  C   UNL     1       2.472   8.597  18.024  0.00  0.00    +0.000 C 
BRANCH  17  18
ATOM     18  C   UNL     1       1.049   9.035  17.712  0.00  0.00    +0.000 C 
BRANCH  18  19
ATOM     19  C   UNL     1       0.615  10.208  18.554  0.00  0.00    +0.000 A 
ATOM     20  C   UNL     1       1.473  11.279  18.780  0.00  0.00    +0.000 A 
ATOM     21  C   UNL     1       1.049  12.312  19.611  0.00  0.00    +0.000 A 
ATOM     22  C   UNL     1      -0.213  12.249  20.189  0.00  0.00    +0.000 A 
ATOM     23  C   UNL     1      -1.016  11.162  19.889  0.00  0.00    +0.000 A 
ATOM     24  N   UNL     1      -0.642  10.155  19.068  0.00  0.00    +0.000 NA
ENDBRANCH  18  19
ENDBRANCH  17  18
ENDBRANCH  15  17
ENDBRANCH  11  13
TORSDOF 4
ENDMDL
MODEL 9
REMARK VINA RESULT:      -6.8      2.398      5.892
REMARK  Name = 
REMARK  5 active torsions:
REMARK  status: ('A' for Active; 'I' for Inactive)
REMARK    1  A    between atoms: C_1  and  C_2
REMARK    2  A    between atoms: C_11  and  C_12
REMARK    3  A    between atoms: N_14  and  C_15
REMARK    4  A    between atoms: C_15  and  C_16
REMARK    5  A    between atoms: C_16  and  C_17
REMARK                            x       y       z     vdW  Elec       q    Type
REMARK                         _______ _______ _______ _____ _____    ______ ____
ROOT
ATOM      1  C   UNL     1       7.663   6.768  18.439  0.00  0.00    +0.000 C 
ATOM      2  C   UNL     1       6.797   5.555  18.830  0.00  0.00    +0.000 C 
ATOM      3  O   UNL     1       7.195   5.032  19.884  0.00  0.00    +0.000 OA
ATOM      4  N   UNL     1       5.605   5.056  18.230  0.00  0.00    +0.000 N 
ATOM      5  C   UNL     1       4.970   5.069  16.861  0.00  0.00    +0.000 C 
ATOM      6  C   UNL     1       4.191   3.814  16.517  0.00  0.00    +0.000 C 
ATOM      7  C   UNL     1       2.997   3.795  17.437  0.00  0.00    +0.000 C 
ATOM      8  O   UNL     1       2.370   2.514  17.333  0.00  0.00    +0.000 OA
ATOM      9  C   UNL     1       1.762   2.276  18.597  0.00  0.00    +0.000 C 
ATOM     10  C   UNL     1       2.734   2.842  19.612  0.00  0.00    +0.000 C 
ATOM     11  C   UNL     1       3.377   4.039  18.906  0.00  0.00    +0.000 C 
ATOM     12  C   UNL     1       4.918   4.067  19.100  0.00  0.00    +0.000 C 
ENDROOT
BRANCH  11  13
ATOM     13  C   UNL     1       2.883   5.316  19.598  0.00  0.00    +0.000 C 
ATOM     14  O   UNL     1       2.571   5.299  20.793  0.00  0.00    +0.000 OA
ATOM     15  N   UNL     1       2.731   6.458  18.872  0.00  0.00    +0.000 N 
ATOM     16  H   UNL     1       2.974   6.534  17.890  0.00  0.00    +0.000 HD
BRANCH  15  17
ATOM     17  C   UNL     1       2.289   7.691  19.498  0.00  0.00    +0.000 C 
BRANCH  17  18
ATOM     18  C   UNL     1       1.731   8.666  18.473  0.00  0.00    +0.000 C 
BRANCH  18  19
ATOM     19  C   UNL     1       0.826   9.698  19.097  0.00  0.00    +0.000 A 
ATOM     20  C   UNL     1       0.416   9.578  20.421  0.00  0.00    +0.000 A 
ATOM     21  C   UNL     1      -0.465  10.524  20.937  0.00  0.00    +0.000 A 
ATOM     22  C   UNL     1      -0.910  11.559  20.122  0.00  0.00    +0.000 A 
ATOM     23  C   UNL     1      -0.430  11.622  18.826  0.00  0.00    +0.000 A 
ATOM     24  N   UNL     1       0.444  10.731  18.303  0.00  0.00    +0.000 NA
ENDBRANCH  18  19
ENDBRANCH  17  18
ENDBRANCH  15  17
ENDBRANCH  11  13
TORSDOF 4
ENDMDL
