MODEL 1
REMARK VINA RESULT:      -7.1      0.000      0.000
REMARK  Name = 
REMARK  8 active torsions:
REMARK  status: ('A' for Active; 'I' for Inactive)
REMARK    1  A    between atoms: C_2  and  C_3
REMARK    2  A    between atoms: C_3  and  N_4
REMARK    3  A    between atoms: N_4  and  C_5
REMARK    4  A    between atoms: N_4  and  C_19
REMARK    5  A    between atoms: C_5  and  C_6
REMARK    6  A    between atoms: C_6  and  O_7
REMARK    7  A    between atoms: O_7  and  C_8
REMARK    8  A    between atoms: C_19  and  C_20
REMARK                            x       y       z     vdW  Elec       q    Type
REMARK                         _______ _______ _______ _____ _____    ______ ____
ROOT
ATOM      1  C   UNL     1       4.319   7.163  17.591  0.00  0.00    +0.000 C 
ENDROOT
BRANCH   1   2
ATOM      2  C   UNL     1       4.928   6.236  16.532  0.00  0.00    +0.000 C 
BRANCH   2   3
ATOM      3  N   UNL     1       5.170   4.839  16.969  0.00  0.00    +0.000 NA
BRANCH   3   4
ATOM      4  C   UNL     1       6.371   4.237  16.359  0.00  0.00    +0.000 C 
BRANCH   4   6
ATOM      5  C   UNL     1       6.084   3.842  13.737  0.00  0.00    +0.000 C 
ATOM      6  C   UNL     1       6.217   4.009  14.915  0.00  0.00    +0.000 C 
ENDBRANCH   4   6
ENDBRANCH   3   4
BRANCH   3   7
ATOM      7  C   UNL     1       3.979   3.985  16.753  0.00  0.00    +0.000 C 
BRANCH   7   8
ATOM      8  C   UNL     1       3.142   3.815  18.005  0.00  0.00    +0.000 A 
ATOM      9  C   UNL     1       3.763   3.646  19.250  0.00  0.00    +0.000 A 
ATOM     10  C   UNL     1       3.011   3.301  20.372  0.00  0.00    +0.000 A 
ATOM     11  C   UNL     1       1.629   3.147  20.267  0.00  0.00    +0.000 A 
ATOM     12  C   UNL     1       0.993   3.375  19.047  0.00  0.00    +0.000 A 
ATOM     13  C   UNL     1       1.744   3.714  17.921  0.00  0.00    +0.000 A 
ENDBRANCH   7   8
ENDBRANCH   3   7
ENDBRANCH   2   3
ENDBRANCH   1   2
BRANCH   1  14
ATOM     14  O   UNL     1       2.924   7.411  17.383  0.00  0.00    +0.000 OA
BRANCH  14  15
ATOM     15  C   UNL     1       2.267   7.866  18.505  0.00  0.00    +0.000 A 
ATOM     16  C   UNL     1       2.305   7.034  19.630  0.00  0.00    +0.000 A 
ATOM     17  C   UNL     1       1.668   7.415  20.824  0.00  0.00    +0.000 A 
ATOM     18  C   UNL     1       0.997   8.636  20.904  0.00  0.00    +0.000 A 
ATOM     19  C   UNL     1       0.322   9.092  22.110  0.00  0.00    +0.000 A 
ATOM     20  C   UNL     1      -0.262  10.300  22.119  0.00  0.00    +0.000 A 
ATOM     21  C   UNL     1      -0.255  11.196  20.950  0.00  0.00    +0.000 A 
ATOM     22  O   UNL     1      -0.766  12.306  21.007  0.00  0.00    +0.000 OA
ATOM     23  O   UNL     1       0.340  10.713  19.799  0.00  0.00    +0.000 OA
ATOM     24  C   UNL     1       0.974   9.454  19.782  0.00  0.00    +0.000 A 
ATOM     25  C   UNL     1       1.584   9.084  18.591  0.00  0.00    +0.000 A 
ENDBRANCH  14  15
ENDBRANCH   1  14
TORSDOF 8
ENDMDL
MODEL 2
REMARK VINA RESULT:      -7.0      0.582      1.153
REMARK  Name = 
REMARK  8 active torsions:
REMARK  status: ('A' for Active; 'I' for Inactive)
REMARK    1  A    between atoms: C_2  and  C_3
REMARK    2  A    between atoms: C_3  and  N_4
REMARK    3  A    between atoms: N_4  and  C_5
REMARK    4  A    between atoms: N_4  and  C_19
REMARK    5  A    between atoms: C_5  and  C_6
REMARK    6  A    between atoms: C_6  and  O_7
REMARK    7  A    between atoms: O_7  and  C_8
REMARK    8  A    between atoms: C_19  and  C_20
REMARK                            x       y       z     vdW  Elec       q    Type
REMARK                         _______ _______ _______ _____ _____    ______ ____
ROOT
ATOM      1  C   UNL     1       4.135   7.088  17.635  0.00  0.00    +0.000 C 
ENDROOT
BRANCH   1   2
ATOM      2  C   UNL     1       4.271   5.740  16.918  0.00  0.00    +0.000 C 
BRANCH   2   3
ATOM      3  N   UNL     1       4.948   4.670  17.692  0.00  0.00    +0.000 NA
BRANCH   3   4
ATOM      4  C   UNL     1       6.352   4.458  17.288  0.00  0.00    +0.000 C 
BRANCH   4   6
ATOM      5  C   UNL     1       6.636   4.283  14.642  0.00  0.00    +0.000 C 
ATOM      6  C   UNL     1       6.511   4.351  15.831  0.00  0.00    +0.000 C 
ENDBRANCH   4   6
ENDBRANCH   3   4
BRANCH   3   7
ATOM      7  C   UNL     1       4.186   3.402  17.652  0.00  0.00    +0.000 C 
BRANCH   7   8
ATOM      8  C   UNL     1       3.121   3.321  18.728  0.00  0.00    +0.000 A 
ATOM      9  C   UNL     1       1.765   3.400  18.383  0.00  0.00    +0.000 A 
ATOM     10  C   UNL     1       0.791   3.518  19.374  0.00  0.00    +0.000 A 
ATOM     11  C   UNL     1       1.161   3.531  20.718  0.00  0.00    +0.000 A 
ATOM     12  C   UNL     1       2.501   3.389  21.075  0.00  0.00    +0.000 A 
ATOM     13  C   UNL     1       3.479   3.279  20.085  0.00  0.00    +0.000 A 
ENDBRANCH   7   8
ENDBRANCH   3   7
ENDBRANCH   2   3
ENDBRANCH   1   2
BRANCH   1  14
ATOM     14  O   UNL     1       2.868   7.716  17.413  0.00  0.00    +0.000 OA
BRANCH  14  15
ATOM     15  C   UNL     1       2.206   8.061  18.571  0.00  0.00    +0.000 A 
ATOM     16  C   UNL     1       2.278   7.144  19.626  0.00  0.00    +0.000 A 
ATOM     17  C   UNL     1       1.641   7.411  20.850  0.00  0.00    +0.000 A 
ATOM     18  C   UNL     1       0.935   8.601  21.032  0.00  0.00    +0.000 A 
ATOM     19  C   UNL     1       0.257   8.940  22.274  0.00  0.00    +0.000 A 
ATOM     20  C   UNL     1      -0.362  10.125  22.382  0.00  0.00    +0.000 A 
ATOM     21  C   UNL     1      -0.391  11.110  21.288  0.00  0.00    +0.000 A 
ATOM     22  O   UNL     1      -0.934  12.197  21.435  0.00  0.00    +0.000 OA
ATOM     23  O   UNL     1       0.208  10.738  20.098  0.00  0.00    +0.000 OA
ATOM     24  C   UNL     1       0.878   9.504  19.978  0.00  0.00    +0.000 A 
ATOM     25  C   UNL     1       1.489   9.247  18.757  0.00  0.00    +0.000 A 
ENDBRANCH  14  15
ENDBRANCH   1  14
TORSDOF 8
ENDMDL
MODEL 3
REMARK VINA RESULT:      -6.9      1.624      2.208
REMARK  Name = 
REMARK  8 active torsions:
REMARK  status: ('A' for Active; 'I' for Inactive)
REMARK    1  A    between atoms: C_2  and  C_3
REMARK    2  A    between atoms: C_3  and  N_4
REMARK    3  A    between atoms: N_4  and  C_5
REMARK    4  A    between atoms: N_4  and  C_19
REMARK    5  A    between atoms: C_5  and  C_6
REMARK    6  A    between atoms: C_6  and  O_7
REMARK    7  A    between atoms: O_7  and  C_8
REMARK    8  A    between atoms: C_19  and  C_20
REMARK                            x       y       z     vdW  Elec       q    Type
REMARK                         _______ _______ _______ _____ _____    ______ ____
ROOT
ATOM      1  C   UNL     1       3.549   6.567  17.526  0.00  0.00    +0.000 C 
ENDROOT
BRANCH   1   2
ATOM      2  C   UNL     1       4.370   5.318  17.185  0.00  0.00    +0.000 C 
BRANCH   2   3
ATOM      3  N   UNL     1       5.144   4.736  18.309  0.00  0.00    +0.000 NA
BRANCH   3   4
ATOM      4  C   UNL     1       6.602   4.744  18.078  0.00  0.00    +0.000 C 
BRANCH   4   6
ATOM      5  C   UNL     1       7.582   7.192  17.684  0.00  0.00    +0.000 C 
ATOM      6  C   UNL     1       7.132   6.097  17.859  0.00  0.00    +0.000 C 
ENDBRANCH   4   6
ENDBRANCH   3   4
BRANCH   3   7
ATOM      7  C   UNL     1       4.668   3.377  18.654  0.00  0.00    +0.000 C 
BRANCH   7   8
ATOM      8  C   UNL     1       3.227   3.362  19.127  0.00  0.00    +0.000 A 
ATOM      9  C   UNL     1       2.897   3.864  20.393  0.00  0.00    +0.000 A 
ATOM     10  C   UNL     1       1.615   3.681  20.912  0.00  0.00    +0.000 A 
ATOM     11  C   UNL     1       0.646   3.019  20.160  0.00  0.00    +0.000 A 
ATOM     12  C   UNL     1       0.945   2.571  18.874  0.00  0.00    +0.000 A 
ATOM     13  C   UNL     1       2.229   2.746  18.355  0.00  0.00    +0.000 A 
ENDBRANCH   7   8
ENDBRANCH   3   7
ENDBRANCH   2   3
ENDBRANCH   1   2
BRANCH   1  14
ATOM     14  O   UNL     1       3.164   6.626  18.904  0.00  0.00    +0.000 OA
BRANCH  14  15
ATOM     15  C   UNL     1       2.330   7.680  19.205  0.00  0.00    +0.000 A 
ATOM     16  C   UNL     1       1.958   8.505  18.137  0.00  0.00    +0.000 A 
ATOM     17  C   UNL     1       1.104   9.602  18.344  0.00  0.00    +0.000 A 
ATOM     18  C   UNL     1       0.608   9.876  19.619  0.00  0.00    +0.000 A 
ATOM     19  C   UNL     1      -0.282  10.992  19.901  0.00  0.00    +0.000 A 
ATOM     20  C   UNL     1      -0.751  11.161  21.147  0.00  0.00    +0.000 A 
ATOM     21  C   UNL     1      -0.399  10.260  22.257  0.00  0.00    +0.000 A 
ATOM     22  O   UNL     1      -0.876  10.423  23.373  0.00  0.00    +0.000 OA
ATOM     23  O   UNL     1       0.496   9.244  21.976  0.00  0.00    +0.000 OA
ATOM     24  C   UNL     1       0.981   9.045  20.668  0.00  0.00    +0.000 A 
ATOM     25  C   UNL     1       1.836   7.967  20.482  0.00  0.00    +0.000 A 
ENDBRANCH  14  15
ENDBRANCH   1  14
TORSDOF 8
ENDMDL
MODEL 4
REMARK VINA RESULT:      -6.9      1.532      4.136
REMARK  Name = 
REMARK  8 active torsions:
REMARK  status: ('A' for Active; 'I' for Inactive)
REMARK    1  A    between atoms: C_2  and  C_3
REMARK    2  A    between atoms: C_3  and  N_4
REMARK    3  A    between atoms: N_4  and  C_5
REMARK    4  A    between atoms: N_4  and  C_19
REMARK    5  A    between atoms: C_5  and  C_6
REMARK    6  A    between atoms: C_6  and  O_7
REMARK    7  A    between atoms: O_7  and  C_8
REMARK    8  A    between atoms: C_19  and  C_20
REMARK                            x       y       z     vdW  Elec       q    Type
REMARK                         _______ _______ _______ _____ _____    ______ ____
ROOT
ATOM      1  C   UNL     1       2.276   5.623  19.242  0.00  0.00    +0.000 C 
ENDROOT
BRANCH   1   2
ATOM      2  C   UNL     1       1.899   4.455  18.323  0.00  0.00    +0.000 C 
BRANCH   2   3
ATOM      3  N   UNL     1       2.820   3.292  18.359  0.00  0.00    +0.000 NA
BRANCH   3   4
ATOM      4  C   UNL     1       2.244   2.113  19.033  0.00  0.00    +0.000 C 
BRANCH   4   6
ATOM      5  C   UNL     1       1.571   2.589  21.569  0.00  0.00    +0.000 C 
ATOM      6  C   UNL     1       1.880   2.383  20.432  0.00  0.00    +0.000 C 
ENDBRANCH   4   6
ENDBRANCH   3   4
BRANCH   3   7
ATOM      7  C   UNL     1       4.131   3.652  18.945  0.00  0.00    +0.000 C 
BRANCH   7   8
ATOM      8  C   UNL     1       5.141   4.093  17.904  0.00  0.00    +0.000 A 
ATOM      9  C   UNL     1       4.861   3.934  16.540  0.00  0.00    +0.000 A 
ATOM     10  C   UNL     1       5.852   4.158  15.585  0.00  0.00    +0.000 A 
ATOM     11  C   UNL     1       7.124   4.570  15.983  0.00  0.00    +0.000 A 
ATOM     12  C   UNL     1       7.395   4.793  17.332  0.00  0.00    +0.000 A 
ATOM     13  C   UNL     1       6.407   4.562  18.290  0.00  0.00    +0.000 A 
ENDBRANCH   7   8
ENDBRANCH   3   7
ENDBRANCH   2   3
ENDBRANCH   1   2
BRANCH   1  14
ATOM     14  O   UNL     1       2.712   6.783  18.523  0.00  0.00    +0.000 OA
BRANCH  14  15
ATOM     15  C   UNL     1       2.076   7.945  18.902  0.00  0.00    +0.000 A 
ATOM     16  C   UNL     1       1.845   8.886  17.892  0.00  0.00    +0.000 A 
ATOM     17  C   UNL     1       1.196  10.099  18.179  0.00  0.00    +0.000 A 
ATOM     18  C   UNL     1       0.766  10.376  19.478  0.00  0.00    +0.000 A 
ATOM     19  C   UNL     1       0.085  11.610  19.842  0.00  0.00    +0.000 A 
ATOM     20  C   UNL     1      -0.337  11.780  21.104  0.00  0.00    +0.000 A 
ATOM     21  C   UNL     1      -0.139  10.765  22.152  0.00  0.00    +0.000 A 
ATOM     22  O   UNL     1      -0.571  10.938  23.284  0.00  0.00    +0.000 OA
ATOM     23  O   UNL     1       0.564   9.629  21.794  0.00  0.00    +0.000 OA
ATOM     24  C   UNL     1       0.996   9.430  20.468  0.00  0.00    +0.000 A 
ATOM     25  C   UNL     1       1.650   8.234  20.202  0.00  0.00    +0.000 A 
ENDBRANCH  14  15
ENDBRANCH   1  14
TORSDOF 8
ENDMDL
MODEL 5
REMARK VINA RESULT:      -6.8      2.686      7.967
REMARK  Name = 
REMARK  8 active torsions:
REMARK  status: ('A' for Active; 'I' for Inactive)
REMARK    1  A    between atoms: C_2  and  C_3
REMARK    2  A    between atoms: C_3  and  N_4
REMARK    3  A    between atoms: N_4  and  C_5
REMARK    4  A    between atoms: N_4  and  C_19
REMARK    5  A    between atoms: C_5  and  C_6
REMARK    6  A    between atoms: C_6  and  O_7
REMARK    7  A    between atoms: O_7  and  C_8
REMARK    8  A    between atoms: C_19  and  C_20
REMARK                            x       y       z     vdW  Elec       q    Type
REMARK                         _______ _______ _______ _____ _____    ______ ____
ROOT
ATOM      1  C   UNL     1       2.186   9.093  17.909  0.00  0.00    +0.000 C 
ENDROOT
BRANCH   1   2
ATOM      2  C   UNL     1       0.712   9.250  17.513  0.00  0.00    +0.000 C 
BRANCH   2   3
ATOM      3  N   UNL     1      -0.121  10.039  18.454  0.00  0.00    +0.000 NA
BRANCH   3   4
ATOM      4  C   UNL     1      -1.124  10.883  17.776  0.00  0.00    +0.000 C 
BRANCH   4   6
ATOM      5  C   UNL     1      -3.470   9.643  17.514  0.00  0.00    +0.000 C 
ATOM      6  C   UNL     1      -2.422  10.208  17.627  0.00  0.00    +0.000 C 
ENDBRANCH   4   6
ENDBRANCH   3   4
BRANCH   3   7
ATOM      7  C   UNL     1       0.711  10.842  19.379  0.00  0.00    +0.000 C 
BRANCH   7   8
ATOM      8  C   UNL     1       0.297  10.686  20.829  0.00  0.00    +0.000 A 
ATOM      9  C   UNL     1       0.574   9.496  21.516  0.00  0.00    +0.000 A 
ATOM     10  C   UNL     1       0.033   9.271  22.781  0.00  0.00    +0.000 A 
ATOM     11  C   UNL     1      -0.767  10.242  23.382  0.00  0.00    +0.000 A 
ATOM     12  C   UNL     1      -0.996  11.456  22.735  0.00  0.00    +0.000 A 
ATOM     13  C   UNL     1      -0.462  11.681  21.465  0.00  0.00    +0.000 A 
ENDBRANCH   7   8
ENDBRANCH   3   7
ENDBRANCH   2   3
ENDBRANCH   1   2
BRANCH   1  14
ATOM     14  O   UNL     1       2.423   7.954  18.743  0.00  0.00    +0.000 OA
BRANCH  14  15
ATOM     15  C   UNL     1       3.104   6.935  18.113  0.00  0.00    +0.000 A 
ATOM     16  C   UNL     1       2.553   5.653  18.227  0.00  0.00    +0.000 A 
ATOM     17  C   UNL     1       3.171   4.551  17.613  0.00  0.00    +0.000 A 
ATOM     18  C   UNL     1       4.342   4.723  16.872  0.00  0.00    +0.000 A 
ATOM     19  C   UNL     1       5.030   3.626  16.209  0.00  0.00    +0.000 A 
ATOM     20  C   UNL     1       6.126   3.883  15.478  0.00  0.00    +0.000 A 
ATOM     21  C   UNL     1       6.673   5.241  15.318  0.00  0.00    +0.000 A 
ATOM     22  O   UNL     1       7.654   5.443  14.613  0.00  0.00    +0.000 OA
ATOM     23  O   UNL     1       6.036   6.256  16.008  0.00  0.00    +0.000 OA
ATOM     24  C   UNL     1       4.874   6.002  16.763  0.00  0.00    +0.000 A 
ATOM     25  C   UNL     1       4.283   7.098  17.377  0.00  0.00    +0.000 A 
ENDBRANCH  14  15
ENDBRANCH   1  14
TORSDOF 8
ENDMDL
MODEL 6
REMARK VINA RESULT:      -6.8      1.331      2.079
REMARK  Name = 
REMARK  8 active torsions:
REMARK  status: ('A' for Active; 'I' for Inactive)
REMARK    1  A    between atoms: C_2  and  C_3
REMARK    2  A    between atoms: C_3  and  N_4
REMARK    3  A    between atoms: N_4  and  C_5
REMARK    4  A    between atoms: N_4  and  C_19
REMARK    5  A    between atoms: C_5  and  C_6
REMARK    6  A    between atoms: C_6  and  O_7
REMARK    7  A    between atoms: O_7  and  C_8
REMARK    8  A    between atoms: C_19  and  C_20
REMARK                            x       y       z     vdW  Elec       q    Type
REMARK                         _______ _______ _______ _____ _____    ______ ____
ROOT
ATOM      1  C   UNL     1       4.032   6.295  18.424  0.00  0.00    +0.000 C 
ENDROOT
BRANCH   1   2
ATOM      2  C   UNL     1       3.908   5.435  17.160  0.00  0.00    +0.000 C 
BRANCH   2   3
ATOM      3  N   UNL     1       4.251   4.001  17.328  0.00  0.00    +0.000 NA
BRANCH   3   4
ATOM      4  C   UNL     1       5.199   3.506  16.311  0.00  0.00    +0.000 C 
BRANCH   4   6
ATOM      5  C   UNL     1       7.283   5.130  15.949  0.00  0.00    +0.000 C 
ATOM      6  C   UNL     1       6.343   4.408  16.118  0.00  0.00    +0.000 C 
ENDBRANCH   4   6
ENDBRANCH   3   4
BRANCH   3   7
ATOM      7  C   UNL     1       3.039   3.152  17.383  0.00  0.00    +0.000 C 
BRANCH   7   8
ATOM      8  C   UNL     1       2.511   2.970  18.793  0.00  0.00    +0.000 A 
ATOM      9  C   UNL     1       1.163   3.227  19.079  0.00  0.00    +0.000 A 
ATOM     10  C   UNL     1       0.714   3.247  20.398  0.00  0.00    +0.000 A 
ATOM     11  C   UNL     1       1.600   2.986  21.442  0.00  0.00    +0.000 A 
ATOM     12  C   UNL     1       2.929   2.668  21.166  0.00  0.00    +0.000 A 
ATOM     13  C   UNL     1       3.384   2.654  19.846  0.00  0.00    +0.000 A 
ENDBRANCH   7   8
ENDBRANCH   3   7
ENDBRANCH   2   3
ENDBRANCH   1   2
BRANCH   1  14
ATOM     14  O   UNL     1       2.901   6.180  19.294  0.00  0.00    +0.000 OA
BRANCH  14  15
ATOM     15  C   UNL     1       2.236   7.369  19.503  0.00  0.00    +0.000 A 
ATOM     16  C   UNL     1       2.105   8.213  18.394  0.00  0.00    +0.000 A 
ATOM     17  C   UNL     1       1.437   9.444  18.507  0.00  0.00    +0.000 A 
ATOM     18  C   UNL     1       0.888   9.837  19.728  0.00  0.00    +0.000 A 
ATOM     19  C   UNL     1       0.181  11.096  19.912  0.00  0.00    +0.000 A 
ATOM     20  C   UNL     1      -0.357  11.379  21.108  0.00  0.00    +0.000 A 
ATOM     21  C   UNL     1      -0.262  10.464  22.259  0.00  0.00    +0.000 A 
ATOM     22  O   UNL     1      -0.798  10.739  23.325  0.00  0.00    +0.000 OA
ATOM     23  O   UNL     1       0.467   9.304  22.075  0.00  0.00    +0.000 OA
ATOM     24  C   UNL     1       1.021   8.986  20.818  0.00  0.00    +0.000 A 
ATOM     25  C   UNL     1       1.692   7.774  20.726  0.00  0.00    +0.000 A 
ENDBRANCH  14  15
ENDBRANCH   1  14
TORSDOF 8
ENDMDL
MODEL 7
REMARK VINA RESULT:      -6.7      1.175      1.792
REMARK  Name = 
REMARK  8 active torsions:
REMARK  status: ('A' for Active; 'I' for Inactive)
REMARK    1  A    between atoms: C_2  and  C_3
REMARK    2  A    between atoms: C_3  and  N_4
REMARK    3  A    between atoms: N_4  and  C_5
REMARK    4  A    between atoms: N_4  and  C_19
REMARK    5  A    between atoms: C_5  and  C_6
REMARK    6  A    between atoms: C_6  and  O_7
REMARK    7  A    between atoms: O_7  and  C_8
REMARK    8  A    between atoms: C_19  and  C_20
REMARK                            x       y       z     vdW  Elec       q    Type
REMARK                         _______ _______ _______ _____ _____    ______ ____
ROOT
ATOM      1  C   UNL     1       3.085   7.140  17.817  0.00  0.00    +0.000 C 
ENDROOT
BRANCH   1   2
ATOM      2  C   UNL     1       4.419   6.470  17.465  0.00  0.00    +0.000 C 
BRANCH   2   3
ATOM      3  N   UNL     1       4.615   5.108  18.020  0.00  0.00    +0.000 NA
BRANCH   3   4
ATOM      4  C   UNL     1       5.918   4.515  17.659  0.00  0.00    +0.000 C 
BRANCH   4   6
ATOM      5  C   UNL     1       6.102   3.993  15.051  0.00  0.00    +0.000 C 
ATOM      6  C   UNL     1       6.030   4.228  16.222  0.00  0.00    +0.000 C 
ENDBRANCH   4   6
ENDBRANCH   3   4
BRANCH   3   7
ATOM      7  C   UNL     1       3.501   4.204  17.655  0.00  0.00    +0.000 C 
BRANCH   7   8
ATOM      8  C   UNL     1       2.761   3.665  18.864  0.00  0.00    +0.000 A 
ATOM      9  C   UNL     1       1.385   3.889  19.004  0.00  0.00    +0.000 A 
ATOM     10  C   UNL     1       0.736   3.566  20.195  0.00  0.00    +0.000 A 
ATOM     11  C   UNL     1       1.450   2.992  21.246  0.00  0.00    +0.000 A 
ATOM     12  C   UNL     1       2.806   2.706  21.094  0.00  0.00    +0.000 A 
ATOM     13  C   UNL     1       3.460   3.035  19.906  0.00  0.00    +0.000 A 
ENDBRANCH   7   8
ENDBRANCH   3   7
ENDBRANCH   2   3
ENDBRANCH   1   2
BRANCH   1  14
ATOM     14  O   UNL     1       2.765   7.055  19.210  0.00  0.00    +0.000 OA
BRANCH  14  15
ATOM     15  C   UNL     1       1.906   8.040  19.645  0.00  0.00    +0.000 A 
ATOM     16  C   UNL     1       1.423   7.913  20.952  0.00  0.00    +0.000 A 
ATOM     17  C   UNL     1       0.546   8.872  21.488  0.00  0.00    +0.000 A 
ATOM     18  C   UNL     1       0.153   9.971  20.723  0.00  0.00    +0.000 A 
ATOM     19  C   UNL     1      -0.748  11.001  21.217  0.00  0.00    +0.000 A 
ATOM     20  C   UNL     1      -1.041  12.049  20.433  0.00  0.00    +0.000 A 
ATOM     21  C   UNL     1      -0.489  12.207  19.077  0.00  0.00    +0.000 A 
ATOM     22  O   UNL     1      -0.749  13.196  18.404  0.00  0.00    +0.000 OA
ATOM     23  O   UNL     1       0.315  11.184  18.609  0.00  0.00    +0.000 OA
ATOM     24  C   UNL     1       0.646  10.087  19.429  0.00  0.00    +0.000 A 
ATOM     25  C   UNL     1       1.500   9.139  18.881  0.00  0.00    +0.000 A 
ENDBRANCH  14  15
ENDBRANCH   1  14
TORSDOF 8
ENDMDL
MODEL 8
REMARK VINA RESULT:      -6.7      0.889      1.102
REMARK  Name = 
REMARK  8 active torsions:
REMARK  status: ('A' for Active; 'I' for Inactive)
REMARK    1  A    between atoms: C_2  and  C_3
REMARK    2  A    between atoms: C_3  and  N_4
REMARK    3  A    between atoms: N_4  and  C_5
REMARK    4  A    between atoms: N_4  and  C_19
REMARK    5  A    between atoms: C_5  and  C_6
REMARK    6  A    between atoms: C_6  and  O_7
REMARK    7  A    between atoms: O_7  and  C_8
REMARK    8  A    between atoms: C_19  and  C_20
REMARK                            x       y       z     vdW  Elec       q    Type
REMARK                         _______ _______ _______ _____ _____    ______ ____
ROOT
ATOM      1  C   UNL     1       3.840   7.219  18.045  0.00  0.00    +0.000 C 
ENDROOT
BRANCH   1   2
ATOM      2  C   UNL     1       4.205   6.216  16.943  0.00  0.00    +0.000 C 
BRANCH   2   3
ATOM      3  N   UNL     1       4.076   4.785  17.315  0.00  0.00    +0.000 NA
BRANCH   3   4
ATOM      4  C   UNL     1       4.680   3.870  16.326  0.00  0.00    +0.000 C 
BRANCH   4   6
ATOM      5  C   UNL     1       7.117   4.630  15.553  0.00  0.00    +0.000 C 
ATOM      6  C   UNL     1       6.023   4.297  15.908  0.00  0.00    +0.000 C 
ENDBRANCH   4   6
ENDBRANCH   3   4
BRANCH   3   7
ATOM      7  C   UNL     1       2.669   4.416  17.590  0.00  0.00    +0.000 C 
BRANCH   7   8
ATOM      8  C   UNL     1       2.458   3.919  19.007  0.00  0.00    +0.000 A 
ATOM      9  C   UNL     1       3.530   3.382  19.732  0.00  0.00    +0.000 A 
ATOM     10  C   UNL     1       3.308   2.751  20.955  0.00  0.00    +0.000 A 
ATOM     11  C   UNL     1       2.018   2.674  21.478  0.00  0.00    +0.000 A 
ATOM     12  C   UNL     1       0.953   3.261  20.795  0.00  0.00    +0.000 A 
ATOM     13  C   UNL     1       1.171   3.886  19.567  0.00  0.00    +0.000 A 
ENDBRANCH   7   8
ENDBRANCH   3   7
ENDBRANCH   2   3
ENDBRANCH   1   2
BRANCH   1  14
ATOM     14  O   UNL     1       2.633   7.939  17.770  0.00  0.00    +0.000 OA
BRANCH  14  15
ATOM     15  C   UNL     1       1.944   8.321  18.900  0.00  0.00    +0.000 A 
ATOM     16  C   UNL     1       2.013   7.453  19.996  0.00  0.00    +0.000 A 
ATOM     17  C   UNL     1       1.348   7.760  21.195  0.00  0.00    +0.000 A 
ATOM     18  C   UNL     1       0.617   8.943  21.311  0.00  0.00    +0.000 A 
ATOM     19  C   UNL     1      -0.091   9.323  22.524  0.00  0.00    +0.000 A 
ATOM     20  C   UNL     1      -0.735  10.500  22.569  0.00  0.00    +0.000 A 
ATOM     21  C   UNL     1      -0.762  11.435  21.431  0.00  0.00    +0.000 A 
ATOM     22  O   UNL     1      -1.328  12.516  21.521  0.00  0.00    +0.000 OA
ATOM     23  O   UNL     1      -0.133  11.022  20.271  0.00  0.00    +0.000 OA
ATOM     24  C   UNL     1       0.562   9.798  20.217  0.00  0.00    +0.000 A 
ATOM     25  C   UNL     1       1.201   9.500  19.020  0.00  0.00    +0.000 A 
ENDBRANCH  14  15
ENDBRANCH   1  14
TORSDOF 8
ENDMDL
MODEL 9
REMARK VINA RESULT:      -6.7      1.592      2.434
REMARK  Name = 
REMARK  8 active torsions:
REMARK  status: ('A' for Active; 'I' for Inactive)
REMARK    1  A    between atoms: C_2  and  C_3
REMARK    2  A    between atoms: C_3  and  N_4
REMARK    3  A    between atoms: N_4  and  C_5
REMARK    4  A    between atoms: N_4  and  C_19
REMARK    5  A    between atoms: C_5  and  C_6
REMARK    6  A    between atoms: C_6  and  O_7
REMARK    7  A    between atoms: O_7  and  C_8
REMARK    8  A    between atoms: C_19  and  C_20
REMARK                            x       y       z     vdW  Elec       q    Type
REMARK                         _______ _______ _______ _____ _____    ______ ____
ROOT
ATOM      1  C   UNL     1       2.800   6.205  18.075  0.00  0.00    +0.000 C 
ENDROOT
BRANCH   1   2
ATOM      2  C   UNL     1       4.087   5.718  18.754  0.00  0.00    +0.000 C 
BRANCH   2   3
ATOM      3  N   UNL     1       4.700   4.503  18.162  0.00  0.00    +0.000 NA
BRANCH   3   4
ATOM      4  C   UNL     1       5.521   4.788  16.969  0.00  0.00    +0.000 C 
BRANCH   4   6
ATOM      5  C   UNL     1       7.280   6.749  17.378  0.00  0.00    +0.000 C 
ATOM      6  C   UNL     1       6.483   5.876  17.191  0.00  0.00    +0.000 C 
ENDBRANCH   4   6
ENDBRANCH   3   4
BRANCH   3   7
ATOM      7  C   UNL     1       3.686   3.464  17.874  0.00  0.00    +0.000 C 
BRANCH   7   8
ATOM      8  C   UNL     1       2.871   3.083  19.095  0.00  0.00    +0.000 A 
ATOM      9  C   UNL     1       1.472   3.148  19.057  0.00  0.00    +0.000 A 
ATOM     10  C   UNL     1       0.726   2.985  20.224  0.00  0.00    +0.000 A 
ATOM     11  C   UNL     1       1.370   2.728  21.434  0.00  0.00    +0.000 A 
ATOM     12  C   UNL     1       2.757   2.598  21.472  0.00  0.00    +0.000 A 
ATOM     13  C   UNL     1       3.507   2.768  20.307  0.00  0.00    +0.000 A 
ENDBRANCH   7   8
ENDBRANCH   3   7
ENDBRANCH   2   3
ENDBRANCH   1   2
BRANCH   1  14
ATOM     14  O   UNL     1       2.843   7.593  17.726  0.00  0.00    +0.000 OA
BRANCH  14  15
ATOM     15  C   UNL     1       2.030   8.388  18.504  0.00  0.00    +0.000 A 
ATOM     16  C   UNL     1       1.246   9.329  17.828  0.00  0.00    +0.000 A 
ATOM     17  C   UNL     1       0.380  10.181  18.535  0.00  0.00    +0.000 A 
ATOM     18  C   UNL     1       0.287  10.092  19.925  0.00  0.00    +0.000 A 
ATOM     19  C   UNL     1      -0.591  10.940  20.717  0.00  0.00    +0.000 A 
ATOM     20  C   UNL     1      -0.656  10.761  22.045  0.00  0.00    +0.000 A 
ATOM     21  C   UNL     1       0.132   9.734  22.748  0.00  0.00    +0.000 A 
ATOM     22  O   UNL     1       0.019   9.574  23.956  0.00  0.00    +0.000 OA
ATOM     23  O   UNL     1       1.003   8.983  21.980  0.00  0.00    +0.000 OA
ATOM     24  C   UNL     1       1.067   9.149  20.582  0.00  0.00    +0.000 A 
ATOM     25  C   UNL     1       1.938   8.312  19.898  0.00  0.00    +0.000 A 
ENDBRANCH  14  15
ENDBRANCH   1  14
TORSDOF 8
ENDMDL
