MODEL 1
REMARK VINA RESULT:      -7.4      0.000      0.000
REMARK  Name = 
REMARK  4 active torsions:
REMARK  status: ('A' for Active; 'I' for Inactive)
REMARK    1  A    between atoms: C_2  and  O_3
REMARK    2  A    between atoms: C_2  and  C_4
REMARK    3  A    between atoms: C_10  and  C_12
REMARK    4  A    between atoms: C_25  and  C_27
REMARK                            x       y       z     vdW  Elec       q    Type
REMARK                         _______ _______ _______ _____ _____    ______ ____
ROOT
ATOM      1  C   UNL     1      -0.936  10.923  18.678  0.00  0.00    +0.000 C 
ATOM      2  C   UNL     1      -0.123   9.655  18.365  0.00  0.00    +0.000 C 
ATOM      3  C   UNL     1       1.198   9.781  19.148  0.00  0.00    +0.000 C 
ATOM      4  C   UNL     1       2.409   9.440  18.269  0.00  0.00    +0.000 C 
ATOM      5  C   UNL     1       2.453   7.972  17.899  0.00  0.00    +0.000 C 
ATOM      6  N   UNL     1       2.409   7.117  19.081  0.00  0.00    +0.000 N 
ATOM      7  C   UNL     1       3.204   5.981  19.272  0.00  0.00    +0.000 C 
ATOM      8  O   UNL     1       3.252   5.414  20.364  0.00  0.00    +0.000 OA
ATOM      9  C   UNL     1       1.328   7.385  20.028  0.00  0.00    +0.000 C 
ATOM     10  C   UNL     1       1.227   8.871  20.392  0.00  0.00    +0.000 C 
ATOM     11  C   UNL     1       1.273  11.265  19.514  0.00  0.00    +0.000 C 
ATOM     12  N   UNL     1       0.137  11.912  18.875  0.00  0.00    +0.000 N 
ATOM     13  C   UNL     1      -0.090  13.269  18.997  0.00  0.00    +0.000 C 
ATOM     14  O   UNL     1      -1.127  13.785  18.596  0.00  0.00    +0.000 OA
ENDROOT
BRANCH   7  15
ATOM     15  C   UNL     1       4.008   5.493  18.167  0.00  0.00    +0.000 A 
ATOM     16  C   UNL     1       3.752   4.563  17.172  0.00  0.00    +0.000 A 
ATOM     17  C   UNL     1       4.843   4.547  16.272  0.00  0.00    +0.000 A 
ATOM     18  C   UNL     1       5.075   3.900  15.045  0.00  0.00    +0.000 A 
ATOM     19  C   UNL     1       6.309   4.072  14.414  0.00  0.00    +0.000 A 
ATOM     20  C   UNL     1       7.298   4.867  14.992  0.00  0.00    +0.000 A 
ATOM     21  C   UNL     1       7.078   5.533  16.205  0.00  0.00    +0.000 A 
ATOM     22  C   UNL     1       5.829   5.360  16.819  0.00  0.00    +0.000 A 
ATOM     23  N   UNL     1       5.321   5.885  17.982  0.00  0.00    +0.000 N 
ATOM     24  H   UNL     1       5.808   6.516  18.606  0.00  0.00    +0.000 HD
ENDBRANCH   7  15
BRANCH  13  25
ATOM     25  C   UNL     1       0.960  14.101  19.669  0.00  0.00    +0.000 C 
ATOM     26  C   UNL     1       0.904  15.604  19.763  0.00  0.00    +0.000 C 
ATOM     27  C   UNL     1       0.577  14.771  20.968  0.00  0.00    +0.000 C 
ENDBRANCH  13  25
BRANCH   1  29
ATOM     28  O   UNL     1      -3.146  10.436  17.797  0.00  0.00    +0.000 OA
ATOM     29  C   UNL     1      -2.061  10.987  17.624  0.00  0.00    +0.000 C 
BRANCH  29  30
ATOM     30  O   UNL     1      -1.858  11.771  16.554  0.00  0.00    +0.000 OA
ATOM     31  H   UNL     1      -1.615  12.701  16.785  0.00  0.00    +0.000 HD
ENDBRANCH  29  30
ENDBRANCH   1  29
TORSDOF 4
ENDMDL
MODEL 2
REMARK VINA RESULT:      -7.2      0.984      1.074
REMARK  Name = 
REMARK  4 active torsions:
REMARK  status: ('A' for Active; 'I' for Inactive)
REMARK    1  A    between atoms: C_2  and  O_3
REMARK    2  A    between atoms: C_2  and  C_4
REMARK    3  A    between atoms: C_10  and  C_12
REMARK    4  A    between atoms: C_25  and  C_27
REMARK                            x       y       z     vdW  Elec       q    Type
REMARK                         _______ _______ _______ _____ _____    ______ ____
ROOT
ATOM      1  C   UNL     1      -1.068  11.304  19.251  0.00  0.00    +0.000 C 
ATOM      2  C   UNL     1      -0.323   9.989  18.963  0.00  0.00    +0.000 C 
ATOM      3  C   UNL     1       0.861   9.935  19.947  0.00  0.00    +0.000 C 
ATOM      4  C   UNL     1       2.164   9.542  19.239  0.00  0.00    +0.000 C 
ATOM      5  C   UNL     1       2.145   8.105  18.760  0.00  0.00    +0.000 C 
ATOM      6  N   UNL     1       1.842   7.179  19.848  0.00  0.00    +0.000 N 
ATOM      7  C   UNL     1       2.499   5.963  20.064  0.00  0.00    +0.000 C 
ATOM      8  O   UNL     1       2.325   5.320  21.100  0.00  0.00    +0.000 OA
ATOM      9  C   UNL     1       0.650   7.484  20.636  0.00  0.00    +0.000 C 
ATOM     10  C   UNL     1       0.615   8.944  21.101  0.00  0.00    +0.000 C 
ATOM     11  C   UNL     1       0.999  11.377  20.441  0.00  0.00    +0.000 C 
ATOM     12  N   UNL     1       0.038  12.171  19.690  0.00  0.00    +0.000 N 
ATOM     13  C   UNL     1      -0.093  13.533  19.888  0.00  0.00    +0.000 C 
ATOM     14  O   UNL     1      -1.006  14.170  19.377  0.00  0.00    +0.000 OA
ENDROOT
BRANCH   7  15
ATOM     15  C   UNL     1       3.426   5.478  19.058  0.00  0.00    +0.000 A 
ATOM     16  C   UNL     1       3.227   4.880  17.824  0.00  0.00    +0.000 A 
ATOM     17  C   UNL     1       4.483   4.708  17.194  0.00  0.00    +0.000 A 
ATOM     18  C   UNL     1       4.872   4.272  15.915  0.00  0.00    +0.000 A 
ATOM     19  C   UNL     1       6.232   4.179  15.618  0.00  0.00    +0.000 A 
ATOM     20  C   UNL     1       7.192   4.509  16.574  0.00  0.00    +0.000 A 
ATOM     21  C   UNL     1       6.824   4.963  17.847  0.00  0.00    +0.000 A 
ATOM     22  C   UNL     1       5.453   5.061  18.125  0.00  0.00    +0.000 A 
ATOM     23  N   UNL     1       4.795   5.481  19.255  0.00  0.00    +0.000 N 
ATOM     24  H   UNL     1       5.235   5.801  20.109  0.00  0.00    +0.000 HD
ENDBRANCH   7  15
BRANCH  13  25
ATOM     25  C   UNL     1       0.902  14.213  20.779  0.00  0.00    +0.000 C 
ATOM     26  C   UNL     1       0.846  15.678  21.131  0.00  0.00    +0.000 C 
ATOM     27  C   UNL     1       0.415  14.653  22.139  0.00  0.00    +0.000 C 
ENDBRANCH  13  25
BRANCH   1  29
ATOM     28  O   UNL     1      -3.157  11.129  18.025  0.00  0.00    +0.000 OA
ATOM     29  C   UNL     1      -2.001  11.547  18.046  0.00  0.00    +0.000 C 
BRANCH  29  30
ATOM     30  O   UNL     1      -1.545  12.338  17.063  0.00  0.00    +0.000 OA
ATOM     31  H   UNL     1      -1.175  11.838  16.293  0.00  0.00    +0.000 HD
ENDBRANCH  29  30
ENDBRANCH   1  29
TORSDOF 4
ENDMDL
MODEL 3
REMARK VINA RESULT:      -6.8      0.586      1.138
REMARK  Name = 
REMARK  4 active torsions:
REMARK  status: ('A' for Active; 'I' for Inactive)
REMARK    1  A    between atoms: C_2  and  O_3
REMARK    2  A    between atoms: C_2  and  C_4
REMARK    3  A    between atoms: C_10  and  C_12
REMARK    4  A    between atoms: C_25  and  C_27
REMARK                            x       y       z     vdW  Elec       q    Type
REMARK                         _______ _______ _______ _____ _____    ______ ____
ROOT
ATOM      1  C   UNL     1      -1.042  10.983  18.872  0.00  0.00    +0.000 C 
ATOM      2  C   UNL     1      -0.149   9.797  18.468  0.00  0.00    +0.000 C 
ATOM      3  C   UNL     1       1.132   9.908  19.316  0.00  0.00    +0.000 C 
ATOM      4  C   UNL     1       2.392   9.721  18.461  0.00  0.00    +0.000 C 
ATOM      5  C   UNL     1       2.530   8.302  17.947  0.00  0.00    +0.000 C 
ATOM      6  N   UNL     1       2.488   7.329  19.034  0.00  0.00    +0.000 N 
ATOM      7  C   UNL     1       3.335   6.221  19.144  0.00  0.00    +0.000 C 
ATOM      8  O   UNL     1       3.373   5.548  20.174  0.00  0.00    +0.000 OA
ATOM      9  C   UNL     1       1.359   7.444  19.955  0.00  0.00    +0.000 C 
ATOM     10  C   UNL     1       1.162   8.878  20.462  0.00  0.00    +0.000 C 
ATOM     11  C   UNL     1       1.112  11.348  19.833  0.00  0.00    +0.000 C 
ATOM     12  N   UNL     1      -0.032  12.000  19.213  0.00  0.00    +0.000 N 
ATOM     13  C   UNL     1      -0.338  13.324  19.461  0.00  0.00    +0.000 C 
ATOM     14  O   UNL     1      -1.385  13.825  19.070  0.00  0.00    +0.000 OA
ENDROOT
BRANCH   7  15
ATOM     15  C   UNL     1       4.206   5.891  18.031  0.00  0.00    +0.000 A 
ATOM     16  C   UNL     1       5.435   6.394  17.633  0.00  0.00    +0.000 A 
ATOM     17  C   UNL     1       5.904   5.634  16.536  0.00  0.00    +0.000 A 
ATOM     18  C   UNL     1       7.112   5.618  15.817  0.00  0.00    +0.000 A 
ATOM     19  C   UNL     1       7.242   4.746  14.734  0.00  0.00    +0.000 A 
ATOM     20  C   UNL     1       6.190   3.908  14.367  0.00  0.00    +0.000 A 
ATOM     21  C   UNL     1       4.986   3.897  15.082  0.00  0.00    +0.000 A 
ATOM     22  C   UNL     1       4.877   4.770  16.175  0.00  0.00    +0.000 A 
ATOM     23  N   UNL     1       3.848   4.972  17.062  0.00  0.00    +0.000 N 
ATOM     24  H   UNL     1       2.959   4.489  17.054  0.00  0.00    +0.000 HD
ENDBRANCH   7  15
BRANCH  13  25
ATOM     25  C   UNL     1       0.639  14.135  20.259  0.00  0.00    +0.000 C 
ATOM     26  C   UNL     1       0.574  15.635  20.388  0.00  0.00    +0.000 C 
ATOM     27  C   UNL     1       0.127  14.769  21.530  0.00  0.00    +0.000 C 
ENDBRANCH  13  25
BRANCH   1  29
ATOM     28  O   UNL     1      -3.243  10.598  17.919  0.00  0.00    +0.000 OA
ATOM     29  C   UNL     1      -2.128  11.099  17.782  0.00  0.00    +0.000 C 
BRANCH  29  30
ATOM     30  O   UNL     1      -1.855  11.873  16.719  0.00  0.00    +0.000 OA
ATOM     31  H   UNL     1      -1.692  12.820  16.952  0.00  0.00    +0.000 HD
ENDBRANCH  29  30
ENDBRANCH   1  29
TORSDOF 4
ENDMDL
MODEL 4
REMARK VINA RESULT:      -6.8      3.161      4.825
REMARK  Name = 
REMARK  4 active torsions:
REMARK  status: ('A' for Active; 'I' for Inactive)
REMARK    1  A    between atoms: C_2  and  O_3
REMARK    2  A    between atoms: C_2  and  C_4
REMARK    3  A    between atoms: C_10  and  C_12
REMARK    4  A    between atoms: C_25  and  C_27
REMARK                            x       y       z     vdW  Elec       q    Type
REMARK                         _______ _______ _______ _____ _____    ______ ____
ROOT
ATOM      1  C   UNL     1      -0.816  13.275  21.241  0.00  0.00    +0.000 C 
ATOM      2  C   UNL     1       0.072  12.035  21.039  0.00  0.00    +0.000 C 
ATOM      3  C   UNL     1      -0.565  11.227  19.892  0.00  0.00    +0.000 C 
ATOM      4  C   UNL     1      -0.663   9.736  20.240  0.00  0.00    +0.000 C 
ATOM      5  C   UNL     1       0.698   9.075  20.314  0.00  0.00    +0.000 C 
ATOM      6  N   UNL     1       1.461   9.275  19.086  0.00  0.00    +0.000 N 
ATOM      7  C   UNL     1       2.213   8.284  18.445  0.00  0.00    +0.000 C 
ATOM      8  O   UNL     1       2.679   8.465  17.320  0.00  0.00    +0.000 OA
ATOM      9  C   UNL     1       1.575  10.655  18.619  0.00  0.00    +0.000 C 
ATOM     10  C   UNL     1       0.220  11.370  18.573  0.00  0.00    +0.000 C 
ATOM     11  C   UNL     1      -1.985  11.790  19.785  0.00  0.00    +0.000 C 
ATOM     12  N   UNL     1      -2.139  12.746  20.870  0.00  0.00    +0.000 N 
ATOM     13  C   UNL     1      -3.319  13.437  21.068  0.00  0.00    +0.000 C 
ATOM     14  O   UNL     1      -3.398  14.354  21.877  0.00  0.00    +0.000 OA
ENDROOT
BRANCH   7  15
ATOM     15  C   UNL     1       2.411   7.011  19.114  0.00  0.00    +0.000 A 
ATOM     16  C   UNL     1       1.818   6.450  20.234  0.00  0.00    +0.000 A 
ATOM     17  C   UNL     1       2.301   5.128  20.390  0.00  0.00    +0.000 A 
ATOM     18  C   UNL     1       1.971   4.075  21.261  0.00  0.00    +0.000 A 
ATOM     19  C   UNL     1       2.684   2.878  21.174  0.00  0.00    +0.000 A 
ATOM     20  C   UNL     1       3.712   2.730  20.243  0.00  0.00    +0.000 A 
ATOM     21  C   UNL     1       4.043   3.762  19.356  0.00  0.00    +0.000 A 
ATOM     22  C   UNL     1       3.308   4.953  19.448  0.00  0.00    +0.000 A 
ATOM     23  N   UNL     1       3.386   6.115  18.719  0.00  0.00    +0.000 N 
ATOM     24  H   UNL     1       4.031   6.291  17.959  0.00  0.00    +0.000 HD
ENDBRANCH   7  15
BRANCH  13  25
ATOM     25  C   UNL     1      -4.507  13.054  20.238  0.00  0.00    +0.000 C 
ATOM     26  C   UNL     1      -5.699  12.305  20.776  0.00  0.00    +0.000 C 
ATOM     27  C   UNL     1      -5.802  13.780  20.518  0.00  0.00    +0.000 C 
ENDBRANCH  13  25
BRANCH   1  29
ATOM     28  O   UNL     1       0.412  14.778  22.703  0.00  0.00    +0.000 OA
ATOM     29  C   UNL     1      -0.417  13.876  22.606  0.00  0.00    +0.000 C 
BRANCH  29  30
ATOM     30  O   UNL     1      -1.099  13.459  23.685  0.00  0.00    +0.000 OA
ATOM     31  H   UNL     1      -1.839  12.839  23.469  0.00  0.00    +0.000 HD
ENDBRANCH  29  30
ENDBRANCH   1  29
TORSDOF 4
ENDMDL
MODEL 5
REMARK VINA RESULT:      -6.8      3.190      5.369
REMARK  Name = 
REMARK  4 active torsions:
REMARK  status: ('A' for Active; 'I' for Inactive)
REMARK    1  A    between atoms: C_2  and  O_3
REMARK    2  A    between atoms: C_2  and  C_4
REMARK    3  A    between atoms: C_10  and  C_12
REMARK    4  A    between atoms: C_25  and  C_27
REMARK                            x       y       z     vdW  Elec       q    Type
REMARK                         _______ _______ _______ _____ _____    ______ ____
ROOT
ATOM      1  C   UNL     1      -3.181  13.174  20.814  0.00  0.00    +0.000 C 
ATOM      2  C   UNL     1      -2.001  12.194  20.696  0.00  0.00    +0.000 C 
ATOM      3  C   UNL     1      -1.987  11.704  19.235  0.00  0.00    +0.000 C 
ATOM      4  C   UNL     1      -1.826  10.180  19.153  0.00  0.00    +0.000 C 
ATOM      5  C   UNL     1      -0.455   9.724  19.605  0.00  0.00    +0.000 C 
ATOM      6  N   UNL     1       0.608  10.401  18.868  0.00  0.00    +0.000 N 
ATOM      7  C   UNL     1       1.754   9.773  18.367  0.00  0.00    +0.000 C 
ATOM      8  O   UNL     1       2.516  10.359  17.598  0.00  0.00    +0.000 OA
ATOM      9  C   UNL     1       0.531  11.860  18.825  0.00  0.00    +0.000 C 
ATOM     10  C   UNL     1      -0.859  12.358  18.413  0.00  0.00    +0.000 C 
ATOM     11  C   UNL     1      -3.376  12.070  18.707  0.00  0.00    +0.000 C 
ATOM     12  N   UNL     1      -4.123  12.609  19.833  0.00  0.00    +0.000 N 
ATOM     13  C   UNL     1      -5.432  13.034  19.701  0.00  0.00    +0.000 C 
ATOM     14  O   UNL     1      -6.006  13.633  20.603  0.00  0.00    +0.000 OA
ENDROOT
BRANCH   7  15
ATOM     15  C   UNL     1       2.018   8.395  18.739  0.00  0.00    +0.000 A 
ATOM     16  C   UNL     1       1.982   7.740  19.960  0.00  0.00    +0.000 A 
ATOM     17  C   UNL     1       2.216   6.361  19.743  0.00  0.00    +0.000 A 
ATOM     18  C   UNL     1       2.181   5.232  20.579  0.00  0.00    +0.000 A 
ATOM     19  C   UNL     1       2.509   3.985  20.045  0.00  0.00    +0.000 A 
ATOM     20  C   UNL     1       2.872   3.860  18.704  0.00  0.00    +0.000 A 
ATOM     21  C   UNL     1       2.896   4.972  17.852  0.00  0.00    +0.000 A 
ATOM     22  C   UNL     1       2.551   6.215  18.402  0.00  0.00    +0.000 A 
ATOM     23  N   UNL     1       2.467   7.459  17.826  0.00  0.00    +0.000 N 
ATOM     24  H   UNL     1       2.656   7.672  16.855  0.00  0.00    +0.000 HD
ENDBRANCH   7  15
BRANCH  13  25
ATOM     25  C   UNL     1      -6.130  12.769  18.401  0.00  0.00    +0.000 C 
ATOM     26  C   UNL     1      -6.947  11.533  18.127  0.00  0.00    +0.000 C 
ATOM     27  C   UNL     1      -7.639  12.835  18.409  0.00  0.00    +0.000 C 
ENDBRANCH  13  25
BRANCH   1  29
ATOM     28  O   UNL     1      -3.367  14.472  22.859  0.00  0.00    +0.000 OA
ATOM     29  C   UNL     1      -3.435  13.367  22.324  0.00  0.00    +0.000 C 
BRANCH  29  30
ATOM     30  O   UNL     1      -3.854  12.298  23.020  0.00  0.00    +0.000 OA
ATOM     31  H   UNL     1      -3.698  12.375  23.994  0.00  0.00    +0.000 HD
ENDBRANCH  29  30
ENDBRANCH   1  29
TORSDOF 4
ENDMDL
MODEL 6
REMARK VINA RESULT:      -6.7      3.266      5.320
REMARK  Name = 
REMARK  4 active torsions:
REMARK  status: ('A' for Active; 'I' for Inactive)
REMARK    1  A    between atoms: C_2  and  O_3
REMARK    2  A    between atoms: C_2  and  C_4
REMARK    3  A    between atoms: C_10  and  C_12
REMARK    4  A    between atoms: C_25  and  C_27
REMARK                            x       y       z     vdW  Elec       q    Type
REMARK                         _______ _______ _______ _____ _____    ______ ____
ROOT
ATOM      1  C   UNL     1      -3.108  13.040  21.201  0.00  0.00    +0.000 C 
ATOM      2  C   UNL     1      -1.901  12.128  20.919  0.00  0.00    +0.000 C 
ATOM      3  C   UNL     1      -1.905  11.861  19.402  0.00  0.00    +0.000 C 
ATOM      4  C   UNL     1      -1.700  10.372  19.092  0.00  0.00    +0.000 C 
ATOM      5  C   UNL     1      -0.306   9.899  19.447  0.00  0.00    +0.000 C 
ATOM      6  N   UNL     1       0.719  10.712  18.800  0.00  0.00    +0.000 N 
ATOM      7  C   UNL     1       1.872  10.204  18.191  0.00  0.00    +0.000 C 
ATOM      8  O   UNL     1       2.599  10.921  17.504  0.00  0.00    +0.000 OA
ATOM      9  C   UNL     1       0.597  12.158  18.975  0.00  0.00    +0.000 C 
ATOM     10  C   UNL     1      -0.816  12.666  18.666  0.00  0.00    +0.000 C 
ATOM     11  C   UNL     1      -3.316  12.254  18.958  0.00  0.00    +0.000 C 
ATOM     12  N   UNL     1      -4.054  12.596  20.165  0.00  0.00    +0.000 N 
ATOM     13  C   UNL     1      -5.377  12.992  20.120  0.00  0.00    +0.000 C 
ATOM     14  O   UNL     1      -5.949  13.432  21.110  0.00  0.00    +0.000 OA
ENDROOT
BRANCH   7  15
ATOM     15  C   UNL     1       2.187   8.796  18.350  0.00  0.00    +0.000 A 
ATOM     16  C   UNL     1       2.740   7.865  17.484  0.00  0.00    +0.000 A 
ATOM     17  C   UNL     1       2.937   6.652  18.187  0.00  0.00    +0.000 A 
ATOM     18  C   UNL     1       3.555   5.433  17.856  0.00  0.00    +0.000 A 
ATOM     19  C   UNL     1       3.544   4.395  18.790  0.00  0.00    +0.000 A 
ATOM     20  C   UNL     1       2.926   4.561  20.029  0.00  0.00    +0.000 A 
ATOM     21  C   UNL     1       2.321   5.775  20.383  0.00  0.00    +0.000 A 
ATOM     22  C   UNL     1       2.352   6.811  19.438  0.00  0.00    +0.000 A 
ATOM     23  N   UNL     1       1.869   8.095  19.498  0.00  0.00    +0.000 N 
ATOM     24  H   UNL     1       1.386   8.506  20.287  0.00  0.00    +0.000 HD
ENDBRANCH   7  15
BRANCH  13  25
ATOM     25  C   UNL     1      -6.096  12.899  18.807  0.00  0.00    +0.000 C 
ATOM     26  C   UNL     1      -7.592  13.013  18.662  0.00  0.00    +0.000 C 
ATOM     27  C   UNL     1      -6.716  14.169  18.275  0.00  0.00    +0.000 C 
ENDBRANCH  13  25
BRANCH   1  29
ATOM     28  O   UNL     1      -2.782  13.793  23.488  0.00  0.00    +0.000 OA
ATOM     29  C   UNL     1      -3.334  13.000  22.728  0.00  0.00    +0.000 C 
BRANCH  29  30
ATOM     30  O   UNL     1      -4.252  12.138  23.192  0.00  0.00    +0.000 OA
ATOM     31  H   UNL     1      -3.861  11.350  23.644  0.00  0.00    +0.000 HD
ENDBRANCH  29  30
ENDBRANCH   1  29
TORSDOF 4
ENDMDL
MODEL 7
REMARK VINA RESULT:      -6.6      1.219      1.643
REMARK  Name = 
REMARK  4 active torsions:
REMARK  status: ('A' for Active; 'I' for Inactive)
REMARK    1  A    between atoms: C_2  and  O_3
REMARK    2  A    between atoms: C_2  and  C_4
REMARK    3  A    between atoms: C_10  and  C_12
REMARK    4  A    between atoms: C_25  and  C_27
REMARK                            x       y       z     vdW  Elec       q    Type
REMARK                         _______ _______ _______ _____ _____    ______ ____
ROOT
ATOM      1  C   UNL     1      -1.303  11.131  19.429  0.00  0.00    +0.000 C 
ATOM      2  C   UNL     1      -0.444   9.898  19.098  0.00  0.00    +0.000 C 
ATOM      3  C   UNL     1       0.643   9.821  20.187  0.00  0.00    +0.000 C 
ATOM      4  C   UNL     1       2.032   9.579  19.581  0.00  0.00    +0.000 C 
ATOM      5  C   UNL     1       2.159   8.197  18.974  0.00  0.00    +0.000 C 
ATOM      6  N   UNL     1       1.821   7.153  19.937  0.00  0.00    +0.000 N 
ATOM      7  C   UNL     1       2.538   5.964  20.107  0.00  0.00    +0.000 C 
ATOM      8  O   UNL     1       2.313   5.214  21.057  0.00  0.00    +0.000 OA
ATOM      9  C   UNL     1       0.541   7.306  20.626  0.00  0.00    +0.000 C 
ATOM     10  C   UNL     1       0.359   8.710  21.216  0.00  0.00    +0.000 C 
ATOM     11  C   UNL     1       0.632  11.214  20.822  0.00  0.00    +0.000 C 
ATOM     12  N   UNL     1      -0.307  12.017  20.054  0.00  0.00    +0.000 N 
ATOM     13  C   UNL     1      -0.552  13.342  20.360  0.00  0.00    +0.000 C 
ATOM     14  O   UNL     1      -1.455  13.969  19.820  0.00  0.00    +0.000 OA
ENDROOT
BRANCH   7  15
ATOM     15  C   UNL     1       3.588   5.637  19.160  0.00  0.00    +0.000 A 
ATOM     16  C   UNL     1       4.967   5.761  19.224  0.00  0.00    +0.000 A 
ATOM     17  C   UNL     1       5.530   5.181  18.062  0.00  0.00    +0.000 A 
ATOM     18  C   UNL     1       6.850   4.923  17.653  0.00  0.00    +0.000 A 
ATOM     19  C   UNL     1       7.070   4.357  16.396  0.00  0.00    +0.000 A 
ATOM     20  C   UNL     1       5.998   4.058  15.555  0.00  0.00    +0.000 A 
ATOM     21  C   UNL     1       4.675   4.292  15.953  0.00  0.00    +0.000 A 
ATOM     22  C   UNL     1       4.472   4.848  17.224  0.00  0.00    +0.000 A 
ATOM     23  N   UNL     1       3.314   5.171  17.888  0.00  0.00    +0.000 N 
ATOM     24  H   UNL     1       2.375   5.046  17.530  0.00  0.00    +0.000 HD
ENDBRANCH   7  15
BRANCH  13  25
ATOM     25  C   UNL     1       0.305  13.993  21.405  0.00  0.00    +0.000 C 
ATOM     26  C   UNL     1       0.184  15.441  21.803  0.00  0.00    +0.000 C 
ATOM     27  C   UNL     1      -0.369  14.374  22.702  0.00  0.00    +0.000 C 
ENDBRANCH  13  25
BRANCH   1  29
ATOM     28  O   UNL     1      -3.277  11.005  18.019  0.00  0.00    +0.000 OA
ATOM     29  C   UNL     1      -2.133  11.432  18.163  0.00  0.00    +0.000 C 
BRANCH  29  30
ATOM     30  O   UNL     1      -1.605  12.282  17.268  0.00  0.00    +0.000 OA
ATOM     31  H   UNL     1      -2.276  12.687  16.664  0.00  0.00    +0.000 HD
ENDBRANCH  29  30
ENDBRANCH   1  29
TORSDOF 4
ENDMDL
MODEL 8
REMARK VINA RESULT:      -6.6      1.277      1.636
REMARK  Name = 
REMARK  4 active torsions:
REMARK  status: ('A' for Active; 'I' for Inactive)
REMARK    1  A    between atoms: C_2  and  O_3
REMARK    2  A    between atoms: C_2  and  C_4
REMARK    3  A    between atoms: C_10  and  C_12
REMARK    4  A    between atoms: C_25  and  C_27
REMARK                            x       y       z     vdW  Elec       q    Type
REMARK                         _______ _______ _______ _____ _____    ______ ____
ROOT
ATOM      1  C   UNL     1      -1.430  11.698  19.703  0.00  0.00    +0.000 C 
ATOM      2  C   UNL     1      -0.663  10.445  19.246  0.00  0.00    +0.000 C 
ATOM      3  C   UNL     1       0.693  10.476  19.977  0.00  0.00    +0.000 C 
ATOM      4  C   UNL     1       1.856  10.187  19.019  0.00  0.00    +0.000 C 
ATOM      5  C   UNL     1       1.848   8.756  18.522  0.00  0.00    +0.000 C 
ATOM      6  N   UNL     1       1.834   7.803  19.628  0.00  0.00    +0.000 N 
ATOM      7  C   UNL     1       2.608   6.638  19.685  0.00  0.00    +0.000 C 
ATOM      8  O   UNL     1       2.689   5.978  20.721  0.00  0.00    +0.000 OA
ATOM      9  C   UNL     1       0.801   8.011  20.642  0.00  0.00    +0.000 C 
ATOM     10  C   UNL     1       0.752   9.461  21.136  0.00  0.00    +0.000 C 
ATOM     11  C   UNL     1       0.820  11.921  20.466  0.00  0.00    +0.000 C 
ATOM     12  N   UNL     1      -0.326  12.644  19.935  0.00  0.00    +0.000 N 
ATOM     13  C   UNL     1      -0.515  13.990  20.184  0.00  0.00    +0.000 C 
ATOM     14  O   UNL     1      -1.554  14.560  19.875  0.00  0.00    +0.000 OA
ENDROOT
BRANCH   7  15
ATOM     15  C   UNL     1       3.352   6.232  18.507  0.00  0.00    +0.000 A 
ATOM     16  C   UNL     1       3.923   6.958  17.474  0.00  0.00    +0.000 A 
ATOM     17  C   UNL     1       4.636   6.070  16.634  0.00  0.00    +0.000 A 
ATOM     18  C   UNL     1       5.483   6.257  15.528  0.00  0.00    +0.000 A 
ATOM     19  C   UNL     1       6.010   5.136  14.883  0.00  0.00    +0.000 A 
ATOM     20  C   UNL     1       5.696   3.851  15.325  0.00  0.00    +0.000 A 
ATOM     21  C   UNL     1       4.868   3.646  16.436  0.00  0.00    +0.000 A 
ATOM     22  C   UNL     1       4.358   4.783  17.079  0.00  0.00    +0.000 A 
ATOM     23  N   UNL     1       3.549   4.903  18.182  0.00  0.00    +0.000 N 
ATOM     24  H   UNL     1       3.177   4.135  18.726  0.00  0.00    +0.000 HD
ENDBRANCH   7  15
BRANCH  13  25
ATOM     25  C   UNL     1       0.584  14.739  20.877  0.00  0.00    +0.000 C 
ATOM     26  C   UNL     1       0.483  16.186  21.284  0.00  0.00    +0.000 C 
ATOM     27  C   UNL     1       0.354  15.110  22.323  0.00  0.00    +0.000 C 
ENDBRANCH  13  25
BRANCH   1  29
ATOM     28  O   UNL     1      -2.573  11.389  17.582  0.00  0.00    +0.000 OA
ATOM     29  C   UNL     1      -2.598  11.877  18.710  0.00  0.00    +0.000 C 
BRANCH  29  30
ATOM     30  O   UNL     1      -3.703  12.489  19.163  0.00  0.00    +0.000 OA
ATOM     31  H   UNL     1      -3.804  13.417  18.836  0.00  0.00    +0.000 HD
ENDBRANCH  29  30
ENDBRANCH   1  29
TORSDOF 4
ENDMDL
MODEL 9
REMARK VINA RESULT:      -6.4      1.220      1.410
REMARK  Name = 
REMARK  4 active torsions:
REMARK  status: ('A' for Active; 'I' for Inactive)
REMARK    1  A    between atoms: C_2  and  O_3
REMARK    2  A    between atoms: C_2  and  C_4
REMARK    3  A    between atoms: C_10  and  C_12
REMARK    4  A    between atoms: C_25  and  C_27
REMARK                            x       y       z     vdW  Elec       q    Type
REMARK                         _______ _______ _______ _____ _____    ______ ____
ROOT
ATOM      1  C   UNL     1      -1.345  11.556  19.676  0.00  0.00    +0.000 C 
ATOM      2  C   UNL     1      -0.618  10.255  19.294  0.00  0.00    +0.000 C 
ATOM      3  C   UNL     1       0.692  10.236  20.105  0.00  0.00    +0.000 C 
ATOM      4  C   UNL     1       1.893   9.865  19.226  0.00  0.00    +0.000 C 
ATOM      5  C   UNL     1       1.841   8.424  18.762  0.00  0.00    +0.000 C 
ATOM      6  N   UNL     1       1.712   7.501  19.886  0.00  0.00    +0.000 N 
ATOM      7  C   UNL     1       2.420   6.301  20.016  0.00  0.00    +0.000 C 
ATOM      8  O   UNL     1       2.405   5.663  21.069  0.00  0.00    +0.000 OA
ATOM      9  C   UNL     1       0.633   7.786  20.830  0.00  0.00    +0.000 C 
ATOM     10  C   UNL     1       0.630   9.249  21.288  0.00  0.00    +0.000 C 
ATOM     11  C   UNL     1       0.864  11.684  20.568  0.00  0.00    +0.000 C 
ATOM     12  N   UNL     1      -0.209  12.451  19.953  0.00  0.00    +0.000 N 
ATOM     13  C   UNL     1      -0.342  13.811  20.159  0.00  0.00    +0.000 C 
ATOM     14  O   UNL     1      -1.331  14.424  19.776  0.00  0.00    +0.000 OA
ENDROOT
BRANCH   7  15
ATOM     15  C   UNL     1       3.210   5.827  18.894  0.00  0.00    +0.000 A 
ATOM     16  C   UNL     1       3.527   4.552  18.455  0.00  0.00    +0.000 A 
ATOM     17  C   UNL     1       4.239   4.654  17.236  0.00  0.00    +0.000 A 
ATOM     18  C   UNL     1       4.700   3.709  16.303  0.00  0.00    +0.000 A 
ATOM     19  C   UNL     1       5.421   4.151  15.193  0.00  0.00    +0.000 A 
ATOM     20  C   UNL     1       5.687   5.508  15.013  0.00  0.00    +0.000 A 
ATOM     21  C   UNL     1       5.220   6.466  15.923  0.00  0.00    +0.000 A 
ATOM     22  C   UNL     1       4.486   6.006  17.026  0.00  0.00    +0.000 A 
ATOM     23  N   UNL     1       3.895   6.691  18.059  0.00  0.00    +0.000 N 
ATOM     24  H   UNL     1       3.905   7.695  18.183  0.00  0.00    +0.000 HD
ENDBRANCH   7  15
BRANCH  13  25
ATOM     25  C   UNL     1       0.751  14.520  20.901  0.00  0.00    +0.000 C 
ATOM     26  C   UNL     1       0.734  15.996  21.205  0.00  0.00    +0.000 C 
ATOM     27  C   UNL     1       0.428  15.009  22.293  0.00  0.00    +0.000 C 
ENDBRANCH  13  25
BRANCH   1  29
ATOM     28  O   UNL     1      -2.412  11.194  17.523  0.00  0.00    +0.000 OA
ATOM     29  C   UNL     1      -2.441  11.768  18.610  0.00  0.00    +0.000 C 
BRANCH  29  30
ATOM     30  O   UNL     1      -3.501  12.516  18.957  0.00  0.00    +0.000 OA
ATOM     31  H   UNL     1      -4.348  12.008  18.993  0.00  0.00    +0.000 HD
ENDBRANCH  29  30
ENDBRANCH   1  29
TORSDOF 4
ENDMDL
