MODEL 1
REMARK VINA RESULT:      -7.7      0.000      0.000
REMARK  Name = 
REMARK  4 active torsions:
REMARK  status: ('A' for Active; 'I' for Inactive)
REMARK    1  A    between atoms: C_1  and  C_2
REMARK    2  A    between atoms: C_6  and  O_7
REMARK    3  A    between atoms: C_13  and  O_14
REMARK    4  A    between atoms: O_14  and  C_15
REMARK                            x       y       z     vdW  Elec       q    Type
REMARK                         _______ _______ _______ _____ _____    ______ ____
ROOT
ATOM      1  C   UNL     1       2.153   8.006  17.882  0.00  0.00    +0.000 C 
ATOM      2  C   UNL     1       3.337   7.086  17.894  0.00  0.00    +0.000 A 
ATOM      3  O   UNL     1       4.123   7.208  16.752  0.00  0.00    +0.000 OA
ATOM      4  C   UNL     1       5.085   6.260  16.525  0.00  0.00    +0.000 A 
ATOM      5  C   UNL     1       5.657   6.200  15.256  0.00  0.00    +0.000 A 
ATOM      6  C   UNL     1       6.633   5.238  14.997  0.00  0.00    +0.000 A 
ATOM      7  C   UNL     1       7.041   4.341  15.981  0.00  0.00    +0.000 A 
ATOM      8  C   UNL     1       6.482   4.417  17.254  0.00  0.00    +0.000 A 
ATOM      9  C   UNL     1       5.506   5.384  17.518  0.00  0.00    +0.000 A 
ATOM     10  C   UNL     1       4.918   5.511  18.850  0.00  0.00    +0.000 A 
ATOM     11  O   UNL     1       5.489   5.038  19.824  0.00  0.00    +0.000 OA
ATOM     12  C   UNL     1       3.611   6.249  18.914  0.00  0.00    +0.000 A 
ENDROOT
BRANCH   6  13
ATOM     13  O   UNL     1       7.229   5.142  13.775  0.00  0.00    +0.000 OA
ATOM     14  H   UNL     1       8.168   5.385  13.859  0.00  0.00    +0.000 HD
ENDBRANCH   6  13
BRANCH  12  15
ATOM     15  O   UNL     1       2.740   6.093  19.998  0.00  0.00    +0.000 OA
BRANCH  15  16
ATOM     16  C   UNL     1       2.131   4.866  20.168  0.00  0.00    +0.000 A 
ATOM     17  C   UNL     1       2.264   4.243  21.410  0.00  0.00    +0.000 A 
ATOM     18  C   UNL     1       1.791   2.939  21.583  0.00  0.00    +0.000 A 
ATOM     19  C   UNL     1       1.187   2.264  20.521  0.00  0.00    +0.000 A 
ATOM     20  C   UNL     1       0.987   2.915  19.306  0.00  0.00    +0.000 A 
ATOM     21  C   UNL     1       1.426   4.230  19.133  0.00  0.00    +0.000 A 
ENDBRANCH  15  16
ENDBRANCH  12  15
TORSDOF 3
ENDMDL
MODEL 2
REMARK VINA RESULT:      -7.4      0.171      1.095
REMARK  Name = 
REMARK  4 active torsions:
REMARK  status: ('A' for Active; 'I' for Inactive)
REMARK    1  A    between atoms: C_1  and  C_2
REMARK    2  A    between atoms: C_6  and  O_7
REMARK    3  A    between atoms: C_13  and  O_14
REMARK    4  A    between atoms: O_14  and  C_15
REMARK                            x       y       z     vdW  Elec       q    Type
REMARK                         _______ _______ _______ _____ _____    ______ ____
ROOT
ATOM      1  C   UNL     1       2.188   7.860  17.913  0.00  0.00    +0.000 C 
ATOM      2  C   UNL     1       3.408   6.988  17.900  0.00  0.00    +0.000 A 
ATOM      3  O   UNL     1       4.151   7.125  16.730  0.00  0.00    +0.000 OA
ATOM      4  C   UNL     1       5.143   6.212  16.486  0.00  0.00    +0.000 A 
ATOM      5  C   UNL     1       5.675   6.156  15.199  0.00  0.00    +0.000 A 
ATOM      6  C   UNL     1       6.680   5.229  14.922  0.00  0.00    +0.000 A 
ATOM      7  C   UNL     1       7.155   4.364  15.904  0.00  0.00    +0.000 A 
ATOM      8  C   UNL     1       6.635   4.437  17.194  0.00  0.00    +0.000 A 
ATOM      9  C   UNL     1       5.630   5.368  17.476  0.00  0.00    +0.000 A 
ATOM     10  C   UNL     1       5.081   5.492  18.825  0.00  0.00    +0.000 A 
ATOM     11  O   UNL     1       5.701   5.057  19.786  0.00  0.00    +0.000 OA
ATOM     12  C   UNL     1       3.748   6.178  18.921  0.00  0.00    +0.000 A 
ENDROOT
BRANCH   6  13
ATOM     13  O   UNL     1       7.240   5.139  13.682  0.00  0.00    +0.000 OA
ATOM     14  H   UNL     1       7.028   4.270  13.300  0.00  0.00    +0.000 HD
ENDBRANCH   6  13
BRANCH  12  15
ATOM     15  O   UNL     1       2.919   6.004  20.035  0.00  0.00    +0.000 OA
BRANCH  15  16
ATOM     16  C   UNL     1       2.342   4.764  20.226  0.00  0.00    +0.000 A 
ATOM     17  C   UNL     1       1.620   4.214  19.165  0.00  0.00    +0.000 A 
ATOM     18  C   UNL     1       0.899   3.032  19.360  0.00  0.00    +0.000 A 
ATOM     19  C   UNL     1       0.904   2.404  20.606  0.00  0.00    +0.000 A 
ATOM     20  C   UNL     1       1.686   2.913  21.640  0.00  0.00    +0.000 A 
ATOM     21  C   UNL     1       2.436   4.075  21.446  0.00  0.00    +0.000 A 
ENDBRANCH  15  16
ENDBRANCH  12  15
TORSDOF 3
ENDMDL
MODEL 3
REMARK VINA RESULT:      -7.3      1.850      6.446
REMARK  Name = 
REMARK  4 active torsions:
REMARK  status: ('A' for Active; 'I' for Inactive)
REMARK    1  A    between atoms: C_1  and  C_2
REMARK    2  A    between atoms: C_6  and  O_7
REMARK    3  A    between atoms: C_13  and  O_14
REMARK    4  A    between atoms: O_14  and  C_15
REMARK                            x       y       z     vdW  Elec       q    Type
REMARK                         _______ _______ _______ _____ _____    ______ ____
ROOT
ATOM      1  C   UNL     1       7.913   4.372  17.763  0.00  0.00    +0.000 C 
ATOM      2  C   UNL     1       6.456   4.726  17.810  0.00  0.00    +0.000 A 
ATOM      3  O   UNL     1       5.800   4.153  18.896  0.00  0.00    +0.000 OA
ATOM      4  C   UNL     1       4.431   4.192  18.917  0.00  0.00    +0.000 A 
ATOM      5  C   UNL     1       3.768   3.368  19.824  0.00  0.00    +0.000 A 
ATOM      6  C   UNL     1       2.374   3.384  19.860  0.00  0.00    +0.000 A 
ATOM      7  C   UNL     1       1.639   4.204  19.008  0.00  0.00    +0.000 A 
ATOM      8  C   UNL     1       2.306   5.040  18.116  0.00  0.00    +0.000 A 
ATOM      9  C   UNL     1       3.704   5.031  18.081  0.00  0.00    +0.000 A 
ATOM     10  C   UNL     1       4.437   5.916  17.179  0.00  0.00    +0.000 A 
ATOM     11  O   UNL     1       3.891   6.903  16.704  0.00  0.00    +0.000 OA
ATOM     12  C   UNL     1       5.861   5.527  16.904  0.00  0.00    +0.000 A 
ENDROOT
BRANCH   6  13
ATOM     13  O   UNL     1       1.678   2.603  20.734  0.00  0.00    +0.000 OA
ATOM     14  H   UNL     1       1.157   3.173  21.325  0.00  0.00    +0.000 HD
ENDBRANCH   6  13
BRANCH  12  15
ATOM     15  O   UNL     1       6.542   6.002  15.777  0.00  0.00    +0.000 OA
BRANCH  15  16
ATOM     16  C   UNL     1       6.578   5.196  14.656  0.00  0.00    +0.000 A 
ATOM     17  C   UNL     1       7.623   5.391  13.751  0.00  0.00    +0.000 A 
ATOM     18  C   UNL     1       7.621   4.703  12.534  0.00  0.00    +0.000 A 
ATOM     19  C   UNL     1       6.581   3.823  12.227  0.00  0.00    +0.000 A 
ATOM     20  C   UNL     1       5.581   3.573  13.163  0.00  0.00    +0.000 A 
ATOM     21  C   UNL     1       5.592   4.231  14.395  0.00  0.00    +0.000 A 
ENDBRANCH  15  16
ENDBRANCH  12  15
TORSDOF 3
ENDMDL
MODEL 4
REMARK VINA RESULT:      -7.3      2.191      5.904
REMARK  Name = 
REMARK  4 active torsions:
REMARK  status: ('A' for Active; 'I' for Inactive)
REMARK    1  A    between atoms: C_1  and  C_2
REMARK    2  A    between atoms: C_6  and  O_7
REMARK    3  A    between atoms: C_13  and  O_14
REMARK    4  A    between atoms: O_14  and  C_15
REMARK                            x       y       z     vdW  Elec       q    Type
REMARK                         _______ _______ _______ _____ _____    ______ ____
ROOT
ATOM      1  C   UNL     1       2.787   7.810  17.923  0.00  0.00    +0.000 C 
ATOM      2  C   UNL     1       2.929   6.340  18.186  0.00  0.00    +0.000 A 
ATOM      3  O   UNL     1       1.992   5.866  19.099  0.00  0.00    +0.000 OA
ATOM      4  C   UNL     1       2.168   4.607  19.610  0.00  0.00    +0.000 A 
ATOM      5  C   UNL     1       1.424   4.249  20.733  0.00  0.00    +0.000 A 
ATOM      6  C   UNL     1       1.591   2.976  21.277  0.00  0.00    +0.000 A 
ATOM      7  C   UNL     1       2.485   2.064  20.721  0.00  0.00    +0.000 A 
ATOM      8  C   UNL     1       3.212   2.419  19.588  0.00  0.00    +0.000 A 
ATOM      9  C   UNL     1       3.043   3.693  19.036  0.00  0.00    +0.000 A 
ATOM     10  C   UNL     1       3.767   4.090  17.830  0.00  0.00    +0.000 A 
ATOM     11  O   UNL     1       4.249   3.241  17.093  0.00  0.00    +0.000 OA
ATOM     12  C   UNL     1       3.857   5.569  17.585  0.00  0.00    +0.000 A 
ENDROOT
BRANCH   6  13
ATOM     13  O   UNL     1       0.882   2.572  22.370  0.00  0.00    +0.000 OA
ATOM     14  H   UNL     1       0.786   3.323  22.982  0.00  0.00    +0.000 HD
ENDBRANCH   6  13
BRANCH  12  15
ATOM     15  O   UNL     1       4.838   6.110  16.747  0.00  0.00    +0.000 OA
BRANCH  15  16
ATOM     16  C   UNL     1       6.048   6.464  17.311  0.00  0.00    +0.000 A 
ATOM     17  C   UNL     1       6.613   5.585  18.237  0.00  0.00    +0.000 A 
ATOM     18  C   UNL     1       7.759   5.967  18.941  0.00  0.00    +0.000 A 
ATOM     19  C   UNL     1       8.337   7.217  18.716  0.00  0.00    +0.000 A 
ATOM     20  C   UNL     1       7.817   8.059  17.736  0.00  0.00    +0.000 A 
ATOM     21  C   UNL     1       6.691   7.674  17.005  0.00  0.00    +0.000 A 
ENDBRANCH  15  16
ENDBRANCH  12  15
TORSDOF 3
ENDMDL
MODEL 5
REMARK VINA RESULT:      -7.2      1.349      1.561
REMARK  Name = 
REMARK  4 active torsions:
REMARK  status: ('A' for Active; 'I' for Inactive)
REMARK    1  A    between atoms: C_1  and  C_2
REMARK    2  A    between atoms: C_6  and  O_7
REMARK    3  A    between atoms: C_13  and  O_14
REMARK    4  A    between atoms: O_14  and  C_15
REMARK                            x       y       z     vdW  Elec       q    Type
REMARK                         _______ _______ _______ _____ _____    ______ ____
ROOT
ATOM      1  C   UNL     1       2.883   7.724  18.199  0.00  0.00    +0.000 C 
ATOM      2  C   UNL     1       3.553   6.510  17.627  0.00  0.00    +0.000 A 
ATOM      3  O   UNL     1       4.774   6.804  17.028  0.00  0.00    +0.000 OA
ATOM      4  C   UNL     1       5.365   5.838  16.257  0.00  0.00    +0.000 A 
ATOM      5  C   UNL     1       6.411   6.219  15.420  0.00  0.00    +0.000 A 
ATOM      6  C   UNL     1       7.024   5.256  14.620  0.00  0.00    +0.000 A 
ATOM      7  C   UNL     1       6.607   3.927  14.642  0.00  0.00    +0.000 A 
ATOM      8  C   UNL     1       5.574   3.546  15.495  0.00  0.00    +0.000 A 
ATOM      9  C   UNL     1       4.961   4.509  16.303  0.00  0.00    +0.000 A 
ATOM     10  C   UNL     1       3.894   4.140  17.230  0.00  0.00    +0.000 A 
ATOM     11  O   UNL     1       3.753   2.974  17.576  0.00  0.00    +0.000 OA
ATOM     12  C   UNL     1       3.028   5.271  17.707  0.00  0.00    +0.000 A 
ENDROOT
BRANCH   6  13
ATOM     13  O   UNL     1       8.057   5.575  13.789  0.00  0.00    +0.000 OA
ATOM     14  H   UNL     1       8.810   5.883  14.322  0.00  0.00    +0.000 HD
ENDBRANCH   6  13
BRANCH  12  15
ATOM     15  O   UNL     1       1.753   5.040  18.235  0.00  0.00    +0.000 OA
BRANCH  15  16
ATOM     16  C   UNL     1       1.659   4.314  19.406  0.00  0.00    +0.000 A 
ATOM     17  C   UNL     1       2.305   4.819  20.535  0.00  0.00    +0.000 A 
ATOM     18  C   UNL     1       2.361   4.049  21.700  0.00  0.00    +0.000 A 
ATOM     19  C   UNL     1       1.772   2.784  21.736  0.00  0.00    +0.000 A 
ATOM     20  C   UNL     1       1.063   2.316  20.632  0.00  0.00    +0.000 A 
ATOM     21  C   UNL     1       0.973   3.091  19.475  0.00  0.00    +0.000 A 
ENDBRANCH  15  16
ENDBRANCH  12  15
TORSDOF 3
ENDMDL
MODEL 6
REMARK VINA RESULT:      -7.1      1.861      6.385
REMARK  Name = 
REMARK  4 active torsions:
REMARK  status: ('A' for Active; 'I' for Inactive)
REMARK    1  A    between atoms: C_1  and  C_2
REMARK    2  A    between atoms: C_6  and  O_7
REMARK    3  A    between atoms: C_13  and  O_14
REMARK    4  A    between atoms: O_14  and  C_15
REMARK                            x       y       z     vdW  Elec       q    Type
REMARK                         _______ _______ _______ _____ _____    ______ ____
ROOT
ATOM      1  C   UNL     1       7.930   4.346  17.795  0.00  0.00    +0.000 C 
ATOM      2  C   UNL     1       6.472   4.693  17.830  0.00  0.00    +0.000 A 
ATOM      3  O   UNL     1       5.806   4.099  18.898  0.00  0.00    +0.000 OA
ATOM      4  C   UNL     1       4.436   4.132  18.903  0.00  0.00    +0.000 A 
ATOM      5  C   UNL     1       3.766   3.289  19.788  0.00  0.00    +0.000 A 
ATOM      6  C   UNL     1       2.372   3.299  19.807  0.00  0.00    +0.000 A 
ATOM      7  C   UNL     1       1.643   4.131  18.961  0.00  0.00    +0.000 A 
ATOM      8  C   UNL     1       2.317   4.986  18.093  0.00  0.00    +0.000 A 
ATOM      9  C   UNL     1       3.715   4.983  18.074  0.00  0.00    +0.000 A 
ATOM     10  C   UNL     1       4.456   5.887  17.197  0.00  0.00    +0.000 A 
ATOM     11  O   UNL     1       3.911   6.880  16.734  0.00  0.00    +0.000 OA
ATOM     12  C   UNL     1       5.885   5.508  16.932  0.00  0.00    +0.000 A 
ENDROOT
BRANCH   6  13
ATOM     13  O   UNL     1       1.668   2.500  20.659  0.00  0.00    +0.000 OA
ATOM     14  H   UNL     1       0.827   2.936  20.883  0.00  0.00    +0.000 HD
ENDBRANCH   6  13
BRANCH  12  15
ATOM     15  O   UNL     1       6.576   6.006  15.822  0.00  0.00    +0.000 OA
BRANCH  15  16
ATOM     16  C   UNL     1       6.508   5.291  14.642  0.00  0.00    +0.000 A 
ATOM     17  C   UNL     1       5.394   4.473  14.444  0.00  0.00    +0.000 A 
ATOM     18  C   UNL     1       5.352   3.622  13.336  0.00  0.00    +0.000 A 
ATOM     19  C   UNL     1       6.414   3.592  12.432  0.00  0.00    +0.000 A 
ATOM     20  C   UNL     1       7.489   4.464  12.591  0.00  0.00    +0.000 A 
ATOM     21  C   UNL     1       7.525   5.342  13.676  0.00  0.00    +0.000 A 
ENDBRANCH  15  16
ENDBRANCH  12  15
TORSDOF 3
ENDMDL
MODEL 7
REMARK VINA RESULT:      -7.0      2.242      6.020
REMARK  Name = 
REMARK  4 active torsions:
REMARK  status: ('A' for Active; 'I' for Inactive)
REMARK    1  A    between atoms: C_1  and  C_2
REMARK    2  A    between atoms: C_6  and  O_7
REMARK    3  A    between atoms: C_13  and  O_14
REMARK    4  A    between atoms: O_14  and  C_15
REMARK                            x       y       z     vdW  Elec       q    Type
REMARK                         _______ _______ _______ _____ _____    ______ ____
ROOT
ATOM      1  C   UNL     1       2.783   7.743  17.934  0.00  0.00    +0.000 C 
ATOM      2  C   UNL     1       2.941   6.279  18.218  0.00  0.00    +0.000 A 
ATOM      3  O   UNL     1       1.975   5.797  19.097  0.00  0.00    +0.000 OA
ATOM      4  C   UNL     1       2.152   4.547  19.629  0.00  0.00    +0.000 A 
ATOM      5  C   UNL     1       1.370   4.186  20.723  0.00  0.00    +0.000 A 
ATOM      6  C   UNL     1       1.536   2.922  21.288  0.00  0.00    +0.000 A 
ATOM      7  C   UNL     1       2.468   2.021  20.779  0.00  0.00    +0.000 A 
ATOM      8  C   UNL     1       3.235   2.378  19.673  0.00  0.00    +0.000 A 
ATOM      9  C   UNL     1       3.066   3.643  19.101  0.00  0.00    +0.000 A 
ATOM     10  C   UNL     1       3.833   4.041  17.922  0.00  0.00    +0.000 A 
ATOM     11  O   UNL     1       4.360   3.193  17.214  0.00  0.00    +0.000 OA
ATOM     12  C   UNL     1       3.906   5.519  17.664  0.00  0.00    +0.000 A 
ENDROOT
BRANCH   6  13
ATOM     13  O   UNL     1       0.791   2.517  22.355  0.00  0.00    +0.000 OA
ATOM     14  H   UNL     1       0.893   3.160  23.078  0.00  0.00    +0.000 HD
ENDBRANCH   6  13
BRANCH  12  15
ATOM     15  O   UNL     1       4.911   6.070  16.861  0.00  0.00    +0.000 OA
BRANCH  15  16
ATOM     16  C   UNL     1       6.036   6.572  17.485  0.00  0.00    +0.000 A 
ATOM     17  C   UNL     1       6.455   7.856  17.132  0.00  0.00    +0.000 A 
ATOM     18  C   UNL     1       7.667   8.347  17.627  0.00  0.00    +0.000 A 
ATOM     19  C   UNL     1       8.451   7.560  18.472  0.00  0.00    +0.000 A 
ATOM     20  C   UNL     1       7.994   6.311  18.884  0.00  0.00    +0.000 A 
ATOM     21  C   UNL     1       6.769   5.824  18.421  0.00  0.00    +0.000 A 
ENDBRANCH  15  16
ENDBRANCH  12  15
TORSDOF 3
ENDMDL
MODEL 8
REMARK VINA RESULT:      -7.0      1.368      1.804
REMARK  Name = 
REMARK  4 active torsions:
REMARK  status: ('A' for Active; 'I' for Inactive)
REMARK    1  A    between atoms: C_1  and  C_2
REMARK    2  A    between atoms: C_6  and  O_7
REMARK    3  A    between atoms: C_13  and  O_14
REMARK    4  A    between atoms: O_14  and  C_15
REMARK                            x       y       z     vdW  Elec       q    Type
REMARK                         _______ _______ _______ _____ _____    ______ ____
ROOT
ATOM      1  C   UNL     1       3.045   7.723  18.143  0.00  0.00    +0.000 C 
ATOM      2  C   UNL     1       3.698   6.511  17.550  0.00  0.00    +0.000 A 
ATOM      3  O   UNL     1       4.905   6.806  16.923  0.00  0.00    +0.000 OA
ATOM      4  C   UNL     1       5.475   5.842  16.133  0.00  0.00    +0.000 A 
ATOM      5  C   UNL     1       6.501   6.225  15.273  0.00  0.00    +0.000 A 
ATOM      6  C   UNL     1       7.092   5.264  14.453  0.00  0.00    +0.000 A 
ATOM      7  C   UNL     1       6.674   3.936  14.480  0.00  0.00    +0.000 A 
ATOM      8  C   UNL     1       5.661   3.553  15.355  0.00  0.00    +0.000 A 
ATOM      9  C   UNL     1       5.070   4.513  16.182  0.00  0.00    +0.000 A 
ATOM     10  C   UNL     1       4.025   4.142  17.134  0.00  0.00    +0.000 A 
ATOM     11  O   UNL     1       3.890   2.975  17.477  0.00  0.00    +0.000 OA
ATOM     12  C   UNL     1       3.173   5.273  17.636  0.00  0.00    +0.000 A 
ENDROOT
BRANCH   6  13
ATOM     13  O   UNL     1       8.105   5.585  13.599  0.00  0.00    +0.000 OA
ATOM     14  H   UNL     1       7.738   6.062  12.834  0.00  0.00    +0.000 HD
ENDBRANCH   6  13
BRANCH  12  15
ATOM     15  O   UNL     1       1.911   5.042  18.194  0.00  0.00    +0.000 OA
BRANCH  15  16
ATOM     16  C   UNL     1       1.837   4.246  19.320  0.00  0.00    +0.000 A 
ATOM     17  C   UNL     1       1.042   3.100  19.254  0.00  0.00    +0.000 A 
ATOM     18  C   UNL     1       0.821   2.346  20.409  0.00  0.00    +0.000 A 
ATOM     19  C   UNL     1       1.392   2.733  21.622  0.00  0.00    +0.000 A 
ATOM     20  C   UNL     1       2.246   3.833  21.669  0.00  0.00    +0.000 A 
ATOM     21  C   UNL     1       2.500   4.574  20.513  0.00  0.00    +0.000 A 
ENDBRANCH  15  16
ENDBRANCH  12  15
TORSDOF 3
ENDMDL
MODEL 9
REMARK VINA RESULT:      -6.9      2.058      5.949
REMARK  Name = 
REMARK  4 active torsions:
REMARK  status: ('A' for Active; 'I' for Inactive)
REMARK    1  A    between atoms: C_1  and  C_2
REMARK    2  A    between atoms: C_6  and  O_7
REMARK    3  A    between atoms: C_13  and  O_14
REMARK    4  A    between atoms: O_14  and  C_15
REMARK                            x       y       z     vdW  Elec       q    Type
REMARK                         _______ _______ _______ _____ _____    ______ ____
ROOT
ATOM      1  C   UNL     1       2.392   4.408  20.738  0.00  0.00    +0.000 C 
ATOM      2  C   UNL     1       2.444   5.664  19.922  0.00  0.00    +0.000 A 
ATOM      3  O   UNL     1       1.963   6.773  20.613  0.00  0.00    +0.000 OA
ATOM      4  C   UNL     1       1.726   7.922  19.905  0.00  0.00    +0.000 A 
ATOM      5  C   UNL     1       0.969   8.920  20.515  0.00  0.00    +0.000 A 
ATOM      6  C   UNL     1       0.707  10.096  19.813  0.00  0.00    +0.000 A 
ATOM      7  C   UNL     1       1.186  10.286  18.519  0.00  0.00    +0.000 A 
ATOM      8  C   UNL     1       1.959   9.294  17.920  0.00  0.00    +0.000 A 
ATOM      9  C   UNL     1       2.228   8.116  18.624  0.00  0.00    +0.000 A 
ATOM     10  C   UNL     1       3.059   7.066  18.038  0.00  0.00    +0.000 A 
ATOM     11  O   UNL     1       3.808   7.322  17.104  0.00  0.00    +0.000 OA
ATOM     12  C   UNL     1       2.923   5.707  18.663  0.00  0.00    +0.000 A 
ENDROOT
BRANCH   6  13
ATOM     13  O   UNL     1      -0.022  11.106  20.366  0.00  0.00    +0.000 OA
ATOM     14  H   UNL     1       0.281  11.253  21.280  0.00  0.00    +0.000 HD
ENDBRANCH   6  13
BRANCH  12  15
ATOM     15  O   UNL     1       3.308   4.549  17.978  0.00  0.00    +0.000 OA
BRANCH  15  16
ATOM     16  C   UNL     1       4.623   4.445  17.569  0.00  0.00    +0.000 A 
ATOM     17  C   UNL     1       5.617   4.684  18.519  0.00  0.00    +0.000 A 
ATOM     18  C   UNL     1       6.956   4.733  18.118  0.00  0.00    +0.000 A 
ATOM     19  C   UNL     1       7.296   4.543  16.778  0.00  0.00    +0.000 A 
ATOM     20  C   UNL     1       6.309   4.229  15.847  0.00  0.00    +0.000 A 
ATOM     21  C   UNL     1       4.972   4.144  16.243  0.00  0.00    +0.000 A 
ENDBRANCH  15  16
ENDBRANCH  12  15
TORSDOF 3
ENDMDL
