MODEL 1
REMARK VINA RESULT:      -6.9      0.000      0.000
REMARK  Name = 
REMARK  4 active torsions:
REMARK  status: ('A' for Active; 'I' for Inactive)
REMARK    1  A    between atoms: C_2  and  C_3
REMARK    2  A    between atoms: C_3  and  C_4
REMARK    3  A    between atoms: C_4  and  O_5
REMARK    4  A    between atoms: O_5  and  C_6
REMARK                            x       y       z     vdW  Elec       q    Type
REMARK                         _______ _______ _______ _____ _____    ______ ____
ROOT
ATOM      1  C   UNL     1       2.890   2.863  16.811  0.00  0.00    +0.000 C 
ENDROOT
BRANCH   1   3
ATOM      2  O   UNL     1       1.053   4.275  17.428  0.00  0.00    +0.000 OA
ATOM      3  C   UNL     1       1.855   3.404  17.776  0.00  0.00    +0.000 C 
ATOM      4  N   UNL     1       1.870   2.888  19.058  0.00  0.00    +0.000 N 
ATOM      5  C   UNL     1       2.802   1.877  19.568  0.00  0.00    +0.000 C 
ATOM      6  C   UNL     1       3.536   2.397  20.817  0.00  0.00    +0.000 C 
ATOM      7  N   UNL     1       2.610   2.865  21.864  0.00  0.00    +0.000 NA
ATOM      8  C   UNL     1       1.699   3.889  21.312  0.00  0.00    +0.000 C 
ATOM      9  C   UNL     1       0.936   3.398  20.068  0.00  0.00    +0.000 C 
ATOM     10  H   UNL     1       3.145   3.272  22.628  0.00  0.00    +0.000 HD
ENDBRANCH   1   3
BRANCH   1  11
ATOM     11  C   UNL     1       4.270   3.395  17.152  0.00  0.00    +0.000 C 
BRANCH  11  12
ATOM     12  O   UNL     1       4.173   4.789  17.457  0.00  0.00    +0.000 OA
BRANCH  12  13
ATOM     13  C   UNL     1       5.337   5.407  17.847  0.00  0.00    +0.000 A 
ATOM     14  C   UNL     1       6.032   5.087  19.023  0.00  0.00    +0.000 A 
ATOM     15  C   UNL     1       7.215   5.752  19.347  0.00  0.00    +0.000 A 
ATOM     16  C   UNL     1       7.707   6.736  18.502  0.00  0.00    +0.000 A 
ATOM     17  F   UNL     1       8.846   7.363  18.819  0.00  0.00    +0.000 F 
ATOM     18  C   UNL     1       7.035   7.079  17.338  0.00  0.00    +0.000 A 
ATOM     19  C   UNL     1       5.848   6.416  17.012  0.00  0.00    +0.000 A 
ATOM     20 CL   UNL     1       5.041   6.876  15.553  0.00  0.00    +0.000 Cl
ENDBRANCH  12  13
ENDBRANCH  11  12
ENDBRANCH   1  11
TORSDOF 4
ENDMDL
MODEL 2
REMARK VINA RESULT:      -6.8      2.560      3.319
REMARK  Name = 
REMARK  4 active torsions:
REMARK  status: ('A' for Active; 'I' for Inactive)
REMARK    1  A    between atoms: C_2  and  C_3
REMARK    2  A    between atoms: C_3  and  C_4
REMARK    3  A    between atoms: C_4  and  O_5
REMARK    4  A    between atoms: O_5  and  C_6
REMARK                            x       y       z     vdW  Elec       q    Type
REMARK                         _______ _______ _______ _____ _____    ______ ____
ROOT
ATOM      1  C   UNL     1       2.961   6.389  18.171  0.00  0.00    +0.000 C 
ENDROOT
BRANCH   1   3
ATOM      2  O   UNL     1       2.122   6.205  20.409  0.00  0.00    +0.000 OA
ATOM      3  C   UNL     1       2.218   5.691  19.291  0.00  0.00    +0.000 C 
ATOM      4  N   UNL     1       1.674   4.455  19.002  0.00  0.00    +0.000 N 
ATOM      5  C   UNL     1       1.763   3.755  17.716  0.00  0.00    +0.000 C 
ATOM      6  C   UNL     1       2.377   2.356  17.901  0.00  0.00    +0.000 C 
ATOM      7  N   UNL     1       1.665   1.554  18.911  0.00  0.00    +0.000 NA
ATOM      8  C   UNL     1       1.608   2.288  20.192  0.00  0.00    +0.000 C 
ATOM      9  C   UNL     1       0.985   3.689  20.047  0.00  0.00    +0.000 C 
ATOM     10  H   UNL     1       2.159   0.675  19.052  0.00  0.00    +0.000 HD
ENDBRANCH   1   3
BRANCH   1  11
ATOM     11  C   UNL     1       4.454   6.402  18.446  0.00  0.00    +0.000 C 
BRANCH  11  12
ATOM     12  O   UNL     1       4.996   5.113  18.147  0.00  0.00    +0.000 OA
BRANCH  12  13
ATOM     13  C   UNL     1       5.538   4.957  16.894  0.00  0.00    +0.000 A 
ATOM     14  C   UNL     1       4.892   4.287  15.844  0.00  0.00    +0.000 A 
ATOM     15  C   UNL     1       5.501   4.180  14.594  0.00  0.00    +0.000 A 
ATOM     16  C   UNL     1       6.754   4.738  14.387  0.00  0.00    +0.000 A 
ATOM     17  F   UNL     1       7.328   4.635  13.182  0.00  0.00    +0.000 F 
ATOM     18  C   UNL     1       7.420   5.397  15.410  0.00  0.00    +0.000 A 
ATOM     19  C   UNL     1       6.812   5.505  16.664  0.00  0.00    +0.000 A 
ATOM     20 CL   UNL     1       7.677   6.333  17.912  0.00  0.00    +0.000 Cl
ENDBRANCH  12  13
ENDBRANCH  11  12
ENDBRANCH   1  11
TORSDOF 4
ENDMDL
MODEL 3
REMARK VINA RESULT:      -6.8      2.893      3.492
REMARK  Name = 
REMARK  4 active torsions:
REMARK  status: ('A' for Active; 'I' for Inactive)
REMARK    1  A    between atoms: C_2  and  C_3
REMARK    2  A    between atoms: C_3  and  C_4
REMARK    3  A    between atoms: C_4  and  O_5
REMARK    4  A    between atoms: O_5  and  C_6
REMARK                            x       y       z     vdW  Elec       q    Type
REMARK                         _______ _______ _______ _____ _____    ______ ____
ROOT
ATOM      1  C   UNL     1       2.515   4.770  17.836  0.00  0.00    +0.000 C 
ENDROOT
BRANCH   1   3
ATOM      2  O   UNL     1       1.727   4.866  20.098  0.00  0.00    +0.000 OA
ATOM      3  C   UNL     1       2.171   5.484  19.127  0.00  0.00    +0.000 C 
ATOM      4  N   UNL     1       2.362   6.852  19.152  0.00  0.00    +0.000 N 
ATOM      5  C   UNL     1       2.854   7.672  18.040  0.00  0.00    +0.000 C 
ATOM      6  C   UNL     1       1.857   8.799  17.715  0.00  0.00    +0.000 C 
ATOM      7  N   UNL     1       1.525   9.619  18.894  0.00  0.00    +0.000 NA
ATOM      8  C   UNL     1       1.022   8.757  19.983  0.00  0.00    +0.000 C 
ATOM      9  C   UNL     1       2.002   7.625  20.346  0.00  0.00    +0.000 C 
ATOM     10  H   UNL     1       0.804  10.293  18.642  0.00  0.00    +0.000 HD
ENDBRANCH   1   3
BRANCH   1  11
ATOM     11  C   UNL     1       3.515   3.656  18.092  0.00  0.00    +0.000 C 
BRANCH  11  12
ATOM     12  O   UNL     1       4.638   3.826  17.224  0.00  0.00    +0.000 OA
BRANCH  12  13
ATOM     13  C   UNL     1       5.612   4.695  17.654  0.00  0.00    +0.000 A 
ATOM     14  C   UNL     1       6.118   4.713  18.962  0.00  0.00    +0.000 A 
ATOM     15  C   UNL     1       7.116   5.619  19.321  0.00  0.00    +0.000 A 
ATOM     16  C   UNL     1       7.610   6.510  18.379  0.00  0.00    +0.000 A 
ATOM     17  F   UNL     1       8.572   7.371  18.732  0.00  0.00    +0.000 F 
ATOM     18  C   UNL     1       7.120   6.521  17.081  0.00  0.00    +0.000 A 
ATOM     19  C   UNL     1       6.120   5.615  16.719  0.00  0.00    +0.000 A 
ATOM     20 CL   UNL     1       5.536   5.664  15.091  0.00  0.00    +0.000 Cl
ENDBRANCH  12  13
ENDBRANCH  11  12
ENDBRANCH   1  11
TORSDOF 4
ENDMDL
MODEL 4
REMARK VINA RESULT:      -6.6      3.896      5.574
REMARK  Name = 
REMARK  4 active torsions:
REMARK  status: ('A' for Active; 'I' for Inactive)
REMARK    1  A    between atoms: C_2  and  C_3
REMARK    2  A    between atoms: C_3  and  C_4
REMARK    3  A    between atoms: C_4  and  O_5
REMARK    4  A    between atoms: O_5  and  C_6
REMARK                            x       y       z     vdW  Elec       q    Type
REMARK                         _______ _______ _______ _____ _____    ______ ____
ROOT
ATOM      1  C   UNL     1       4.530   5.666  19.032  0.00  0.00    +0.000 C 
ENDROOT
BRANCH   1   3
ATOM      2  O   UNL     1       4.396   6.912  16.989  0.00  0.00    +0.000 OA
ATOM      3  C   UNL     1       3.875   6.639  18.073  0.00  0.00    +0.000 C 
ATOM      4  N   UNL     1       2.685   7.210  18.482  0.00  0.00    +0.000 N 
ATOM      5  C   UNL     1       2.010   6.969  19.761  0.00  0.00    +0.000 C 
ATOM      6  C   UNL     1       1.773   8.294  20.508  0.00  0.00    +0.000 C 
ATOM      7  N   UNL     1       1.054   9.286  19.688  0.00  0.00    +0.000 NA
ATOM      8  C   UNL     1       1.773   9.508  18.417  0.00  0.00    +0.000 C 
ATOM      9  C   UNL     1       2.015   8.203  17.634  0.00  0.00    +0.000 C 
ATOM     10  H   UNL     1       0.997  10.166  20.197  0.00  0.00    +0.000 HD
ENDBRANCH   1   3
BRANCH   1  11
ATOM     11  C   UNL     1       5.107   4.481  18.280  0.00  0.00    +0.000 C 
BRANCH  11  12
ATOM     12  O   UNL     1       4.076   3.514  18.065  0.00  0.00    +0.000 OA
BRANCH  12  13
ATOM     13  C   UNL     1       3.281   3.223  19.148  0.00  0.00    +0.000 A 
ATOM     14  C   UNL     1       3.765   2.668  20.342  0.00  0.00    +0.000 A 
ATOM     15  C   UNL     1       2.897   2.411  21.403  0.00  0.00    +0.000 A 
ATOM     16  C   UNL     1       1.547   2.704  21.276  0.00  0.00    +0.000 A 
ATOM     17  F   UNL     1       0.723   2.459  22.303  0.00  0.00    +0.000 F 
ATOM     18  C   UNL     1       1.040   3.244  20.103  0.00  0.00    +0.000 A 
ATOM     19  C   UNL     1       1.907   3.501  19.038  0.00  0.00    +0.000 A 
ATOM     20 CL   UNL     1       1.234   4.172  17.593  0.00  0.00    +0.000 Cl
ENDBRANCH  12  13
ENDBRANCH  11  12
ENDBRANCH   1  11
TORSDOF 4
ENDMDL
MODEL 5
REMARK VINA RESULT:      -6.6      3.739      4.904
REMARK  Name = 
REMARK  4 active torsions:
REMARK  status: ('A' for Active; 'I' for Inactive)
REMARK    1  A    between atoms: C_2  and  C_3
REMARK    2  A    between atoms: C_3  and  C_4
REMARK    3  A    between atoms: C_4  and  O_5
REMARK    4  A    between atoms: O_5  and  C_6
REMARK                            x       y       z     vdW  Elec       q    Type
REMARK                         _______ _______ _______ _____ _____    ______ ____
ROOT
ATOM      1  C   UNL     1       5.766   5.594  17.250  0.00  0.00    +0.000 C 
ENDROOT
BRANCH   1   3
ATOM      2  O   UNL     1       6.326   4.688  19.397  0.00  0.00    +0.000 OA
ATOM      3  C   UNL     1       5.482   4.793  18.504  0.00  0.00    +0.000 C 
ATOM      4  N   UNL     1       4.246   4.180  18.584  0.00  0.00    +0.000 N 
ATOM      5  C   UNL     1       3.196   4.225  17.562  0.00  0.00    +0.000 C 
ATOM      6  C   UNL     1       2.787   2.802  17.141  0.00  0.00    +0.000 C 
ATOM      7  N   UNL     1       2.399   1.961  18.288  0.00  0.00    +0.000 NA
ATOM      8  C   UNL     1       3.488   1.933  19.285  0.00  0.00    +0.000 C 
ATOM      9  C   UNL     1       3.914   3.342  19.741  0.00  0.00    +0.000 C 
ATOM     10  H   UNL     1       2.219   1.013  17.963  0.00  0.00    +0.000 HD
ENDBRANCH   1   3
BRANCH   1  11
ATOM     11  C   UNL     1       7.166   5.307  16.738  0.00  0.00    +0.000 C 
BRANCH  11  12
ATOM     12  O   UNL     1       7.285   5.793  15.398  0.00  0.00    +0.000 OA
BRANCH  12  13
ATOM     13  C   UNL     1       6.820   4.963  14.407  0.00  0.00    +0.000 A 
ATOM     14  C   UNL     1       5.688   4.146  14.543  0.00  0.00    +0.000 A 
ATOM     15  C   UNL     1       5.270   3.337  13.487  0.00  0.00    +0.000 A 
ATOM     16  C   UNL     1       5.979   3.339  12.294  0.00  0.00    +0.000 A 
ATOM     17  F   UNL     1       5.565   2.563  11.284  0.00  0.00    +0.000 F 
ATOM     18  C   UNL     1       7.108   4.129  12.136  0.00  0.00    +0.000 A 
ATOM     19  C   UNL     1       7.530   4.940  13.193  0.00  0.00    +0.000 A 
ATOM     20 CL   UNL     1       8.943   5.908  12.955  0.00  0.00    +0.000 Cl
ENDBRANCH  12  13
ENDBRANCH  11  12
ENDBRANCH   1  11
TORSDOF 4
ENDMDL
MODEL 6
REMARK VINA RESULT:      -6.6      1.572      2.140
REMARK  Name = 
REMARK  4 active torsions:
REMARK  status: ('A' for Active; 'I' for Inactive)
REMARK    1  A    between atoms: C_2  and  C_3
REMARK    2  A    between atoms: C_3  and  C_4
REMARK    3  A    between atoms: C_4  and  O_5
REMARK    4  A    between atoms: O_5  and  C_6
REMARK                            x       y       z     vdW  Elec       q    Type
REMARK                         _______ _______ _______ _____ _____    ______ ____
ROOT
ATOM      1  C   UNL     1       1.539   4.917  18.582  0.00  0.00    +0.000 C 
ENDROOT
BRANCH   1   3
ATOM      2  O   UNL     1       2.276   4.878  20.863  0.00  0.00    +0.000 OA
ATOM      3  C   UNL     1       2.148   4.259  19.803  0.00  0.00    +0.000 C 
ATOM      4  N   UNL     1       2.562   2.948  19.662  0.00  0.00    +0.000 N 
ATOM      5  C   UNL     1       2.478   2.146  18.437  0.00  0.00    +0.000 C 
ATOM      6  C   UNL     1       3.864   1.602  18.049  0.00  0.00    +0.000 C 
ATOM      7  N   UNL     1       4.509   0.858  19.147  0.00  0.00    +0.000 NA
ATOM      8  C   UNL     1       4.584   1.705  20.355  0.00  0.00    +0.000 C 
ATOM      9  C   UNL     1       3.211   2.257  20.781  0.00  0.00    +0.000 C 
ATOM     10  H   UNL     1       5.451   0.593  18.865  0.00  0.00    +0.000 HD
ENDBRANCH   1   3
BRANCH   1  11
ATOM     11  C   UNL     1       2.505   5.921  17.978  0.00  0.00    +0.000 C 
BRANCH  11  12
ATOM     12  O   UNL     1       3.595   5.218  17.375  0.00  0.00    +0.000 OA
BRANCH  12  13
ATOM     13  C   UNL     1       4.854   5.577  17.794  0.00  0.00    +0.000 A 
ATOM     14  C   UNL     1       5.393   5.218  19.038  0.00  0.00    +0.000 A 
ATOM     15  C   UNL     1       6.685   5.610  19.389  0.00  0.00    +0.000 A 
ATOM     16  C   UNL     1       7.441   6.362  18.501  0.00  0.00    +0.000 A 
ATOM     17  F   UNL     1       8.683   6.728  18.844  0.00  0.00    +0.000 F 
ATOM     18  C   UNL     1       6.930   6.740  17.268  0.00  0.00    +0.000 A 
ATOM     19  C   UNL     1       5.635   6.349  16.915  0.00  0.00    +0.000 A 
ATOM     20 CL   UNL     1       5.035   6.843  15.370  0.00  0.00    +0.000 Cl
ENDBRANCH  12  13
ENDBRANCH  11  12
ENDBRANCH   1  11
TORSDOF 4
ENDMDL
MODEL 7
REMARK VINA RESULT:      -6.6      3.486      5.797
REMARK  Name = 
REMARK  4 active torsions:
REMARK  status: ('A' for Active; 'I' for Inactive)
REMARK    1  A    between atoms: C_2  and  C_3
REMARK    2  A    between atoms: C_3  and  C_4
REMARK    3  A    between atoms: C_4  and  O_5
REMARK    4  A    between atoms: O_5  and  C_6
REMARK                            x       y       z     vdW  Elec       q    Type
REMARK                         _______ _______ _______ _____ _____    ______ ____
ROOT
ATOM      1  C   UNL     1       5.178   4.347  15.716  0.00  0.00    +0.000 C 
ENDROOT
BRANCH   1   3
ATOM      2  O   UNL     1       5.142   6.673  15.137  0.00  0.00    +0.000 OA
ATOM      3  C   UNL     1       5.431   5.817  15.978  0.00  0.00    +0.000 C 
ATOM      4  N   UNL     1       6.013   6.142  17.188  0.00  0.00    +0.000 N 
ATOM      5  C   UNL     1       6.416   5.194  18.231  0.00  0.00    +0.000 C 
ATOM      6  C   UNL     1       7.905   5.370  18.578  0.00  0.00    +0.000 C 
ATOM      7  N   UNL     1       8.242   6.758  18.941  0.00  0.00    +0.000 NA
ATOM      8  C   UNL     1       7.831   7.678  17.861  0.00  0.00    +0.000 C 
ATOM      9  C   UNL     1       6.341   7.539  17.497  0.00  0.00    +0.000 C 
ATOM     10  H   UNL     1       9.248   6.835  19.081  0.00  0.00    +0.000 HD
ENDBRANCH   1   3
BRANCH   1  11
ATOM     11  C   UNL     1       4.567   3.684  16.937  0.00  0.00    +0.000 C 
BRANCH  11  12
ATOM     12  O   UNL     1       3.231   4.161  17.112  0.00  0.00    +0.000 OA
BRANCH  12  13
ATOM     13  C   UNL     1       2.587   3.759  18.257  0.00  0.00    +0.000 A 
ATOM     14  C   UNL     1       2.067   2.469  18.448  0.00  0.00    +0.000 A 
ATOM     15  C   UNL     1       1.436   2.132  19.645  0.00  0.00    +0.000 A 
ATOM     16  C   UNL     1       1.321   3.077  20.653  0.00  0.00    +0.000 A 
ATOM     17  F   UNL     1       0.719   2.741  21.801  0.00  0.00    +0.000 F 
ATOM     18  C   UNL     1       1.816   4.362  20.489  0.00  0.00    +0.000 A 
ATOM     19  C   UNL     1       2.448   4.704  19.290  0.00  0.00    +0.000 A 
ATOM     20 CL   UNL     1       3.050   6.317  19.125  0.00  0.00    +0.000 Cl
ENDBRANCH  12  13
ENDBRANCH  11  12
ENDBRANCH   1  11
TORSDOF 4
ENDMDL
MODEL 8
REMARK VINA RESULT:      -6.6      6.193      7.367
REMARK  Name = 
REMARK  4 active torsions:
REMARK  status: ('A' for Active; 'I' for Inactive)
REMARK    1  A    between atoms: C_2  and  C_3
REMARK    2  A    between atoms: C_3  and  C_4
REMARK    3  A    between atoms: C_4  and  O_5
REMARK    4  A    between atoms: O_5  and  C_6
REMARK                            x       y       z     vdW  Elec       q    Type
REMARK                         _______ _______ _______ _____ _____    ______ ____
ROOT
ATOM      1  C   UNL     1       0.050   9.258  21.040  0.00  0.00    +0.000 C 
ENDROOT
BRANCH   1   3
ATOM      2  O   UNL     1       1.233  11.309  21.409  0.00  0.00    +0.000 OA
ATOM      3  C   UNL     1       0.574  10.618  20.629  0.00  0.00    +0.000 C 
ATOM      4  N   UNL     1       0.262  11.046  19.352  0.00  0.00    +0.000 N 
ATOM      5  C   UNL     1      -0.539  10.308  18.370  0.00  0.00    +0.000 C 
ATOM      6  C   UNL     1      -1.731  11.157  17.894  0.00  0.00    +0.000 C 
ATOM      7  N   UNL     1      -1.317  12.477  17.383  0.00  0.00    +0.000 NA
ATOM      8  C   UNL     1      -0.526  13.190  18.405  0.00  0.00    +0.000 C 
ATOM      9  C   UNL     1       0.685  12.374  18.896  0.00  0.00    +0.000 C 
ATOM     10  H   UNL     1      -2.146  13.025  17.159  0.00  0.00    +0.000 HD
ENDBRANCH   1   3
BRANCH   1  11
ATOM     11  C   UNL     1       1.198   8.294  21.282  0.00  0.00    +0.000 C 
BRANCH  11  12
ATOM     12  O   UNL     1       1.825   7.989  20.033  0.00  0.00    +0.000 OA
BRANCH  12  13
ATOM     13  C   UNL     1       2.150   6.670  19.824  0.00  0.00    +0.000 A 
ATOM     14  C   UNL     1       1.755   5.626  20.674  0.00  0.00    +0.000 A 
ATOM     15  C   UNL     1       2.113   4.308  20.388  0.00  0.00    +0.000 A 
ATOM     16  C   UNL     1       2.867   4.029  19.257  0.00  0.00    +0.000 A 
ATOM     17  F   UNL     1       3.201   2.760  18.989  0.00  0.00    +0.000 F 
ATOM     18  C   UNL     1       3.280   5.042  18.405  0.00  0.00    +0.000 A 
ATOM     19  C   UNL     1       2.923   6.363  18.690  0.00  0.00    +0.000 A 
ATOM     20 CL   UNL     1       3.459   7.597  17.602  0.00  0.00    +0.000 Cl
ENDBRANCH  12  13
ENDBRANCH  11  12
ENDBRANCH   1  11
TORSDOF 4
ENDMDL
MODEL 9
REMARK VINA RESULT:      -6.6      3.438      5.315
REMARK  Name = 
REMARK  4 active torsions:
REMARK  status: ('A' for Active; 'I' for Inactive)
REMARK    1  A    between atoms: C_2  and  C_3
REMARK    2  A    between atoms: C_3  and  C_4
REMARK    3  A    between atoms: C_4  and  O_5
REMARK    4  A    between atoms: O_5  and  C_6
REMARK                            x       y       z     vdW  Elec       q    Type
REMARK                         _______ _______ _______ _____ _____    ______ ____
ROOT
ATOM      1  C   UNL     1       4.014   2.393  17.715  0.00  0.00    +0.000 C 
ENDROOT
BRANCH   1   3
ATOM      2  O   UNL     1       5.118   3.376  19.603  0.00  0.00    +0.000 OA
ATOM      3  C   UNL     1       4.981   3.354  18.377  0.00  0.00    +0.000 C 
ATOM      4  N   UNL     1       5.680   4.206  17.544  0.00  0.00    +0.000 N 
ATOM      5  C   UNL     1       5.559   4.272  16.083  0.00  0.00    +0.000 C 
ATOM      6  C   UNL     1       5.202   5.700  15.632  0.00  0.00    +0.000 C 
ATOM      7  N   UNL     1       6.143   6.709  16.150  0.00  0.00    +0.000 NA
ATOM      8  C   UNL     1       6.225   6.617  17.621  0.00  0.00    +0.000 C 
ATOM      9  C   UNL     1       6.595   5.204  18.110  0.00  0.00    +0.000 C 
ATOM     10  H   UNL     1       5.815   7.638  15.891  0.00  0.00    +0.000 HD
ENDBRANCH   1   3
BRANCH   1  11
ATOM     11  C   UNL     1       2.730   2.290  18.518  0.00  0.00    +0.000 C 
BRANCH  11  12
ATOM     12  O   UNL     1       1.810   3.286  18.063  0.00  0.00    +0.000 OA
BRANCH  12  13
ATOM     13  C   UNL     1       1.926   4.528  18.640  0.00  0.00    +0.000 A 
ATOM     14  C   UNL     1       2.334   5.675  17.943  0.00  0.00    +0.000 A 
ATOM     15  C   UNL     1       2.417   6.905  18.595  0.00  0.00    +0.000 A 
ATOM     16  C   UNL     1       2.095   6.995  19.942  0.00  0.00    +0.000 A 
ATOM     17  F   UNL     1       2.171   8.182  20.557  0.00  0.00    +0.000 F 
ATOM     18  C   UNL     1       1.698   5.875  20.658  0.00  0.00    +0.000 A 
ATOM     19  C   UNL     1       1.616   4.640  20.007  0.00  0.00    +0.000 A 
ATOM     20 CL   UNL     1       1.119   3.269  20.936  0.00  0.00    +0.000 Cl
ENDBRANCH  12  13
ENDBRANCH  11  12
ENDBRANCH   1  11
TORSDOF 4
ENDMDL
