MODEL 1
REMARK VINA RESULT:      -7.6      0.000      0.000
REMARK  Name = 
REMARK  5 active torsions:
REMARK  status: ('A' for Active; 'I' for Inactive)
REMARK    1  A    between atoms: C_2  and  C_10
REMARK    2  A    between atoms: N_3  and  C_4
REMARK    3  A    between atoms: N_18  and  O_19
REMARK    4  A    between atoms: O_19  and  S_20
REMARK    5  A    between atoms: S_20  and  O_23
REMARK                            x       y       z     vdW  Elec       q    Type
REMARK                         _______ _______ _______ _____ _____    ______ ____
ROOT
ATOM      1  C   UNL     1       4.707   6.185  18.568  0.00  0.00    +0.000 C 
ATOM      2  C   UNL     1       5.148   7.209  17.496  0.00  0.00    +0.000 C 
ATOM      3  C   UNL     1       6.677   7.393  17.464  0.00  0.00    +0.000 C 
ATOM      4  C   UNL     1       7.488   6.060  17.590  0.00  0.00    +0.000 C 
ATOM      5  C   UNL     1       7.050   5.541  18.961  0.00  0.00    +0.000 C 
ATOM      6  N   UNL     1       5.681   5.076  18.638  0.00  0.00    +0.000 N 
ATOM      7  C   UNL     1       5.825   4.425  17.332  0.00  0.00    +0.000 C 
ATOM      8  O   UNL     1       5.048   3.634  16.836  0.00  0.00    +0.000 OA
ATOM      9  N   UNL     1       7.014   4.913  16.825  0.00  0.00    +0.000 N 
ENDROOT
BRANCH   1  11
ATOM     10  O   UNL     1       2.372   6.804  18.272  0.00  0.00    +0.000 OA
ATOM     11  C   UNL     1       3.186   5.896  18.447  0.00  0.00    +0.000 C 
ATOM     12  N   UNL     1       2.806   4.619  18.763  0.00  0.00    +0.000 N 
ATOM     13  H   UNL     1       3.511   3.885  18.789  0.00  0.00    +0.000 HD
BRANCH  12  14
ATOM     14  C   UNL     1       1.421   4.216  18.986  0.00  0.00    +0.000 C 
ATOM     15  C   UNL     1       0.995   4.519  20.435  0.00  0.00    +0.000 C 
ATOM     16  C   UNL     1       1.784   3.652  21.419  0.00  0.00    +0.000 C 
ATOM     17  C   UNL     1       1.704   2.169  21.051  0.00  0.00    +0.000 C 
ATOM     18  N   UNL     1       2.077   1.915  19.658  0.00  0.00    +0.000 NA
ATOM     19  C   UNL     1       1.257   2.706  18.728  0.00  0.00    +0.000 C 
ATOM     20  H   UNL     1       1.954   0.926  19.447  0.00  0.00    +0.000 HD
ENDBRANCH  12  14
ENDBRANCH   1  11
BRANCH   9  21
ATOM     21  O   UNL     1       7.700   4.415  15.703  0.00  0.00    +0.000 OA
BRANCH  21  22
ATOM     22  S   UNL     1       7.076   4.802  14.223  0.00  0.00    +0.000 S 
ATOM     23  O   UNL     1       8.025   5.631  13.513  0.00  0.00    +0.000 OA
ATOM     24  O   UNL     1       6.540   3.611  13.598  0.00  0.00    +0.000 OA
BRANCH  22  25
ATOM     25  O   UNL     1       5.832   5.793  14.515  0.00  0.00    +0.000 OA
ATOM     26  H   UNL     1       5.590   6.206  13.655  0.00  0.00    +0.000 HD
ENDBRANCH  22  25
ENDBRANCH  21  22
ENDBRANCH   9  21
TORSDOF 5
ENDMDL
MODEL 2
REMARK VINA RESULT:      -7.2      0.608      1.112
REMARK  Name = 
REMARK  5 active torsions:
REMARK  status: ('A' for Active; 'I' for Inactive)
REMARK    1  A    between atoms: C_2  and  C_10
REMARK    2  A    between atoms: N_3  and  C_4
REMARK    3  A    between atoms: N_18  and  O_19
REMARK    4  A    between atoms: O_19  and  S_20
REMARK    5  A    between atoms: S_20  and  O_23
REMARK                            x       y       z     vdW  Elec       q    Type
REMARK                         _______ _______ _______ _____ _____    ______ ____
ROOT
ATOM      1  C   UNL     1       4.571   6.260  18.843  0.00  0.00    +0.000 C 
ATOM      2  C   UNL     1       4.832   7.069  17.550  0.00  0.00    +0.000 C 
ATOM      3  C   UNL     1       6.334   7.184  17.231  0.00  0.00    +0.000 C 
ATOM      4  C   UNL     1       7.143   5.862  17.451  0.00  0.00    +0.000 C 
ATOM      5  C   UNL     1       6.942   5.603  18.946  0.00  0.00    +0.000 C 
ATOM      6  N   UNL     1       5.533   5.143  18.943  0.00  0.00    +0.000 N 
ATOM      7  C   UNL     1       5.445   4.273  17.766  0.00  0.00    +0.000 C 
ATOM      8  O   UNL     1       4.587   3.440  17.554  0.00  0.00    +0.000 OA
ATOM      9  N   UNL     1       6.534   4.621  16.990  0.00  0.00    +0.000 N 
ENDROOT
BRANCH   1  11
ATOM     10  O   UNL     1       2.329   6.848  19.583  0.00  0.00    +0.000 OA
ATOM     11  C   UNL     1       3.050   6.015  19.031  0.00  0.00    +0.000 C 
ATOM     12  N   UNL     1       2.622   4.746  18.746  0.00  0.00    +0.000 N 
ATOM     13  H   UNL     1       3.220   4.135  18.193  0.00  0.00    +0.000 HD
BRANCH  12  14
ATOM     14  C   UNL     1       1.308   4.230  19.117  0.00  0.00    +0.000 C 
ATOM     15  C   UNL     1       1.176   4.132  20.649  0.00  0.00    +0.000 C 
ATOM     16  C   UNL     1       2.143   3.084  21.205  0.00  0.00    +0.000 C 
ATOM     17  C   UNL     1       1.993   1.742  20.487  0.00  0.00    +0.000 C 
ATOM     18  N   UNL     1       2.083   1.870  19.031  0.00  0.00    +0.000 NA
ATOM     19  C   UNL     1       1.096   2.829  18.512  0.00  0.00    +0.000 C 
ATOM     20  H   UNL     1       1.921   0.962  18.598  0.00  0.00    +0.000 HD
ENDBRANCH  12  14
ENDBRANCH   1  11
BRANCH   9  21
ATOM     21  O   UNL     1       7.012   3.911  15.873  0.00  0.00    +0.000 OA
BRANCH  21  22
ATOM     22  S   UNL     1       6.648   4.537  14.388  0.00  0.00    +0.000 S 
ATOM     23  O   UNL     1       5.308   5.079  14.421  0.00  0.00    +0.000 OA
ATOM     24  O   UNL     1       7.752   5.351  13.923  0.00  0.00    +0.000 OA
BRANCH  22  25
ATOM     25  O   UNL     1       6.533   3.269  13.392  0.00  0.00    +0.000 OA
ATOM     26  H   UNL     1       5.995   2.589  13.858  0.00  0.00    +0.000 HD
ENDBRANCH  22  25
ENDBRANCH  21  22
ENDBRANCH   9  21
TORSDOF 5
ENDMDL
MODEL 3
REMARK VINA RESULT:      -6.5      2.713      5.873
REMARK  Name = 
REMARK  5 active torsions:
REMARK  status: ('A' for Active; 'I' for Inactive)
REMARK    1  A    between atoms: C_2  and  C_10
REMARK    2  A    between atoms: N_3  and  C_4
REMARK    3  A    between atoms: N_18  and  O_19
REMARK    4  A    between atoms: O_19  and  S_20
REMARK    5  A    between atoms: S_20  and  O_23
REMARK                            x       y       z     vdW  Elec       q    Type
REMARK                         _______ _______ _______ _____ _____    ______ ____
ROOT
ATOM      1  C   UNL     1       2.271   5.743  18.411  0.00  0.00    +0.000 C 
ATOM      2  C   UNL     1       2.507   5.506  19.921  0.00  0.00    +0.000 C 
ATOM      3  C   UNL     1       1.614   4.382  20.479  0.00  0.00    +0.000 C 
ATOM      4  C   UNL     1       1.495   3.131  19.544  0.00  0.00    +0.000 C 
ATOM      5  C   UNL     1       0.865   3.727  18.284  0.00  0.00    +0.000 C 
ATOM      6  N   UNL     1       2.029   4.455  17.729  0.00  0.00    +0.000 N 
ATOM      7  C   UNL     1       3.154   3.537  17.935  0.00  0.00    +0.000 C 
ATOM      8  O   UNL     1       4.224   3.575  17.362  0.00  0.00    +0.000 OA
ATOM      9  N   UNL     1       2.715   2.655  18.904  0.00  0.00    +0.000 N 
ENDROOT
BRANCH   1  11
ATOM     10  O   UNL     1       2.965   7.852  17.414  0.00  0.00    +0.000 OA
ATOM     11  C   UNL     1       3.309   6.753  17.852  0.00  0.00    +0.000 C 
ATOM     12  N   UNL     1       4.574   6.258  17.683  0.00  0.00    +0.000 N 
ATOM     13  H   UNL     1       4.836   5.396  18.158  0.00  0.00    +0.000 HD
BRANCH  12  14
ATOM     14  C   UNL     1       5.617   6.939  16.921  0.00  0.00    +0.000 C 
ATOM     15  C   UNL     1       5.414   6.721  15.409  0.00  0.00    +0.000 C 
ATOM     16  C   UNL     1       5.610   5.247  15.048  0.00  0.00    +0.000 C 
ATOM     17  C   UNL     1       6.943   4.711  15.573  0.00  0.00    +0.000 C 
ATOM     18  N   UNL     1       7.126   4.966  17.004  0.00  0.00    +0.000 NA
ATOM     19  C   UNL     1       7.005   6.398  17.316  0.00  0.00    +0.000 C 
ATOM     20  H   UNL     1       8.049   4.642  17.292  0.00  0.00    +0.000 HD
ENDBRANCH  12  14
ENDBRANCH   1  11
BRANCH   9  21
ATOM     21  O   UNL     1       3.347   1.454  19.275  0.00  0.00    +0.000 OA
BRANCH  21  22
ATOM     22  S   UNL     1       4.579   1.575  20.368  0.00  0.00    +0.000 S 
ATOM     23  O   UNL     1       4.035   1.953  21.654  0.00  0.00    +0.000 OA
ATOM     24  O   UNL     1       5.441   0.415  20.255  0.00  0.00    +0.000 OA
BRANCH  22  25
ATOM     25  O   UNL     1       5.446   2.862  19.916  0.00  0.00    +0.000 OA
ATOM     26  H   UNL     1       5.137   3.110  19.015  0.00  0.00    +0.000 HD
ENDBRANCH  22  25
ENDBRANCH  21  22
ENDBRANCH   9  21
TORSDOF 5
ENDMDL
MODEL 4
REMARK VINA RESULT:      -6.3      3.800      5.117
REMARK  Name = 
REMARK  5 active torsions:
REMARK  status: ('A' for Active; 'I' for Inactive)
REMARK    1  A    between atoms: C_2  and  C_10
REMARK    2  A    between atoms: N_3  and  C_4
REMARK    3  A    between atoms: N_18  and  O_19
REMARK    4  A    between atoms: O_19  and  S_20
REMARK    5  A    between atoms: S_20  and  O_23
REMARK                            x       y       z     vdW  Elec       q    Type
REMARK                         _______ _______ _______ _____ _____    ______ ____
ROOT
ATOM      1  C   UNL     1       2.078   6.939  18.472  0.00  0.00    +0.000 C 
ATOM      2  C   UNL     1       2.544   6.701  19.928  0.00  0.00    +0.000 C 
ATOM      3  C   UNL     1       2.954   5.237  20.175  0.00  0.00    +0.000 C 
ATOM      4  C   UNL     1       3.793   4.599  19.018  0.00  0.00    +0.000 C 
ATOM      5  C   UNL     1       2.828   4.683  17.833  0.00  0.00    +0.000 C 
ATOM      6  N   UNL     1       2.897   6.134  17.542  0.00  0.00    +0.000 N 
ATOM      7  C   UNL     1       4.319   6.459  17.686  0.00  0.00    +0.000 C 
ATOM      8  O   UNL     1       4.879   7.440  17.239  0.00  0.00    +0.000 OA
ATOM      9  N   UNL     1       4.845   5.417  18.426  0.00  0.00    +0.000 N 
ENDROOT
BRANCH   1  11
ATOM     10  O   UNL     1       2.296   9.011  17.216  0.00  0.00    +0.000 OA
ATOM     11  C   UNL     1       1.847   8.452  18.218  0.00  0.00    +0.000 C 
ATOM     12  N   UNL     1       1.310   9.147  19.268  0.00  0.00    +0.000 N 
ATOM     13  H   UNL     1       0.855   8.634  20.020  0.00  0.00    +0.000 HD
BRANCH  12  14
ATOM     14  C   UNL     1       1.273  10.605  19.343  0.00  0.00    +0.000 C 
ATOM     15  C   UNL     1       1.188  11.071  20.809  0.00  0.00    +0.000 C 
ATOM     16  C   UNL     1      -0.144  10.645  21.430  0.00  0.00    +0.000 C 
ATOM     17  C   UNL     1      -1.332  11.088  20.574  0.00  0.00    +0.000 C 
ATOM     18  N   UNL     1      -1.205  10.665  19.177  0.00  0.00    +0.000 NA
ATOM     19  C   UNL     1       0.049  11.146  18.580  0.00  0.00    +0.000 C 
ATOM     20  H   UNL     1      -1.989  11.031  18.638  0.00  0.00    +0.000 HD
ENDBRANCH  12  14
ENDBRANCH   1  11
BRANCH   9  21
ATOM     21  O   UNL     1       6.213   5.155  18.629  0.00  0.00    +0.000 OA
BRANCH  21  22
ATOM     22  S   UNL     1       7.088   4.723  17.296  0.00  0.00    +0.000 S 
ATOM     23  O   UNL     1       8.340   4.138  17.724  0.00  0.00    +0.000 OA
ATOM     24  O   UNL     1       6.234   4.014  16.365  0.00  0.00    +0.000 OA
BRANCH  22  25
ATOM     25  O   UNL     1       7.526   6.109  16.588  0.00  0.00    +0.000 OA
ATOM     26  H   UNL     1       7.657   5.911  15.633  0.00  0.00    +0.000 HD
ENDBRANCH  22  25
ENDBRANCH  21  22
ENDBRANCH   9  21
TORSDOF 5
ENDMDL
MODEL 5
REMARK VINA RESULT:      -6.3      8.940     11.069
REMARK  Name = 
REMARK  5 active torsions:
REMARK  status: ('A' for Active; 'I' for Inactive)
REMARK    1  A    between atoms: C_2  and  C_10
REMARK    2  A    between atoms: N_3  and  C_4
REMARK    3  A    between atoms: N_18  and  O_19
REMARK    4  A    between atoms: O_19  and  S_20
REMARK    5  A    between atoms: S_20  and  O_23
REMARK                            x       y       z     vdW  Elec       q    Type
REMARK                         _______ _______ _______ _____ _____    ______ ____
ROOT
ATOM      1  C   UNL     1      -2.246  11.619  18.271  0.00  0.00    +0.000 C 
ATOM      2  C   UNL     1      -1.589  10.223  18.380  0.00  0.00    +0.000 C 
ATOM      3  C   UNL     1      -0.052  10.308  18.432  0.00  0.00    +0.000 C 
ATOM      4  C   UNL     1       0.499  11.456  19.343  0.00  0.00    +0.000 C 
ATOM      5  C   UNL     1      -0.074  12.706  18.672  0.00  0.00    +0.000 C 
ATOM      6  N   UNL     1      -1.492  12.597  19.084  0.00  0.00    +0.000 N 
ATOM      7  C   UNL     1      -1.424  12.168  20.484  0.00  0.00    +0.000 C 
ATOM      8  O   UNL     1      -2.315  12.258  21.305  0.00  0.00    +0.000 OA
ATOM      9  N   UNL     1      -0.150  11.656  20.633  0.00  0.00    +0.000 N 
ENDROOT
BRANCH   1  11
ATOM     10  O   UNL     1      -4.427  10.672  17.753  0.00  0.00    +0.000 OA
ATOM     11  C   UNL     1      -3.788  11.504  18.401  0.00  0.00    +0.000 C 
ATOM     12  N   UNL     1      -4.394  12.513  19.100  0.00  0.00    +0.000 N 
ATOM     13  H   UNL     1      -3.828  13.105  19.705  0.00  0.00    +0.000 HD
BRANCH  12  14
ATOM     14  C   UNL     1      -5.835  12.748  19.102  0.00  0.00    +0.000 C 
ATOM     15  C   UNL     1      -6.147  14.201  19.508  0.00  0.00    +0.000 C 
ATOM     16  C   UNL     1      -5.741  14.451  20.962  0.00  0.00    +0.000 C 
ATOM     17  C   UNL     1      -6.343  13.407  21.902  0.00  0.00    +0.000 C 
ATOM     18  N   UNL     1      -6.065  12.035  21.472  0.00  0.00    +0.000 NA
ATOM     19  C   UNL     1      -6.529  11.797  20.097  0.00  0.00    +0.000 C 
ATOM     20  H   UNL     1      -6.533  11.380  22.096  0.00  0.00    +0.000 HD
ENDBRANCH  12  14
ENDBRANCH   1  11
BRANCH   9  21
ATOM     21  O   UNL     1       0.472  11.330  21.853  0.00  0.00    +0.000 OA
BRANCH  21  22
ATOM     22  S   UNL     1      -0.009   9.926  22.576  0.00  0.00    +0.000 S 
ATOM     23  O   UNL     1      -0.409   8.982  21.556  0.00  0.00    +0.000 OA
ATOM     24  O   UNL     1       0.962   9.542  23.581  0.00  0.00    +0.000 OA
BRANCH  22  25
ATOM     25  O   UNL     1      -1.385  10.276  23.348  0.00  0.00    +0.000 OA
ATOM     26  H   UNL     1      -2.026  10.577  22.664  0.00  0.00    +0.000 HD
ENDBRANCH  22  25
ENDBRANCH  21  22
ENDBRANCH   9  21
TORSDOF 5
ENDMDL
MODEL 6
REMARK VINA RESULT:      -6.3      8.732     10.807
REMARK  Name = 
REMARK  5 active torsions:
REMARK  status: ('A' for Active; 'I' for Inactive)
REMARK    1  A    between atoms: C_2  and  C_10
REMARK    2  A    between atoms: N_3  and  C_4
REMARK    3  A    between atoms: N_18  and  O_19
REMARK    4  A    between atoms: O_19  and  S_20
REMARK    5  A    between atoms: S_20  and  O_23
REMARK                            x       y       z     vdW  Elec       q    Type
REMARK                         _______ _______ _______ _____ _____    ______ ____
ROOT
ATOM      1  C   UNL     1      -2.064  11.655  18.345  0.00  0.00    +0.000 C 
ATOM      2  C   UNL     1      -1.453  10.235  18.367  0.00  0.00    +0.000 C 
ATOM      3  C   UNL     1       0.087  10.266  18.353  0.00  0.00    +0.000 C 
ATOM      4  C   UNL     1       0.717  11.355  19.284  0.00  0.00    +0.000 C 
ATOM      5  C   UNL     1       0.160  12.651  18.691  0.00  0.00    +0.000 C 
ATOM      6  N   UNL     1      -1.242  12.572  19.162  0.00  0.00    +0.000 N 
ATOM      7  C   UNL     1      -1.128  12.081  20.539  0.00  0.00    +0.000 C 
ATOM      8  O   UNL     1      -1.978  12.166  21.403  0.00  0.00    +0.000 OA
ATOM      9  N   UNL     1       0.133  11.521  20.610  0.00  0.00    +0.000 N 
ENDROOT
BRANCH   1  11
ATOM     10  O   UNL     1      -4.302  10.829  17.864  0.00  0.00    +0.000 OA
ATOM     11  C   UNL     1      -3.603  11.586  18.539  0.00  0.00    +0.000 C 
ATOM     12  N   UNL     1      -4.136  12.561  19.340  0.00  0.00    +0.000 N 
ATOM     13  H   UNL     1      -3.521  13.085  19.959  0.00  0.00    +0.000 HD
BRANCH  12  14
ATOM     14  C   UNL     1      -5.565  12.847  19.428  0.00  0.00    +0.000 C 
ATOM     15  C   UNL     1      -5.801  14.323  19.799  0.00  0.00    +0.000 C 
ATOM     16  C   UNL     1      -5.290  14.610  21.212  0.00  0.00    +0.000 C 
ATOM     17  C   UNL     1      -5.862  13.621  22.229  0.00  0.00    +0.000 C 
ATOM     18  N   UNL     1      -5.658  12.226  21.832  0.00  0.00    +0.000 NA
ATOM     19  C   UNL     1      -6.222  11.957  20.501  0.00  0.00    +0.000 C 
ATOM     20  H   UNL     1      -6.105  11.610  22.511  0.00  0.00    +0.000 HD
ENDBRANCH  12  14
ENDBRANCH   1  11
BRANCH   9  21
ATOM     21  O   UNL     1       0.796  11.124  21.785  0.00  0.00    +0.000 OA
BRANCH  21  22
ATOM     22  S   UNL     1       0.476   9.600  22.335  0.00  0.00    +0.000 S 
ATOM     23  O   UNL     1       0.312   9.641  23.772  0.00  0.00    +0.000 OA
ATOM     24  O   UNL     1      -0.541   8.989  21.504  0.00  0.00    +0.000 OA
BRANCH  22  25
ATOM     25  O   UNL     1       1.840   8.758  22.121  0.00  0.00    +0.000 OA
ATOM     26  H   UNL     1       2.402   9.280  21.504  0.00  0.00    +0.000 HD
ENDBRANCH  22  25
ENDBRANCH  21  22
ENDBRANCH   9  21
TORSDOF 5
ENDMDL
MODEL 7
REMARK VINA RESULT:      -6.2      1.690      2.353
REMARK  Name = 
REMARK  5 active torsions:
REMARK  status: ('A' for Active; 'I' for Inactive)
REMARK    1  A    between atoms: C_2  and  C_10
REMARK    2  A    between atoms: N_3  and  C_4
REMARK    3  A    between atoms: N_18  and  O_19
REMARK    4  A    between atoms: O_19  and  S_20
REMARK    5  A    between atoms: S_20  and  O_23
REMARK                            x       y       z     vdW  Elec       q    Type
REMARK                         _______ _______ _______ _____ _____    ______ ____
ROOT
ATOM      1  C   UNL     1       5.182   5.542  18.907  0.00  0.00    +0.000 C 
ATOM      2  C   UNL     1       4.257   5.714  17.680  0.00  0.00    +0.000 C 
ATOM      3  C   UNL     1       4.679   6.903  16.797  0.00  0.00    +0.000 C 
ATOM      4  C   UNL     1       6.224   7.027  16.580  0.00  0.00    +0.000 C 
ATOM      5  C   UNL     1       6.738   7.224  18.007  0.00  0.00    +0.000 C 
ATOM      6  N   UNL     1       6.579   5.848  18.534  0.00  0.00    +0.000 N 
ATOM      7  C   UNL     1       7.023   4.991  17.430  0.00  0.00    +0.000 C 
ATOM      8  O   UNL     1       7.362   3.828  17.518  0.00  0.00    +0.000 OA
ATOM      9  N   UNL     1       6.962   5.800  16.311  0.00  0.00    +0.000 N 
ENDROOT
BRANCH   1  11
ATOM     10  O   UNL     1       5.669   3.341  19.825  0.00  0.00    +0.000 OA
ATOM     11  C   UNL     1       4.835   4.235  19.669  0.00  0.00    +0.000 C 
ATOM     12  N   UNL     1       3.507   4.058  19.953  0.00  0.00    +0.000 N 
ATOM     13  H   UNL     1       2.881   4.859  19.910  0.00  0.00    +0.000 HD
BRANCH  12  14
ATOM     14  C   UNL     1       2.935   2.792  20.403  0.00  0.00    +0.000 C 
ATOM     15  C   UNL     1       2.718   1.841  19.211  0.00  0.00    +0.000 C 
ATOM     16  C   UNL     1       1.654   2.400  18.264  0.00  0.00    +0.000 C 
ATOM     17  C   UNL     1       0.367   2.754  19.011  0.00  0.00    +0.000 C 
ATOM     18  N   UNL     1       0.607   3.627  20.161  0.00  0.00    +0.000 NA
ATOM     19  C   UNL     1       1.579   3.036  21.093  0.00  0.00    +0.000 C 
ATOM     20  H   UNL     1      -0.270   3.788  20.656  0.00  0.00    +0.000 HD
ENDBRANCH  12  14
ENDBRANCH   1  11
BRANCH   9  21
ATOM     21  O   UNL     1       7.507   5.504  15.048  0.00  0.00    +0.000 OA
BRANCH  21  22
ATOM     22  S   UNL     1       6.568   4.603  14.031  0.00  0.00    +0.000 S 
ATOM     23  O   UNL     1       5.210   5.100  14.077  0.00  0.00    +0.000 OA
ATOM     24  O   UNL     1       7.243   4.449  12.758  0.00  0.00    +0.000 OA
BRANCH  22  25
ATOM     25  O   UNL     1       6.470   3.136  14.704  0.00  0.00    +0.000 OA
ATOM     26  H   UNL     1       7.032   3.156  15.512  0.00  0.00    +0.000 HD
ENDBRANCH  22  25
ENDBRANCH  21  22
ENDBRANCH   9  21
TORSDOF 5
ENDMDL
MODEL 8
REMARK VINA RESULT:      -6.2      1.340      1.888
REMARK  Name = 
REMARK  5 active torsions:
REMARK  status: ('A' for Active; 'I' for Inactive)
REMARK    1  A    between atoms: C_2  and  C_10
REMARK    2  A    between atoms: N_3  and  C_4
REMARK    3  A    between atoms: N_18  and  O_19
REMARK    4  A    between atoms: O_19  and  S_20
REMARK    5  A    between atoms: S_20  and  O_23
REMARK                            x       y       z     vdW  Elec       q    Type
REMARK                         _______ _______ _______ _____ _____    ______ ____
ROOT
ATOM      1  C   UNL     1       3.483   6.386  19.114  0.00  0.00    +0.000 C 
ATOM      2  C   UNL     1       2.928   7.226  17.940  0.00  0.00    +0.000 C 
ATOM      3  C   UNL     1       4.051   7.846  17.088  0.00  0.00    +0.000 C 
ATOM      4  C   UNL     1       5.250   6.881  16.803  0.00  0.00    +0.000 C 
ATOM      5  C   UNL     1       5.766   6.578  18.211  0.00  0.00    +0.000 C 
ATOM      6  N   UNL     1       4.701   5.665  18.688  0.00  0.00    +0.000 N 
ATOM      7  C   UNL     1       4.421   4.810  17.530  0.00  0.00    +0.000 C 
ATOM      8  O   UNL     1       3.861   3.732  17.554  0.00  0.00    +0.000 OA
ATOM      9  N   UNL     1       4.931   5.503  16.449  0.00  0.00    +0.000 N 
ENDROOT
BRANCH   1  11
ATOM     10  O   UNL     1       2.107   5.808  21.036  0.00  0.00    +0.000 OA
ATOM     11  C   UNL     1       2.332   5.637  19.837  0.00  0.00    +0.000 C 
ATOM     12  N   UNL     1       1.742   4.634  19.115  0.00  0.00    +0.000 N 
ATOM     13  H   UNL     1       1.878   4.605  18.106  0.00  0.00    +0.000 HD
BRANCH  12  14
ATOM     14  C   UNL     1       0.848   3.635  19.693  0.00  0.00    +0.000 C 
ATOM     15  C   UNL     1       1.437   3.071  20.999  0.00  0.00    +0.000 C 
ATOM     16  C   UNL     1       2.718   2.284  20.715  0.00  0.00    +0.000 C 
ATOM     17  C   UNL     1       2.499   1.227  19.631  0.00  0.00    +0.000 C 
ATOM     18  N   UNL     1       1.902   1.783  18.415  0.00  0.00    +0.000 NA
ATOM     19  C   UNL     1       0.636   2.473  18.704  0.00  0.00    +0.000 C 
ATOM     20  H   UNL     1       1.725   1.033  17.748  0.00  0.00    +0.000 HD
ENDBRANCH  12  14
ENDBRANCH   1  11
BRANCH   9  21
ATOM     21  O   UNL     1       5.111   4.993  15.151  0.00  0.00    +0.000 OA
BRANCH  21  22
ATOM     22  S   UNL     1       6.650   4.563  14.733  0.00  0.00    +0.000 S 
ATOM     23  O   UNL     1       7.180   5.544  13.811  0.00  0.00    +0.000 OA
ATOM     24  O   UNL     1       7.393   4.207  15.924  0.00  0.00    +0.000 OA
BRANCH  22  25
ATOM     25  O   UNL     1       6.506   3.224  13.839  0.00  0.00    +0.000 OA
ATOM     26  H   UNL     1       6.189   3.507  12.951  0.00  0.00    +0.000 HD
ENDBRANCH  22  25
ENDBRANCH  21  22
ENDBRANCH   9  21
TORSDOF 5
ENDMDL
MODEL 9
REMARK VINA RESULT:      -6.2      1.595      2.422
REMARK  Name = 
REMARK  5 active torsions:
REMARK  status: ('A' for Active; 'I' for Inactive)
REMARK    1  A    between atoms: C_2  and  C_10
REMARK    2  A    between atoms: N_3  and  C_4
REMARK    3  A    between atoms: N_18  and  O_19
REMARK    4  A    between atoms: O_19  and  S_20
REMARK    5  A    between atoms: S_20  and  O_23
REMARK                            x       y       z     vdW  Elec       q    Type
REMARK                         _______ _______ _______ _____ _____    ______ ____
ROOT
ATOM      1  C   UNL     1       4.964   5.539  18.859  0.00  0.00    +0.000 C 
ATOM      2  C   UNL     1       3.691   6.056  18.148  0.00  0.00    +0.000 C 
ATOM      3  C   UNL     1       3.993   7.226  17.194  0.00  0.00    +0.000 C 
ATOM      4  C   UNL     1       5.292   7.042  16.340  0.00  0.00    +0.000 C 
ATOM      5  C   UNL     1       6.377   6.946  17.415  0.00  0.00    +0.000 C 
ATOM      6  N   UNL     1       6.113   5.583  17.931  0.00  0.00    +0.000 N 
ATOM      7  C   UNL     1       5.840   4.793  16.727  0.00  0.00    +0.000 C 
ATOM      8  O   UNL     1       5.888   3.582  16.638  0.00  0.00    +0.000 OA
ATOM      9  N   UNL     1       5.528   5.726  15.757  0.00  0.00    +0.000 N 
ENDROOT
BRANCH   1  11
ATOM     10  O   UNL     1       5.486   3.360  19.808  0.00  0.00    +0.000 OA
ATOM     11  C   UNL     1       4.649   4.253  19.669  0.00  0.00    +0.000 C 
ATOM     12  N   UNL     1       3.336   4.091  20.022  0.00  0.00    +0.000 N 
ATOM     13  H   UNL     1       2.711   4.895  19.989  0.00  0.00    +0.000 HD
BRANCH  12  14
ATOM     14  C   UNL     1       2.780   2.841  20.531  0.00  0.00    +0.000 C 
ATOM     15  C   UNL     1       2.685   1.792  19.407  0.00  0.00    +0.000 C 
ATOM     16  C   UNL     1       1.670   2.231  18.349  0.00  0.00    +0.000 C 
ATOM     17  C   UNL     1       0.321   2.586  18.975  0.00  0.00    +0.000 C 
ATOM     18  N   UNL     1       0.446   3.554  20.067  0.00  0.00    +0.000 NA
ATOM     19  C   UNL     1       1.371   3.079  21.106  0.00  0.00    +0.000 C 
ATOM     20  H   UNL     1      -0.469   3.714  20.487  0.00  0.00    +0.000 HD
ENDBRANCH  12  14
ENDBRANCH   1  11
BRANCH   9  21
ATOM     21  O   UNL     1       5.416   5.478  14.377  0.00  0.00    +0.000 OA
BRANCH  21  22
ATOM     22  S   UNL     1       6.704   4.739  13.652  0.00  0.00    +0.000 S 
ATOM     23  O   UNL     1       6.541   4.810  12.216  0.00  0.00    +0.000 OA
ATOM     24  O   UNL     1       7.933   5.195  14.268  0.00  0.00    +0.000 OA
BRANCH  22  25
ATOM     25  O   UNL     1       6.554   3.165  13.986  0.00  0.00    +0.000 OA
ATOM     26  H   UNL     1       6.821   2.675  13.175  0.00  0.00    +0.000 HD
ENDBRANCH  22  25
ENDBRANCH  21  22
ENDBRANCH   9  21
TORSDOF 5
ENDMDL
