MODEL 1
REMARK VINA RESULT:      -7.9      0.000      0.000
REMARK  Name = 
REMARK  3 active torsions:
REMARK  status: ('A' for Active; 'I' for Inactive)
REMARK    1  A    between atoms: C_4  and  C_5
REMARK    2  A    between atoms: C_10  and  O_11
REMARK    3  A    between atoms: C_15  and  O_16
REMARK                            x       y       z     vdW  Elec       q    Type
REMARK                         _______ _______ _______ _____ _____    ______ ____
ROOT
ATOM      1  O   UNL     1       2.870   2.992  17.990  0.00  0.00    +0.000 OA
ATOM      2  C   UNL     1       3.143   4.161  17.736  0.00  0.00    +0.000 C 
ATOM      3  C   UNL     1       2.240   5.306  18.094  0.00  0.00    +0.000 C 
ATOM      4  C   UNL     1       3.113   6.504  18.450  0.00  0.00    +0.000 C 
ATOM      5  O   UNL     1       3.982   6.880  17.362  0.00  0.00    +0.000 OA
ATOM      6  C   UNL     1       4.690   5.850  16.811  0.00  0.00    +0.000 A 
ATOM      7  C   UNL     1       5.783   6.207  16.020  0.00  0.00    +0.000 A 
ATOM      8  C   UNL     1       6.537   5.210  15.407  0.00  0.00    +0.000 A 
ATOM      9  C   UNL     1       6.210   3.866  15.566  0.00  0.00    +0.000 A 
ATOM     10  C   UNL     1       5.112   3.509  16.348  0.00  0.00    +0.000 A 
ATOM     11  C   UNL     1       4.353   4.506  16.966  0.00  0.00    +0.000 A 
ENDROOT
BRANCH   4  12
ATOM     12  C   UNL     1       2.271   7.719  18.806  0.00  0.00    +0.000 A 
ATOM     13  C   UNL     1       1.974   8.690  17.831  0.00  0.00    +0.000 A 
ATOM     14  C   UNL     1       1.214   9.817  18.148  0.00  0.00    +0.000 A 
ATOM     15  C   UNL     1       0.729   9.989  19.441  0.00  0.00    +0.000 A 
ATOM     16  C   UNL     1       1.000   9.033  20.419  0.00  0.00    +0.000 A 
ATOM     17  C   UNL     1       1.763   7.909  20.099  0.00  0.00    +0.000 A 
BRANCH  17  18
ATOM     18  O   UNL     1       2.019   6.970  21.058  0.00  0.00    +0.000 OA
ATOM     19  H   UNL     1       2.087   6.096  20.629  0.00  0.00    +0.000 HD
ENDBRANCH  17  18
ENDBRANCH   4  12
BRANCH   8  20
ATOM     20  O   UNL     1       7.615   5.513  14.630  0.00  0.00    +0.000 OA
ATOM     21  H   UNL     1       7.355   5.456  13.696  0.00  0.00    +0.000 HD
ENDBRANCH   8  20
TORSDOF 3
ENDMDL
MODEL 2
REMARK VINA RESULT:      -7.9      3.139      4.304
REMARK  Name = 
REMARK  3 active torsions:
REMARK  status: ('A' for Active; 'I' for Inactive)
REMARK    1  A    between atoms: C_4  and  C_5
REMARK    2  A    between atoms: C_10  and  O_11
REMARK    3  A    between atoms: C_15  and  O_16
REMARK                            x       y       z     vdW  Elec       q    Type
REMARK                         _______ _______ _______ _____ _____    ______ ____
ROOT
ATOM      1  O   UNL     1       7.421   6.691  18.242  0.00  0.00    +0.000 OA
ATOM      2  C   UNL     1       6.603   5.799  18.042  0.00  0.00    +0.000 C 
ATOM      3  C   UNL     1       5.764   5.202  19.135  0.00  0.00    +0.000 C 
ATOM      4  C   UNL     1       4.404   4.845  18.547  0.00  0.00    +0.000 C 
ATOM      5  O   UNL     1       4.519   3.917  17.448  0.00  0.00    +0.000 OA
ATOM      6  C   UNL     1       5.436   4.265  16.497  0.00  0.00    +0.000 A 
ATOM      7  C   UNL     1       5.330   3.609  15.270  0.00  0.00    +0.000 A 
ATOM      8  C   UNL     1       6.246   3.897  14.261  0.00  0.00    +0.000 A 
ATOM      9  C   UNL     1       7.267   4.820  14.464  0.00  0.00    +0.000 A 
ATOM     10  C   UNL     1       7.380   5.469  15.694  0.00  0.00    +0.000 A 
ATOM     11  C   UNL     1       6.463   5.184  16.709  0.00  0.00    +0.000 A 
ENDROOT
BRANCH   4  12
ATOM     12  C   UNL     1       3.497   4.211  19.589  0.00  0.00    +0.000 A 
ATOM     13  C   UNL     1       2.330   4.873  20.016  0.00  0.00    +0.000 A 
ATOM     14  C   UNL     1       1.496   4.309  20.982  0.00  0.00    +0.000 A 
ATOM     15  C   UNL     1       1.806   3.068  21.531  0.00  0.00    +0.000 A 
ATOM     16  C   UNL     1       2.949   2.388  21.113  0.00  0.00    +0.000 A 
ATOM     17  C   UNL     1       3.782   2.958  20.149  0.00  0.00    +0.000 A 
BRANCH  17  18
ATOM     18  O   UNL     1       4.897   2.285  19.736  0.00  0.00    +0.000 OA
ATOM     19  H   UNL     1       4.618   1.470  19.276  0.00  0.00    +0.000 HD
ENDBRANCH  17  18
ENDBRANCH   4  12
BRANCH   8  20
ATOM     20  O   UNL     1       6.178   3.284  13.046  0.00  0.00    +0.000 OA
ATOM     21  H   UNL     1       6.536   2.384  13.127  0.00  0.00    +0.000 HD
ENDBRANCH   8  20
TORSDOF 3
ENDMDL
MODEL 3
REMARK VINA RESULT:      -7.9      3.339      4.194
REMARK  Name = 
REMARK  3 active torsions:
REMARK  status: ('A' for Active; 'I' for Inactive)
REMARK    1  A    between atoms: C_4  and  C_5
REMARK    2  A    between atoms: C_10  and  O_11
REMARK    3  A    between atoms: C_15  and  O_16
REMARK                            x       y       z     vdW  Elec       q    Type
REMARK                         _______ _______ _______ _____ _____    ______ ____
ROOT
ATOM      1  O   UNL     1       7.076   6.406  18.510  0.00  0.00    +0.000 OA
ATOM      2  C   UNL     1       6.237   5.579  18.168  0.00  0.00    +0.000 C 
ATOM      3  C   UNL     1       5.252   4.971  19.126  0.00  0.00    +0.000 C 
ATOM      4  C   UNL     1       3.947   4.733  18.376  0.00  0.00    +0.000 C 
ATOM      5  O   UNL     1       4.131   3.865  17.238  0.00  0.00    +0.000 OA
ATOM      6  C   UNL     1       5.163   4.211  16.413  0.00  0.00    +0.000 A 
ATOM      7  C   UNL     1       5.156   3.636  15.142  0.00  0.00    +0.000 A 
ATOM      8  C   UNL     1       6.191   3.925  14.256  0.00  0.00    +0.000 A 
ATOM      9  C   UNL     1       7.233   4.770  14.624  0.00  0.00    +0.000 A 
ATOM     10  C   UNL     1       7.246   5.338  15.899  0.00  0.00    +0.000 A 
ATOM     11  C   UNL     1       6.210   5.052  16.791  0.00  0.00    +0.000 A 
ENDROOT
BRANCH   4  12
ATOM     12  C   UNL     1       2.898   4.096  19.273  0.00  0.00    +0.000 A 
ATOM     13  C   UNL     1       3.138   3.942  20.652  0.00  0.00    +0.000 A 
ATOM     14  C   UNL     1       2.189   3.347  21.484  0.00  0.00    +0.000 A 
ATOM     15  C   UNL     1       0.980   2.904  20.957  0.00  0.00    +0.000 A 
ATOM     16  C   UNL     1       0.715   3.059  19.597  0.00  0.00    +0.000 A 
ATOM     17  C   UNL     1       1.668   3.653  18.767  0.00  0.00    +0.000 A 
BRANCH  17  18
ATOM     18  O   UNL     1       1.402   3.810  17.436  0.00  0.00    +0.000 OA
ATOM     19  H   UNL     1       2.126   3.403  16.923  0.00  0.00    +0.000 HD
ENDBRANCH  17  18
ENDBRANCH   4  12
BRANCH   8  20
ATOM     20  O   UNL     1       6.222   3.389  13.004  0.00  0.00    +0.000 OA
ATOM     21  H   UNL     1       6.141   4.105  12.353  0.00  0.00    +0.000 HD
ENDBRANCH   8  20
TORSDOF 3
ENDMDL
MODEL 4
REMARK VINA RESULT:      -7.5      1.026      1.589
REMARK  Name = 
REMARK  3 active torsions:
REMARK  status: ('A' for Active; 'I' for Inactive)
REMARK    1  A    between atoms: C_4  and  C_5
REMARK    2  A    between atoms: C_10  and  O_11
REMARK    3  A    between atoms: C_15  and  O_16
REMARK                            x       y       z     vdW  Elec       q    Type
REMARK                         _______ _______ _______ _____ _____    ______ ____
ROOT
ATOM      1  O   UNL     1       2.395   2.996  17.587  0.00  0.00    +0.000 OA
ATOM      2  C   UNL     1       2.796   4.155  17.647  0.00  0.00    +0.000 C 
ATOM      3  C   UNL     1       1.965   5.277  18.201  0.00  0.00    +0.000 C 
ATOM      4  C   UNL     1       2.900   6.255  18.904  0.00  0.00    +0.000 C 
ATOM      5  O   UNL     1       3.905   6.777  18.009  0.00  0.00    +0.000 OA
ATOM      6  C   UNL     1       4.571   5.833  17.282  0.00  0.00    +0.000 A 
ATOM      7  C   UNL     1       5.766   6.242  16.688  0.00  0.00    +0.000 A 
ATOM      8  C   UNL     1       6.487   5.339  15.912  0.00  0.00    +0.000 A 
ATOM      9  C   UNL     1       6.029   4.040  15.714  0.00  0.00    +0.000 A 
ATOM     10  C   UNL     1       4.830   3.633  16.299  0.00  0.00    +0.000 A 
ATOM     11  C   UNL     1       4.102   4.535  17.079  0.00  0.00    +0.000 A 
ENDROOT
BRANCH   4  12
ATOM     12  C   UNL     1       2.137   7.438  19.477  0.00  0.00    +0.000 A 
ATOM     13  C   UNL     1       1.722   7.434  20.823  0.00  0.00    +0.000 A 
ATOM     14  C   UNL     1       1.010   8.508  21.358  0.00  0.00    +0.000 A 
ATOM     15  C   UNL     1       0.707   9.609  20.562  0.00  0.00    +0.000 A 
ATOM     16  C   UNL     1       1.119   9.640  19.230  0.00  0.00    +0.000 A 
ATOM     17  C   UNL     1       1.830   8.562  18.698  0.00  0.00    +0.000 A 
BRANCH  17  18
ATOM     18  O   UNL     1       2.239   8.600  17.395  0.00  0.00    +0.000 OA
ATOM     19  H   UNL     1       1.500   8.307  16.828  0.00  0.00    +0.000 HD
ENDBRANCH  17  18
ENDBRANCH   4  12
BRANCH   8  20
ATOM     20  O   UNL     1       7.661   5.694  15.318  0.00  0.00    +0.000 OA
ATOM     21  H   UNL     1       8.229   6.128  15.976  0.00  0.00    +0.000 HD
ENDBRANCH   8  20
TORSDOF 3
ENDMDL
MODEL 5
REMARK VINA RESULT:      -7.5      2.819      3.952
REMARK  Name = 
REMARK  3 active torsions:
REMARK  status: ('A' for Active; 'I' for Inactive)
REMARK    1  A    between atoms: C_4  and  C_5
REMARK    2  A    between atoms: C_10  and  O_11
REMARK    3  A    between atoms: C_15  and  O_16
REMARK                            x       y       z     vdW  Elec       q    Type
REMARK                         _______ _______ _______ _____ _____    ______ ____
ROOT
ATOM      1  O   UNL     1       7.435   6.162  18.266  0.00  0.00    +0.000 OA
ATOM      2  C   UNL     1       6.505   5.447  17.905  0.00  0.00    +0.000 C 
ATOM      3  C   UNL     1       5.493   4.880  18.859  0.00  0.00    +0.000 C 
ATOM      4  C   UNL     1       4.148   4.825  18.145  0.00  0.00    +0.000 C 
ATOM      5  O   UNL     1       4.206   4.019  16.949  0.00  0.00    +0.000 OA
ATOM      6  C   UNL     1       5.243   4.312  16.110  0.00  0.00    +0.000 A 
ATOM      7  C   UNL     1       5.137   3.825  14.807  0.00  0.00    +0.000 A 
ATOM      8  C   UNL     1       6.168   4.066  13.902  0.00  0.00    +0.000 A 
ATOM      9  C   UNL     1       7.303   4.777  14.282  0.00  0.00    +0.000 A 
ATOM     10  C   UNL     1       7.413   5.256  15.588  0.00  0.00    +0.000 A 
ATOM     11  C   UNL     1       6.381   5.018  16.499  0.00  0.00    +0.000 A 
ENDROOT
BRANCH   4  12
ATOM     12  C   UNL     1       3.068   4.239  19.040  0.00  0.00    +0.000 A 
ATOM     13  C   UNL     1       2.731   2.875  18.952  0.00  0.00    +0.000 A 
ATOM     14  C   UNL     1       1.732   2.328  19.758  0.00  0.00    +0.000 A 
ATOM     15  C   UNL     1       1.058   3.131  20.673  0.00  0.00    +0.000 A 
ATOM     16  C   UNL     1       1.384   4.482  20.787  0.00  0.00    +0.000 A 
ATOM     17  C   UNL     1       2.383   5.026  19.977  0.00  0.00    +0.000 A 
BRANCH  17  18
ATOM     18  O   UNL     1       2.705   6.348  20.097  0.00  0.00    +0.000 OA
ATOM     19  H   UNL     1       2.443   6.809  19.277  0.00  0.00    +0.000 HD
ENDBRANCH  17  18
ENDBRANCH   4  12
BRANCH   8  20
ATOM     20  O   UNL     1       6.105   3.613  12.618  0.00  0.00    +0.000 OA
ATOM     21  H   UNL     1       6.596   4.224  12.045  0.00  0.00    +0.000 HD
ENDBRANCH   8  20
TORSDOF 3
ENDMDL
MODEL 6
REMARK VINA RESULT:      -7.4      2.619      6.603
REMARK  Name = 
REMARK  3 active torsions:
REMARK  status: ('A' for Active; 'I' for Inactive)
REMARK    1  A    between atoms: C_4  and  C_5
REMARK    2  A    between atoms: C_10  and  O_11
REMARK    3  A    between atoms: C_15  and  O_16
REMARK                            x       y       z     vdW  Elec       q    Type
REMARK                         _______ _______ _______ _____ _____    ______ ____
ROOT
ATOM      1  O   UNL     1       3.891   7.026  18.279  0.00  0.00    +0.000 OA
ATOM      2  C   UNL     1       3.920   6.024  17.572  0.00  0.00    +0.000 C 
ATOM      3  C   UNL     1       4.613   5.984  16.240  0.00  0.00    +0.000 C 
ATOM      4  C   UNL     1       5.197   4.589  16.052  0.00  0.00    +0.000 C 
ATOM      5  O   UNL     1       4.180   3.566  16.113  0.00  0.00    +0.000 OA
ATOM      6  C   UNL     1       3.343   3.653  17.188  0.00  0.00    +0.000 A 
ATOM      7  C   UNL     1       2.595   2.512  17.479  0.00  0.00    +0.000 A 
ATOM      8  C   UNL     1       1.702   2.535  18.548  0.00  0.00    +0.000 A 
ATOM      9  C   UNL     1       1.542   3.680  19.322  0.00  0.00    +0.000 A 
ATOM     10  C   UNL     1       2.283   4.825  19.025  0.00  0.00    +0.000 A 
ATOM     11  C   UNL     1       3.180   4.806  17.954  0.00  0.00    +0.000 A 
ENDROOT
BRANCH   4  12
ATOM     12  C   UNL     1       5.901   4.457  14.711  0.00  0.00    +0.000 A 
ATOM     13  C   UNL     1       5.336   3.678  13.684  0.00  0.00    +0.000 A 
ATOM     14  C   UNL     1       5.979   3.537  12.453  0.00  0.00    +0.000 A 
ATOM     15  C   UNL     1       7.191   4.181  12.223  0.00  0.00    +0.000 A 
ATOM     16  C   UNL     1       7.762   4.968  13.222  0.00  0.00    +0.000 A 
ATOM     17  C   UNL     1       7.117   5.104  14.453  0.00  0.00    +0.000 A 
BRANCH  17  18
ATOM     18  O   UNL     1       7.676   5.883  15.426  0.00  0.00    +0.000 OA
ATOM     19  H   UNL     1       6.962   6.351  15.899  0.00  0.00    +0.000 HD
ENDBRANCH  17  18
ENDBRANCH   4  12
BRANCH   8  20
ATOM     20  O   UNL     1       0.954   1.442  18.872  0.00  0.00    +0.000 OA
ATOM     21  H   UNL     1       0.481   1.139  18.079  0.00  0.00    +0.000 HD
ENDBRANCH   8  20
TORSDOF 3
ENDMDL
MODEL 7
REMARK VINA RESULT:      -7.4      2.612      4.034
REMARK  Name = 
REMARK  3 active torsions:
REMARK  status: ('A' for Active; 'I' for Inactive)
REMARK    1  A    between atoms: C_4  and  C_5
REMARK    2  A    between atoms: C_10  and  O_11
REMARK    3  A    between atoms: C_15  and  O_16
REMARK                            x       y       z     vdW  Elec       q    Type
REMARK                         _______ _______ _______ _____ _____    ______ ____
ROOT
ATOM      1  O   UNL     1       7.711   7.008  16.843  0.00  0.00    +0.000 OA
ATOM      2  C   UNL     1       6.829   6.155  16.828  0.00  0.00    +0.000 C 
ATOM      3  C   UNL     1       6.019   5.799  18.042  0.00  0.00    +0.000 C 
ATOM      4  C   UNL     1       4.608   5.451  17.583  0.00  0.00    +0.000 C 
ATOM      5  O   UNL     1       4.602   4.355  16.645  0.00  0.00    +0.000 OA
ATOM      6  C   UNL     1       5.482   4.482  15.609  0.00  0.00    +0.000 A 
ATOM      7  C   UNL     1       5.266   3.649  14.510  0.00  0.00    +0.000 A 
ATOM      8  C   UNL     1       6.138   3.707  13.427  0.00  0.00    +0.000 A 
ATOM      9  C   UNL     1       7.225   4.577  13.429  0.00  0.00    +0.000 A 
ATOM     10  C   UNL     1       7.448   5.402  14.531  0.00  0.00    +0.000 A 
ATOM     11  C   UNL     1       6.575   5.348  15.620  0.00  0.00    +0.000 A 
ENDROOT
BRANCH   4  12
ATOM     12  C   UNL     1       3.724   5.056  18.755  0.00  0.00    +0.000 A 
ATOM     13  C   UNL     1       2.776   5.961  19.270  0.00  0.00    +0.000 A 
ATOM     14  C   UNL     1       1.968   5.616  20.354  0.00  0.00    +0.000 A 
ATOM     15  C   UNL     1       2.084   4.358  20.937  0.00  0.00    +0.000 A 
ATOM     16  C   UNL     1       3.007   3.440  20.435  0.00  0.00    +0.000 A 
ATOM     17  C   UNL     1       3.815   3.791  19.352  0.00  0.00    +0.000 A 
BRANCH  17  18
ATOM     18  O   UNL     1       4.712   2.886  18.858  0.00  0.00    +0.000 OA
ATOM     19  H   UNL     1       4.911   3.118  17.931  0.00  0.00    +0.000 HD
ENDBRANCH  17  18
ENDBRANCH   4  12
BRANCH   8  20
ATOM     20  O   UNL     1       5.962   2.916  12.331  0.00  0.00    +0.000 OA
ATOM     21  H   UNL     1       5.252   3.289  11.784  0.00  0.00    +0.000 HD
ENDBRANCH   8  20
TORSDOF 3
ENDMDL
MODEL 8
REMARK VINA RESULT:      -7.2      2.986      6.967
REMARK  Name = 
REMARK  3 active torsions:
REMARK  status: ('A' for Active; 'I' for Inactive)
REMARK    1  A    between atoms: C_4  and  C_5
REMARK    2  A    between atoms: C_10  and  O_11
REMARK    3  A    between atoms: C_15  and  O_16
REMARK                            x       y       z     vdW  Elec       q    Type
REMARK                         _______ _______ _______ _____ _____    ______ ____
ROOT
ATOM      1  O   UNL     1       2.125   9.405  17.450  0.00  0.00    +0.000 OA
ATOM      2  C   UNL     1       1.837   8.735  18.436  0.00  0.00    +0.000 C 
ATOM      3  C   UNL     1       1.911   7.235  18.455  0.00  0.00    +0.000 C 
ATOM      4  C   UNL     1       2.336   6.799  19.852  0.00  0.00    +0.000 C 
ATOM      5  O   UNL     1       1.416   7.262  20.863  0.00  0.00    +0.000 OA
ATOM      6  C   UNL     1       1.105   8.590  20.791  0.00  0.00    +0.000 A 
ATOM      7  C   UNL     1       0.523   9.149  21.930  0.00  0.00    +0.000 A 
ATOM      8  C   UNL     1       0.158  10.493  21.920  0.00  0.00    +0.000 A 
ATOM      9  C   UNL     1       0.357  11.281  20.790  0.00  0.00    +0.000 A 
ATOM     10  C   UNL     1       0.930  10.719  19.648  0.00  0.00    +0.000 A 
ATOM     11  C   UNL     1       1.299   9.372  19.653  0.00  0.00    +0.000 A 
ENDROOT
BRANCH   4  12
ATOM     12  C   UNL     1       2.414   5.285  19.962  0.00  0.00    +0.000 A 
ATOM     13  C   UNL     1       1.278   4.537  20.323  0.00  0.00    +0.000 A 
ATOM     14  C   UNL     1       1.340   3.148  20.441  0.00  0.00    +0.000 A 
ATOM     15  C   UNL     1       2.535   2.480  20.190  0.00  0.00    +0.000 A 
ATOM     16  C   UNL     1       3.670   3.200  19.819  0.00  0.00    +0.000 A 
ATOM     17  C   UNL     1       3.604   4.590  19.704  0.00  0.00    +0.000 A 
BRANCH  17  18
ATOM     18  O   UNL     1       4.716   5.291  19.332  0.00  0.00    +0.000 OA
ATOM     19  H   UNL     1       4.933   5.929  20.038  0.00  0.00    +0.000 HD
ENDBRANCH  17  18
ENDBRANCH   4  12
BRANCH   8  20
ATOM     20  O   UNL     1      -0.409  11.081  23.011  0.00  0.00    +0.000 OA
ATOM     21  H   UNL     1       0.136  11.840  23.278  0.00  0.00    +0.000 HD
ENDBRANCH   8  20
TORSDOF 3
ENDMDL
MODEL 9
REMARK VINA RESULT:      -7.1      3.251      5.774
REMARK  Name = 
REMARK  3 active torsions:
REMARK  status: ('A' for Active; 'I' for Inactive)
REMARK    1  A    between atoms: C_4  and  C_5
REMARK    2  A    between atoms: C_10  and  O_11
REMARK    3  A    between atoms: C_15  and  O_16
REMARK                            x       y       z     vdW  Elec       q    Type
REMARK                         _______ _______ _______ _____ _____    ______ ____
ROOT
ATOM      1  O   UNL     1       2.147   3.247  16.389  0.00  0.00    +0.000 OA
ATOM      2  C   UNL     1       2.800   3.602  17.366  0.00  0.00    +0.000 C 
ATOM      3  C   UNL     1       4.171   4.204  17.255  0.00  0.00    +0.000 C 
ATOM      4  C   UNL     1       4.324   5.240  18.362  0.00  0.00    +0.000 C 
ATOM      5  O   UNL     1       4.141   4.661  19.671  0.00  0.00    +0.000 OA
ATOM      6  C   UNL     1       3.018   3.897  19.809  0.00  0.00    +0.000 A 
ATOM      7  C   UNL     1       2.617   3.620  21.116  0.00  0.00    +0.000 A 
ATOM      8  C   UNL     1       1.494   2.827  21.332  0.00  0.00    +0.000 A 
ATOM      9  C   UNL     1       0.773   2.300  20.264  0.00  0.00    +0.000 A 
ATOM     10  C   UNL     1       1.179   2.568  18.957  0.00  0.00    +0.000 A 
ATOM     11  C   UNL     1       2.305   3.365  18.735  0.00  0.00    +0.000 A 
ENDROOT
BRANCH   4  12
ATOM     12  C   UNL     1       5.700   5.886  18.334  0.00  0.00    +0.000 A 
ATOM     13  C   UNL     1       6.686   5.504  19.264  0.00  0.00    +0.000 A 
ATOM     14  C   UNL     1       7.948   6.098  19.258  0.00  0.00    +0.000 A 
ATOM     15  C   UNL     1       8.253   7.076  18.317  0.00  0.00    +0.000 A 
ATOM     16  C   UNL     1       7.297   7.461  17.377  0.00  0.00    +0.000 A 
ATOM     17  C   UNL     1       6.034   6.866  17.389  0.00  0.00    +0.000 A 
BRANCH  17  18
ATOM     18  O   UNL     1       5.102   7.239  16.462  0.00  0.00    +0.000 OA
ATOM     19  H   UNL     1       4.765   6.438  16.018  0.00  0.00    +0.000 HD
ENDBRANCH  17  18
ENDBRANCH   4  12
BRANCH   8  20
ATOM     20  O   UNL     1       1.063   2.535  22.592  0.00  0.00    +0.000 OA
ATOM     21  H   UNL     1       1.834   2.458  23.178  0.00  0.00    +0.000 HD
ENDBRANCH   8  20
TORSDOF 3
ENDMDL
