MODEL 1
REMARK VINA RESULT:      -6.3      0.000      0.000
REMARK  Name = 
REMARK  5 active torsions:
REMARK  status: ('A' for Active; 'I' for Inactive)
REMARK    1  A    between atoms: C_1  and  N_2
REMARK    2  A    between atoms: C_3  and  N_4
REMARK    3  A    between atoms: N_4  and  C_5
REMARK    4  A    between atoms: C_11  and  N_12
REMARK    5  A    between atoms: N_16  and  C_17
REMARK                            x       y       z     vdW  Elec       q    Type
REMARK                         _______ _______ _______ _____ _____    ______ ____
ROOT
ATOM      1  C   UNL     1       4.054   2.811  17.464  0.00  0.00    +0.000 C 
ATOM      2  N   UNL     1       3.350   3.702  18.373  0.00  0.00    +0.000 N 
ATOM      3  C   UNL     1       3.366   5.086  18.186  0.00  0.00    +0.000 A 
ATOM      4  C   UNL     1       2.714   5.865  19.090  0.00  0.00    +0.000 A 
ATOM      5  C   UNL     1       2.014   5.227  20.261  0.00  0.00    +0.000 A 
ATOM      6  O   UNL     1       1.433   5.905  21.111  0.00  0.00    +0.000 OA
ATOM      7  N   UNL     1       2.028   3.843  20.313  0.00  0.00    +0.000 N 
ATOM      8  C   UNL     1       1.334   3.145  21.387  0.00  0.00    +0.000 C 
ATOM      9  C   UNL     1       2.688   3.050  19.408  0.00  0.00    +0.000 A 
ATOM     10  O   UNL     1       2.699   1.820  19.511  0.00  0.00    +0.000 OA
ENDROOT
BRANCH   3  11
ATOM     11  N   UNL     1       3.941   5.546  16.981  0.00  0.00    +0.000 N 
ATOM     12  H   UNL     1       3.180   6.001  16.465  0.00  0.00    +0.000 HD
BRANCH  11  13
ATOM     13  C   UNL     1       5.121   6.409  16.781  0.00  0.00    +0.000 C 
ATOM     14  C   UNL     1       6.247   6.243  17.798  0.00  0.00    +0.000 C 
ATOM     15  C   UNL     1       6.944   4.887  17.734  0.00  0.00    +0.000 C 
ATOM     16  C   UNL     1       7.368   4.468  16.333  0.00  0.00    +0.000 C 
ATOM     17  C   UNL     1       6.342   4.757  15.236  0.00  0.00    +0.000 C 
ATOM     18  C   UNL     1       5.671   6.125  15.367  0.00  0.00    +0.000 C 
ENDBRANCH  11  13
ENDBRANCH   3  11
BRANCH   4  19
ATOM     19  N   UNL     1       2.633   7.200  19.038  0.00  0.00    +0.000 NA
ATOM     20  O   UNL     1       2.106   7.657  18.015  0.00  0.00    +0.000 OA
ENDBRANCH   4  19
TORSDOF 3
ENDMDL
MODEL 2
REMARK VINA RESULT:      -6.2      2.465      5.286
REMARK  Name = 
REMARK  5 active torsions:
REMARK  status: ('A' for Active; 'I' for Inactive)
REMARK    1  A    between atoms: C_1  and  N_2
REMARK    2  A    between atoms: C_3  and  N_4
REMARK    3  A    between atoms: N_4  and  C_5
REMARK    4  A    between atoms: C_11  and  N_12
REMARK    5  A    between atoms: N_16  and  C_17
REMARK                            x       y       z     vdW  Elec       q    Type
REMARK                         _______ _______ _______ _____ _____    ______ ____
ROOT
ATOM      1  C   UNL     1       4.480   4.479  15.436  0.00  0.00    +0.000 C 
ATOM      2  N   UNL     1       5.127   4.662  16.725  0.00  0.00    +0.000 N 
ATOM      3  C   UNL     1       4.717   3.940  17.849  0.00  0.00    +0.000 A 
ATOM      4  C   UNL     1       5.341   4.183  19.032  0.00  0.00    +0.000 A 
ATOM      5  C   UNL     1       6.433   5.218  19.105  0.00  0.00    +0.000 A 
ATOM      6  O   UNL     1       7.004   5.478  20.166  0.00  0.00    +0.000 OA
ATOM      7  N   UNL     1       6.783   5.834  17.915  0.00  0.00    +0.000 N 
ATOM      8  C   UNL     1       7.861   6.813  17.889  0.00  0.00    +0.000 C 
ATOM      9  C   UNL     1       6.154   5.599  16.718  0.00  0.00    +0.000 A 
ATOM     10  O   UNL     1       6.480   6.195  15.687  0.00  0.00    +0.000 OA
ENDROOT
BRANCH   3  11
ATOM     11  N   UNL     1       3.780   2.908  17.619  0.00  0.00    +0.000 N 
ATOM     12  H   UNL     1       3.953   2.209  18.350  0.00  0.00    +0.000 HD
BRANCH  11  13
ATOM     13  C   UNL     1       2.311   2.993  17.497  0.00  0.00    +0.000 C 
ATOM     14  C   UNL     1       1.513   2.074  18.418  0.00  0.00    +0.000 C 
ATOM     15  C   UNL     1       1.638   2.422  19.899  0.00  0.00    +0.000 C 
ATOM     16  C   UNL     1       1.411   3.893  20.216  0.00  0.00    +0.000 C 
ATOM     17  C   UNL     1       2.055   4.871  19.232  0.00  0.00    +0.000 C 
ATOM     18  C   UNL     1       1.906   4.457  17.767  0.00  0.00    +0.000 C 
ENDBRANCH  11  13
ENDBRANCH   3  11
BRANCH   4  19
ATOM     19  N   UNL     1       5.067   3.565  20.187  0.00  0.00    +0.000 NA
ATOM     20  O   UNL     1       5.072   2.328  20.138  0.00  0.00    +0.000 OA
ENDBRANCH   4  19
TORSDOF 3
ENDMDL
MODEL 3
REMARK VINA RESULT:      -6.2      2.228      5.666
REMARK  Name = 
REMARK  5 active torsions:
REMARK  status: ('A' for Active; 'I' for Inactive)
REMARK    1  A    between atoms: C_1  and  N_2
REMARK    2  A    between atoms: C_3  and  N_4
REMARK    3  A    between atoms: N_4  and  C_5
REMARK    4  A    between atoms: C_11  and  N_12
REMARK    5  A    between atoms: N_16  and  C_17
REMARK                            x       y       z     vdW  Elec       q    Type
REMARK                         _______ _______ _______ _____ _____    ______ ____
ROOT
ATOM      1  C   UNL     1       3.322   7.397  17.247  0.00  0.00    +0.000 C 
ATOM      2  N   UNL     1       4.417   6.441  17.315  0.00  0.00    +0.000 N 
ATOM      3  C   UNL     1       4.619   5.653  18.450  0.00  0.00    +0.000 A 
ATOM      4  C   UNL     1       5.680   4.802  18.462  0.00  0.00    +0.000 A 
ATOM      5  C   UNL     1       6.605   4.743  17.275  0.00  0.00    +0.000 A 
ATOM      6  O   UNL     1       7.589   4.000  17.262  0.00  0.00    +0.000 OA
ATOM      7  N   UNL     1       6.275   5.538  16.190  0.00  0.00    +0.000 N 
ATOM      8  C   UNL     1       7.090   5.505  14.984  0.00  0.00    +0.000 C 
ATOM      9  C   UNL     1       5.209   6.403  16.173  0.00  0.00    +0.000 A 
ATOM     10  O   UNL     1       4.970   7.117  15.194  0.00  0.00    +0.000 OA
ENDROOT
BRANCH   3  11
ATOM     11  N   UNL     1       3.607   5.706  19.434  0.00  0.00    +0.000 N 
ATOM     12  H   UNL     1       3.709   6.620  19.890  0.00  0.00    +0.000 HD
BRANCH  11  13
ATOM     13  C   UNL     1       2.153   5.501  19.289  0.00  0.00    +0.000 C 
ATOM     14  C   UNL     1       1.731   4.375  18.349  0.00  0.00    +0.000 C 
ATOM     15  C   UNL     1       2.109   2.981  18.843  0.00  0.00    +0.000 C 
ATOM     16  C   UNL     1       1.715   2.703  20.287  0.00  0.00    +0.000 C 
ATOM     17  C   UNL     1       1.966   3.859  21.257  0.00  0.00    +0.000 C 
ATOM     18  C   UNL     1       1.579   5.228  20.695  0.00  0.00    +0.000 C 
ENDBRANCH  11  13
ENDBRANCH   3  11
BRANCH   4  19
ATOM     19  N   UNL     1       5.995   3.980  19.469  0.00  0.00    +0.000 NA
ATOM     20  O   UNL     1       5.164   3.093  19.706  0.00  0.00    +0.000 OA
ENDBRANCH   4  19
TORSDOF 3
ENDMDL
MODEL 4
REMARK VINA RESULT:      -6.1      2.520      5.508
REMARK  Name = 
REMARK  5 active torsions:
REMARK  status: ('A' for Active; 'I' for Inactive)
REMARK    1  A    between atoms: C_1  and  N_2
REMARK    2  A    between atoms: C_3  and  N_4
REMARK    3  A    between atoms: N_4  and  C_5
REMARK    4  A    between atoms: C_11  and  N_12
REMARK    5  A    between atoms: N_16  and  C_17
REMARK                            x       y       z     vdW  Elec       q    Type
REMARK                         _______ _______ _______ _____ _____    ______ ____
ROOT
ATOM      1  C   UNL     1       4.405   6.678  16.262  0.00  0.00    +0.000 C 
ATOM      2  N   UNL     1       5.239   6.223  17.363  0.00  0.00    +0.000 N 
ATOM      3  C   UNL     1       4.828   5.183  18.200  0.00  0.00    +0.000 A 
ATOM      4  C   UNL     1       5.641   4.829  19.231  0.00  0.00    +0.000 A 
ATOM      5  C   UNL     1       6.937   5.565  19.451  0.00  0.00    +0.000 A 
ATOM      6  O   UNL     1       7.685   5.284  20.389  0.00  0.00    +0.000 OA
ATOM      7  N   UNL     1       7.257   6.545  18.528  0.00  0.00    +0.000 N 
ATOM      8  C   UNL     1       8.514   7.272  18.640  0.00  0.00    +0.000 C 
ATOM      9  C   UNL     1       6.440   6.913  17.487  0.00  0.00    +0.000 A 
ATOM     10  O   UNL     1       6.753   7.815  16.706  0.00  0.00    +0.000 OA
ENDROOT
BRANCH   3  11
ATOM     11  N   UNL     1       3.662   4.490  17.807  0.00  0.00    +0.000 N 
ATOM     12  H   UNL     1       3.702   3.584  18.287  0.00  0.00    +0.000 HD
BRANCH  11  13
ATOM     13  C   UNL     1       2.252   4.916  17.891  0.00  0.00    +0.000 C 
ATOM     14  C   UNL     1       1.215   3.798  17.820  0.00  0.00    +0.000 C 
ATOM     15  C   UNL     1       1.239   2.854  19.018  0.00  0.00    +0.000 C 
ATOM     16  C   UNL     1       1.234   3.557  20.367  0.00  0.00    +0.000 C 
ATOM     17  C   UNL     1       2.137   4.788  20.455  0.00  0.00    +0.000 C 
ATOM     18  C   UNL     1       2.076   5.685  19.217  0.00  0.00    +0.000 C 
ENDBRANCH  11  13
ENDBRANCH   3  11
BRANCH   4  19
ATOM     19  N   UNL     1       5.388   3.849  20.107  0.00  0.00    +0.000 NA
ATOM     20  O   UNL     1       4.973   2.793  19.612  0.00  0.00    +0.000 OA
ENDBRANCH   4  19
TORSDOF 3
ENDMDL
MODEL 5
REMARK VINA RESULT:      -6.0      1.844      3.658
REMARK  Name = 
REMARK  5 active torsions:
REMARK  status: ('A' for Active; 'I' for Inactive)
REMARK    1  A    between atoms: C_1  and  N_2
REMARK    2  A    between atoms: C_3  and  N_4
REMARK    3  A    between atoms: N_4  and  C_5
REMARK    4  A    between atoms: C_11  and  N_12
REMARK    5  A    between atoms: N_16  and  C_17
REMARK                            x       y       z     vdW  Elec       q    Type
REMARK                         _______ _______ _______ _____ _____    ______ ____
ROOT
ATOM      1  C   UNL     1       3.836   6.263  17.957  0.00  0.00    +0.000 C 
ATOM      2  N   UNL     1       3.574   4.918  18.445  0.00  0.00    +0.000 N 
ATOM      3  C   UNL     1       4.591   4.141  19.004  0.00  0.00    +0.000 A 
ATOM      4  C   UNL     1       4.287   2.880  19.411  0.00  0.00    +0.000 A 
ATOM      5  C   UNL     1       2.886   2.355  19.238  0.00  0.00    +0.000 A 
ATOM      6  O   UNL     1       2.582   1.209  19.575  0.00  0.00    +0.000 OA
ATOM      7  N   UNL     1       1.954   3.235  18.714  0.00  0.00    +0.000 N 
ATOM      8  C   UNL     1       0.566   2.822  18.558  0.00  0.00    +0.000 C 
ATOM      9  C   UNL     1       2.254   4.507  18.296  0.00  0.00    +0.000 A 
ATOM     10  O   UNL     1       1.397   5.247  17.806  0.00  0.00    +0.000 OA
ENDROOT
BRANCH   3  11
ATOM     11  N   UNL     1       5.822   4.795  19.232  0.00  0.00    +0.000 N 
ATOM     12  H   UNL     1       5.995   4.719  20.241  0.00  0.00    +0.000 HD
BRANCH  11  13
ATOM     13  C   UNL     1       7.132   4.567  18.592  0.00  0.00    +0.000 C 
ATOM     14  C   UNL     1       7.137   4.577  17.066  0.00  0.00    +0.000 C 
ATOM     15  C   UNL     1       6.818   5.938  16.454  0.00  0.00    +0.000 C 
ATOM     16  C   UNL     1       7.625   7.089  17.038  0.00  0.00    +0.000 C 
ATOM     17  C   UNL     1       7.794   7.050  18.558  0.00  0.00    +0.000 C 
ATOM     18  C   UNL     1       8.097   5.655  19.107  0.00  0.00    +0.000 C 
ENDBRANCH  11  13
ENDBRANCH   3  11
BRANCH   4  19
ATOM     19  N   UNL     1       5.149   2.024  19.973  0.00  0.00    +0.000 NA
ATOM     20  O   UNL     1       5.045   1.900  21.200  0.00  0.00    +0.000 OA
ENDBRANCH   4  19
TORSDOF 3
ENDMDL
MODEL 6
REMARK VINA RESULT:      -6.0      2.827      5.503
REMARK  Name = 
REMARK  5 active torsions:
REMARK  status: ('A' for Active; 'I' for Inactive)
REMARK    1  A    between atoms: C_1  and  N_2
REMARK    2  A    between atoms: C_3  and  N_4
REMARK    3  A    between atoms: N_4  and  C_5
REMARK    4  A    between atoms: C_11  and  N_12
REMARK    5  A    between atoms: N_16  and  C_17
REMARK                            x       y       z     vdW  Elec       q    Type
REMARK                         _______ _______ _______ _____ _____    ______ ____
ROOT
ATOM      1  C   UNL     1       3.910   2.731  16.641  0.00  0.00    +0.000 C 
ATOM      2  N   UNL     1       4.950   3.740  16.771  0.00  0.00    +0.000 N 
ATOM      3  C   UNL     1       5.210   4.357  17.997  0.00  0.00    +0.000 A 
ATOM      4  C   UNL     1       6.174   5.316  18.043  0.00  0.00    +0.000 A 
ATOM      5  C   UNL     1       6.914   5.694  16.787  0.00  0.00    +0.000 A 
ATOM      6  O   UNL     1       7.777   6.574  16.790  0.00  0.00    +0.000 OA
ATOM      7  N   UNL     1       6.601   4.980  15.643  0.00  0.00    +0.000 N 
ATOM      8  C   UNL     1       7.304   5.250  14.397  0.00  0.00    +0.000 C 
ATOM      9  C   UNL     1       5.626   4.014  15.587  0.00  0.00    +0.000 A 
ATOM     10  O   UNL     1       5.358   3.424  14.537  0.00  0.00    +0.000 OA
ENDROOT
BRANCH   3  11
ATOM     11  N   UNL     1       4.543   3.819  19.120  0.00  0.00    +0.000 N 
ATOM     12  H   UNL     1       5.281   3.562  19.785  0.00  0.00    +0.000 HD
BRANCH  11  13
ATOM     13  C   UNL     1       3.467   4.412  19.937  0.00  0.00    +0.000 C 
ATOM     14  C   UNL     1       2.399   5.186  19.170  0.00  0.00    +0.000 C 
ATOM     15  C   UNL     1       1.538   4.316  18.258  0.00  0.00    +0.000 C 
ATOM     16  C   UNL     1       0.975   3.073  18.932  0.00  0.00    +0.000 C 
ATOM     17  C   UNL     1       1.954   2.337  19.847  0.00  0.00    +0.000 C 
ATOM     18  C   UNL     1       2.795   3.267  20.723  0.00  0.00    +0.000 C 
ENDBRANCH  11  13
ENDBRANCH   3  11
BRANCH   4  19
ATOM     19  N   UNL     1       6.541   5.984  19.143  0.00  0.00    +0.000 NA
ATOM     20  O   UNL     1       7.171   5.322  19.977  0.00  0.00    +0.000 OA
ENDBRANCH   4  19
TORSDOF 3
ENDMDL
MODEL 7
REMARK VINA RESULT:      -5.9      2.765      5.331
REMARK  Name = 
REMARK  5 active torsions:
REMARK  status: ('A' for Active; 'I' for Inactive)
REMARK    1  A    between atoms: C_1  and  N_2
REMARK    2  A    between atoms: C_3  and  N_4
REMARK    3  A    between atoms: N_4  and  C_5
REMARK    4  A    between atoms: C_11  and  N_12
REMARK    5  A    between atoms: N_16  and  C_17
REMARK                            x       y       z     vdW  Elec       q    Type
REMARK                         _______ _______ _______ _____ _____    ______ ____
ROOT
ATOM      1  C   UNL     1       5.025   3.448  20.103  0.00  0.00    +0.000 C 
ATOM      2  N   UNL     1       5.396   4.186  18.906  0.00  0.00    +0.000 N 
ATOM      3  C   UNL     1       4.769   3.940  17.682  0.00  0.00    +0.000 A 
ATOM      4  C   UNL     1       5.185   4.642  16.594  0.00  0.00    +0.000 A 
ATOM      5  C   UNL     1       6.304   5.641  16.730  0.00  0.00    +0.000 A 
ATOM      6  O   UNL     1       6.720   6.277  15.760  0.00  0.00    +0.000 OA
ATOM      7  N   UNL     1       6.815   5.831  18.003  0.00  0.00    +0.000 N 
ATOM      8  C   UNL     1       7.866   6.812  18.230  0.00  0.00    +0.000 C 
ATOM      9  C   UNL     1       6.404   5.123  19.105  0.00  0.00    +0.000 A 
ATOM     10  O   UNL     1       6.910   5.303  20.217  0.00  0.00    +0.000 OA
ENDROOT
BRANCH   3  11
ATOM     11  N   UNL     1       3.649   3.080  17.717  0.00  0.00    +0.000 N 
ATOM     12  H   UNL     1       3.704   2.588  18.615  0.00  0.00    +0.000 HD
BRANCH  11  13
ATOM     13  C   UNL     1       2.220   3.402  17.532  0.00  0.00    +0.000 C 
ATOM     14  C   UNL     1       1.238   2.546  18.326  0.00  0.00    +0.000 C 
ATOM     15  C   UNL     1       1.323   2.744  19.837  0.00  0.00    +0.000 C 
ATOM     16  C   UNL     1       1.301   4.201  20.277  0.00  0.00    +0.000 C 
ATOM     17  C   UNL     1       2.145   5.146  19.420  0.00  0.00    +0.000 C 
ATOM     18  C   UNL     1       2.025   4.884  17.917  0.00  0.00    +0.000 C 
ENDBRANCH  11  13
ENDBRANCH   3  11
BRANCH   4  19
ATOM     19  N   UNL     1       4.675   4.524  15.362  0.00  0.00    +0.000 NA
ATOM     20  O   UNL     1       5.367   3.879  14.564  0.00  0.00    +0.000 OA
ENDBRANCH   4  19
TORSDOF 3
ENDMDL
MODEL 8
REMARK VINA RESULT:      -5.8      2.859      4.704
REMARK  Name = 
REMARK  5 active torsions:
REMARK  status: ('A' for Active; 'I' for Inactive)
REMARK    1  A    between atoms: C_1  and  N_2
REMARK    2  A    between atoms: C_3  and  N_4
REMARK    3  A    between atoms: N_4  and  C_5
REMARK    4  A    between atoms: C_11  and  N_12
REMARK    5  A    between atoms: N_16  and  C_17
REMARK                            x       y       z     vdW  Elec       q    Type
REMARK                         _______ _______ _______ _____ _____    ______ ____
ROOT
ATOM      1  C   UNL     1       2.037   5.599  21.041  0.00  0.00    +0.000 C 
ATOM      2  N   UNL     1       2.155   6.626  20.019  0.00  0.00    +0.000 N 
ATOM      3  C   UNL     1       2.919   6.415  18.868  0.00  0.00    +0.000 A 
ATOM      4  C   UNL     1       3.015   7.429  17.966  0.00  0.00    +0.000 A 
ATOM      5  C   UNL     1       2.319   8.738  18.233  0.00  0.00    +0.000 A 
ATOM      6  O   UNL     1       2.404   9.683  17.447  0.00  0.00    +0.000 OA
ATOM      7  N   UNL     1       1.554   8.809  19.384  0.00  0.00    +0.000 N 
ATOM      8  C   UNL     1       0.810  10.023  19.693  0.00  0.00    +0.000 C 
ATOM      9  C   UNL     1       1.456   7.793  20.302  0.00  0.00    +0.000 A 
ATOM     10  O   UNL     1       0.786   7.913  21.332  0.00  0.00    +0.000 OA
ENDROOT
BRANCH   3  11
ATOM     11  N   UNL     1       3.407   5.104  18.674  0.00  0.00    +0.000 N 
ATOM     12  H   UNL     1       3.234   4.610  19.557  0.00  0.00    +0.000 HD
BRANCH  11  13
ATOM     13  C   UNL     1       3.080   4.135  17.611  0.00  0.00    +0.000 C 
ATOM     14  C   UNL     1       3.749   2.768  17.728  0.00  0.00    +0.000 C 
ATOM     15  C   UNL     1       3.284   1.952  18.931  0.00  0.00    +0.000 C 
ATOM     16  C   UNL     1       1.771   1.867  19.080  0.00  0.00    +0.000 C 
ATOM     17  C   UNL     1       1.023   3.174  18.817  0.00  0.00    +0.000 C 
ATOM     18  C   UNL     1       1.548   3.950  17.607  0.00  0.00    +0.000 C 
ENDBRANCH  11  13
ENDBRANCH   3  11
BRANCH   4  19
ATOM     19  N   UNL     1       3.699   7.373  16.817  0.00  0.00    +0.000 NA
ATOM     20  O   UNL     1       4.884   7.029  16.924  0.00  0.00    +0.000 OA
ENDBRANCH   4  19
TORSDOF 3
ENDMDL
MODEL 9
REMARK VINA RESULT:      -5.8      2.026      5.243
REMARK  Name = 
REMARK  5 active torsions:
REMARK  status: ('A' for Active; 'I' for Inactive)
REMARK    1  A    between atoms: C_1  and  N_2
REMARK    2  A    between atoms: C_3  and  N_4
REMARK    3  A    between atoms: N_4  and  C_5
REMARK    4  A    between atoms: C_11  and  N_12
REMARK    5  A    between atoms: N_16  and  C_17
REMARK                            x       y       z     vdW  Elec       q    Type
REMARK                         _______ _______ _______ _____ _____    ______ ____
ROOT
ATOM      1  C   UNL     1       4.234   2.476  17.755  0.00  0.00    +0.000 C 
ATOM      2  N   UNL     1       4.514   3.803  17.230  0.00  0.00    +0.000 N 
ATOM      3  C   UNL     1       3.999   4.947  17.845  0.00  0.00    +0.000 A 
ATOM      4  C   UNL     1       4.271   6.156  17.285  0.00  0.00    +0.000 A 
ATOM      5  C   UNL     1       5.096   6.230  16.026  0.00  0.00    +0.000 A 
ATOM      6  O   UNL     1       5.342   7.307  15.480  0.00  0.00    +0.000 OA
ATOM      7  N   UNL     1       5.589   5.032  15.537  0.00  0.00    +0.000 N 
ATOM      8  C   UNL     1       6.434   5.020  14.351  0.00  0.00    +0.000 C 
ATOM      9  C   UNL     1       5.314   3.807  16.093  0.00  0.00    +0.000 A 
ATOM     10  O   UNL     1       5.751   2.761  15.604  0.00  0.00    +0.000 OA
ENDROOT
BRANCH   3  11
ATOM     11  N   UNL     1       3.358   4.752  19.089  0.00  0.00    +0.000 N 
ATOM     12  H   UNL     1       3.833   5.380  19.747  0.00  0.00    +0.000 HD
BRANCH  11  13
ATOM     13  C   UNL     1       1.924   4.844  19.423  0.00  0.00    +0.000 C 
ATOM     14  C   UNL     1       1.065   3.657  18.998  0.00  0.00    +0.000 C 
ATOM     15  C   UNL     1       1.388   2.362  19.739  0.00  0.00    +0.000 C 
ATOM     16  C   UNL     1       1.458   2.510  21.252  0.00  0.00    +0.000 C 
ATOM     17  C   UNL     1       2.171   3.770  21.745  0.00  0.00    +0.000 C 
ATOM     18  C   UNL     1       1.814   5.028  20.951  0.00  0.00    +0.000 C 
ENDBRANCH  11  13
ENDBRANCH   3  11
BRANCH   4  19
ATOM     19  N   UNL     1       3.859   7.336  17.763  0.00  0.00    +0.000 NA
ATOM     20  O   UNL     1       2.649   7.564  17.634  0.00  0.00    +0.000 OA
ENDBRANCH   4  19
TORSDOF 3
ENDMDL
