MODEL 1
REMARK VINA RESULT:      -6.5      0.000      0.000
REMARK  Name = 
REMARK  5 active torsions:
REMARK  status: ('A' for Active; 'I' for Inactive)
REMARK    1  A    between atoms: C_1  and  C_2
REMARK    2  A    between atoms: C_2  and  S_3
REMARK    3  A    between atoms: S_3  and  C_4
REMARK    4  A    between atoms: C_11  and  C_12
REMARK    5  A    between atoms: C_15  and  C_16
REMARK                            x       y       z     vdW  Elec       q    Type
REMARK                         _______ _______ _______ _____ _____    ______ ____
ROOT
ATOM      1  C   UNL     1       4.214   2.380  19.916  0.00  0.00    +0.000 A 
ATOM      2  N   UNL     1       2.905   2.540  20.220  0.00  0.00    +0.000 NA
ATOM      3  N   UNL     1       2.343   3.792  20.165  0.00  0.00    +0.000 NA
ATOM      4  C   UNL     1       3.114   4.834  19.789  0.00  0.00    +0.000 A 
ATOM      5  C   UNL     1       4.439   4.589  19.460  0.00  0.00    +0.000 A 
ATOM      6  N   UNL     1       5.024   3.377  19.541  0.00  0.00    +0.000 NA
ATOM      7  O   UNL     1       5.297   5.623  19.197  0.00  0.00    +0.000 OA
ATOM      8  C   UNL     1       5.053   6.289  17.949  0.00  0.00    +0.000 C 
ATOM      9  N   UNL     1       3.653   6.602  17.621  0.00  0.00    +0.000 N 
ATOM     10  C   UNL     1       2.830   7.036  18.670  0.00  0.00    +0.000 A 
ATOM     11  C   UNL     1       2.278   8.324  18.632  0.00  0.00    +0.000 A 
ATOM     12  C   UNL     1       1.439   8.769  19.652  0.00  0.00    +0.000 A 
ATOM     13  C   UNL     1       1.127   7.923  20.713  0.00  0.00    +0.000 A 
ATOM     14  C   UNL     1       1.660   6.632  20.757  0.00  0.00    +0.000 A 
ATOM     15  C   UNL     1       2.526   6.175  19.749  0.00  0.00    +0.000 A 
ATOM     16  H   UNL     1       3.633   7.241  16.830  0.00  0.00    +0.000 HD
ENDROOT
BRANCH   8  17
ATOM     17  C   UNL     1       5.734   5.495  16.859  0.00  0.00    +0.000 A 
ATOM     18  C   UNL     1       6.984   4.909  16.886  0.00  0.00    +0.000 A 
ATOM     19  C   UNL     1       7.298   4.239  15.671  0.00  0.00    +0.000 A 
ATOM     20  C   UNL     1       6.275   4.327  14.750  0.00  0.00    +0.000 A 
ATOM     21  C   UNL     1       6.224   3.760  13.374  0.00  0.00    +0.000 C 
ATOM     22  S   UNL     1       4.949   5.215  15.361  0.00  0.00    +0.000 S 
ENDBRANCH   8  17
BRANCH   1  23
ATOM     23  S   UNL     1       4.959   0.786  20.139  0.00  0.00    +0.000 S 
BRANCH  23  25
ATOM     24  C   UNL     1       6.376  -0.265  22.217  0.00  0.00    +0.000 C 
ATOM     25  C   UNL     1       5.618   0.992  21.820  0.00  0.00    +0.000 C 
ENDBRANCH  23  25
ENDBRANCH   1  23
TORSDOF 3
ENDMDL
MODEL 2
REMARK VINA RESULT:      -6.4      2.179      5.319
REMARK  Name = 
REMARK  5 active torsions:
REMARK  status: ('A' for Active; 'I' for Inactive)
REMARK    1  A    between atoms: C_1  and  C_2
REMARK    2  A    between atoms: C_2  and  S_3
REMARK    3  A    between atoms: S_3  and  C_4
REMARK    4  A    between atoms: C_11  and  C_12
REMARK    5  A    between atoms: C_15  and  C_16
REMARK                            x       y       z     vdW  Elec       q    Type
REMARK                         _______ _______ _______ _____ _____    ______ ____
ROOT
ATOM      1  C   UNL     1       2.329   7.930  18.455  0.00  0.00    +0.000 A 
ATOM      2  N   UNL     1       2.080   7.869  19.784  0.00  0.00    +0.000 NA
ATOM      3  N   UNL     1       2.102   6.654  20.425  0.00  0.00    +0.000 NA
ATOM      4  C   UNL     1       2.391   5.548  19.709  0.00  0.00    +0.000 A 
ATOM      5  C   UNL     1       2.669   5.690  18.357  0.00  0.00    +0.000 A 
ATOM      6  N   UNL     1       2.617   6.865  17.697  0.00  0.00    +0.000 NA
ATOM      7  O   UNL     1       2.843   4.593  17.558  0.00  0.00    +0.000 OA
ATOM      8  C   UNL     1       4.068   3.882  17.791  0.00  0.00    +0.000 C 
ATOM      9  N   UNL     1       4.447   3.643  19.192  0.00  0.00    +0.000 N 
ATOM     10  C   UNL     1       3.418   3.315  20.088  0.00  0.00    +0.000 A 
ATOM     11  C   UNL     1       3.422   2.065  20.721  0.00  0.00    +0.000 A 
ATOM     12  C   UNL     1       2.423   1.726  21.632  0.00  0.00    +0.000 A 
ATOM     13  C   UNL     1       1.418   2.642  21.934  0.00  0.00    +0.000 A 
ATOM     14  C   UNL     1       1.410   3.897  21.319  0.00  0.00    +0.000 A 
ATOM     15  C   UNL     1       2.396   4.247  20.381  0.00  0.00    +0.000 A 
ATOM     16  H   UNL     1       5.206   2.968  19.220  0.00  0.00    +0.000 HD
ENDROOT
BRANCH   8  17
ATOM     17  C   UNL     1       5.161   4.574  17.012  0.00  0.00    +0.000 A 
ATOM     18  C   UNL     1       5.995   5.590  17.436  0.00  0.00    +0.000 A 
ATOM     19  C   UNL     1       6.910   6.000  16.426  0.00  0.00    +0.000 A 
ATOM     20  C   UNL     1       6.754   5.280  15.260  0.00  0.00    +0.000 A 
ATOM     21  C   UNL     1       7.516   5.412  13.988  0.00  0.00    +0.000 C 
ATOM     22  S   UNL     1       5.507   4.120  15.396  0.00  0.00    +0.000 S 
ENDBRANCH   8  17
BRANCH   1  23
ATOM     23  S   UNL     1       2.146   9.482  17.617  0.00  0.00    +0.000 S 
BRANCH  23  25
ATOM     24  C   UNL     1      -0.369  10.217  18.368  0.00  0.00    +0.000 C 
ATOM     25  C   UNL     1       1.081  10.346  18.808  0.00  0.00    +0.000 C 
ENDBRANCH  23  25
ENDBRANCH   1  23
TORSDOF 3
ENDMDL
MODEL 3
REMARK VINA RESULT:      -6.4      2.483      5.618
REMARK  Name = 
REMARK  5 active torsions:
REMARK  status: ('A' for Active; 'I' for Inactive)
REMARK    1  A    between atoms: C_1  and  C_2
REMARK    2  A    between atoms: C_2  and  S_3
REMARK    3  A    between atoms: S_3  and  C_4
REMARK    4  A    between atoms: C_11  and  C_12
REMARK    5  A    between atoms: C_15  and  C_16
REMARK                            x       y       z     vdW  Elec       q    Type
REMARK                         _______ _______ _______ _____ _____    ______ ____
ROOT
ATOM      1  C   UNL     1       2.057   8.251  18.726  0.00  0.00    +0.000 A 
ATOM      2  N   UNL     1       1.626   8.047  19.993  0.00  0.00    +0.000 NA
ATOM      3  N   UNL     1       1.693   6.789  20.539  0.00  0.00    +0.000 NA
ATOM      4  C   UNL     1       2.207   5.785  19.797  0.00  0.00    +0.000 A 
ATOM      5  C   UNL     1       2.659   6.075  18.519  0.00  0.00    +0.000 A 
ATOM      6  N   UNL     1       2.571   7.293  17.946  0.00  0.00    +0.000 NA
ATOM      7  O   UNL     1       3.070   5.076  17.678  0.00  0.00    +0.000 OA
ATOM      8  C   UNL     1       4.321   4.475  18.043  0.00  0.00    +0.000 C 
ATOM      9  N   UNL     1       4.517   4.151  19.466  0.00  0.00    +0.000 N 
ATOM     10  C   UNL     1       3.413   3.643  20.166  0.00  0.00    +0.000 A 
ATOM     11  C   UNL     1       3.467   2.348  20.699  0.00  0.00    +0.000 A 
ATOM     12  C   UNL     1       2.391   1.830  21.418  0.00  0.00    +0.000 A 
ATOM     13  C   UNL     1       1.256   2.609  21.628  0.00  0.00    +0.000 A 
ATOM     14  C   UNL     1       1.195   3.907  21.113  0.00  0.00    +0.000 A 
ATOM     15  C   UNL     1       2.261   4.437  20.366  0.00  0.00    +0.000 A 
ATOM     16  H   UNL     1       5.336   3.557  19.560  0.00  0.00    +0.000 HD
ENDROOT
BRANCH   8  17
ATOM     17  C   UNL     1       5.430   5.341  17.495  0.00  0.00    +0.000 A 
ATOM     18  C   UNL     1       5.965   5.334  16.222  0.00  0.00    +0.000 A 
ATOM     19  C   UNL     1       7.004   6.292  16.062  0.00  0.00    +0.000 A 
ATOM     20  C   UNL     1       7.229   7.011  17.217  0.00  0.00    +0.000 A 
ATOM     21  C   UNL     1       8.225   8.094  17.448  0.00  0.00    +0.000 C 
ATOM     22  S   UNL     1       6.186   6.522  18.480  0.00  0.00    +0.000 S 
ENDBRANCH   8  17
BRANCH   1  23
ATOM     23  S   UNL     1       1.823   9.845  17.985  0.00  0.00    +0.000 S 
BRANCH  23  25
ATOM     24  C   UNL     1      -0.847  10.325  18.252  0.00  0.00    +0.000 C 
ATOM     25  C   UNL     1       0.461  10.462  19.017  0.00  0.00    +0.000 C 
ENDBRANCH  23  25
ENDBRANCH   1  23
TORSDOF 3
ENDMDL
MODEL 4
REMARK VINA RESULT:      -6.2      2.010      4.937
REMARK  Name = 
REMARK  5 active torsions:
REMARK  status: ('A' for Active; 'I' for Inactive)
REMARK    1  A    between atoms: C_1  and  C_2
REMARK    2  A    between atoms: C_2  and  S_3
REMARK    3  A    between atoms: S_3  and  C_4
REMARK    4  A    between atoms: C_11  and  C_12
REMARK    5  A    between atoms: C_15  and  C_16
REMARK                            x       y       z     vdW  Elec       q    Type
REMARK                         _______ _______ _______ _____ _____    ______ ____
ROOT
ATOM      1  C   UNL     1       4.667   5.266  16.562  0.00  0.00    +0.000 A 
ATOM      2  N   UNL     1       5.051   6.564  16.545  0.00  0.00    +0.000 NA
ATOM      3  N   UNL     1       4.292   7.506  17.197  0.00  0.00    +0.000 NA
ATOM      4  C   UNL     1       3.185   7.104  17.857  0.00  0.00    +0.000 A 
ATOM      5  C   UNL     1       2.872   5.753  17.859  0.00  0.00    +0.000 A 
ATOM      6  N   UNL     1       3.578   4.814  17.196  0.00  0.00    +0.000 NA
ATOM      7  O   UNL     1       1.697   5.307  18.401  0.00  0.00    +0.000 OA
ATOM      8  C   UNL     1       1.645   5.377  19.833  0.00  0.00    +0.000 C 
ATOM      9  N   UNL     1       2.140   6.613  20.462  0.00  0.00    +0.000 N 
ATOM     10  C   UNL     1       1.839   7.823  19.819  0.00  0.00    +0.000 A 
ATOM     11  C   UNL     1       1.041   8.774  20.471  0.00  0.00    +0.000 A 
ATOM     12  C   UNL     1       0.748   9.993  19.862  0.00  0.00    +0.000 A 
ATOM     13  C   UNL     1       1.266  10.282  18.602  0.00  0.00    +0.000 A 
ATOM     14  C   UNL     1       2.074   9.348  17.948  0.00  0.00    +0.000 A 
ATOM     15  C   UNL     1       2.361   8.105  18.537  0.00  0.00    +0.000 A 
ATOM     16  H   UNL     1       1.864   6.621  21.440  0.00  0.00    +0.000 HD
ENDROOT
BRANCH   8  17
ATOM     17  C   UNL     1       2.322   4.144  20.383  0.00  0.00    +0.000 A 
ATOM     18  C   UNL     1       1.838   3.254  21.322  0.00  0.00    +0.000 A 
ATOM     19  C   UNL     1       2.757   2.204  21.601  0.00  0.00    +0.000 A 
ATOM     20  C   UNL     1       3.916   2.318  20.863  0.00  0.00    +0.000 A 
ATOM     21  C   UNL     1       5.106   1.422  20.872  0.00  0.00    +0.000 C 
ATOM     22  S   UNL     1       3.883   3.688  19.841  0.00  0.00    +0.000 S 
ENDBRANCH   8  17
BRANCH   1  23
ATOM     23  S   UNL     1       5.571   4.091  15.590  0.00  0.00    +0.000 S 
BRANCH  23  25
ATOM     24  C   UNL     1       7.585   4.495  17.382  0.00  0.00    +0.000 C 
ATOM     25  C   UNL     1       7.263   4.672  15.906  0.00  0.00    +0.000 C 
ENDBRANCH  23  25
ENDBRANCH   1  23
TORSDOF 3
ENDMDL
MODEL 5
REMARK VINA RESULT:      -6.2      1.634      2.101
REMARK  Name = 
REMARK  5 active torsions:
REMARK  status: ('A' for Active; 'I' for Inactive)
REMARK    1  A    between atoms: C_1  and  C_2
REMARK    2  A    between atoms: C_2  and  S_3
REMARK    3  A    between atoms: S_3  and  C_4
REMARK    4  A    between atoms: C_11  and  C_12
REMARK    5  A    between atoms: C_15  and  C_16
REMARK                            x       y       z     vdW  Elec       q    Type
REMARK                         _______ _______ _______ _____ _____    ______ ____
ROOT
ATOM      1  C   UNL     1       2.757   3.947  20.555  0.00  0.00    +0.000 A 
ATOM      2  N   UNL     1       1.535   4.445  20.856  0.00  0.00    +0.000 NA
ATOM      3  N   UNL     1       1.226   5.740  20.519  0.00  0.00    +0.000 NA
ATOM      4  C   UNL     1       2.153   6.482  19.876  0.00  0.00    +0.000 A 
ATOM      5  C   UNL     1       3.372   5.895  19.570  0.00  0.00    +0.000 A 
ATOM      6  N   UNL     1       3.713   4.638  19.923  0.00  0.00    +0.000 NA
ATOM      7  O   UNL     1       4.391   6.635  19.035  0.00  0.00    +0.000 OA
ATOM      8  C   UNL     1       4.180   7.032  17.673  0.00  0.00    +0.000 C 
ATOM      9  N   UNL     1       2.846   7.549  17.326  0.00  0.00    +0.000 N 
ATOM     10  C   UNL     1       2.214   8.376  18.267  0.00  0.00    +0.000 A 
ATOM     11  C   UNL     1       1.925   9.708  17.937  0.00  0.00    +0.000 A 
ATOM     12  C   UNL     1       1.278  10.541  18.846  0.00  0.00    +0.000 A 
ATOM     13  C   UNL     1       0.895  10.047  20.091  0.00  0.00    +0.000 A 
ATOM     14  C   UNL     1       1.167   8.718  20.428  0.00  0.00    +0.000 A 
ATOM     15  C   UNL     1       1.839   7.870  19.532  0.00  0.00    +0.000 A 
ATOM     16  H   UNL     1       2.885   7.979  16.406  0.00  0.00    +0.000 HD
ENDROOT
BRANCH   8  17
ATOM     17  C   UNL     1       4.598   5.885  16.784  0.00  0.00    +0.000 A 
ATOM     18  C   UNL     1       4.280   4.548  16.915  0.00  0.00    +0.000 A 
ATOM     19  C   UNL     1       4.854   3.748  15.888  0.00  0.00    +0.000 A 
ATOM     20  C   UNL     1       5.590   4.499  14.996  0.00  0.00    +0.000 A 
ATOM     21  C   UNL     1       6.337   4.032  13.795  0.00  0.00    +0.000 C 
ATOM     22  S   UNL     1       5.579   6.158  15.406  0.00  0.00    +0.000 S 
ENDBRANCH   8  17
BRANCH   1  23
ATOM     23  S   UNL     1       3.191   2.328  21.132  0.00  0.00    +0.000 S 
BRANCH  23  25
ATOM     24  C   UNL     1       3.605   1.374  18.613  0.00  0.00    +0.000 C 
ATOM     25  C   UNL     1       4.371   1.850  19.837  0.00  0.00    +0.000 C 
ENDBRANCH  23  25
ENDBRANCH   1  23
TORSDOF 3
ENDMDL
MODEL 6
REMARK VINA RESULT:      -6.2      2.584      6.602
REMARK  Name = 
REMARK  5 active torsions:
REMARK  status: ('A' for Active; 'I' for Inactive)
REMARK    1  A    between atoms: C_1  and  C_2
REMARK    2  A    between atoms: C_2  and  S_3
REMARK    3  A    between atoms: S_3  and  C_4
REMARK    4  A    between atoms: C_11  and  C_12
REMARK    5  A    between atoms: C_15  and  C_16
REMARK                            x       y       z     vdW  Elec       q    Type
REMARK                         _______ _______ _______ _____ _____    ______ ____
ROOT
ATOM      1  C   UNL     1       2.264   8.110  18.743  0.00  0.00    +0.000 A 
ATOM      2  N   UNL     1       2.420   8.403  17.430  0.00  0.00    +0.000 NA
ATOM      3  N   UNL     1       3.271   7.649  16.661  0.00  0.00    +0.000 NA
ATOM      4  C   UNL     1       3.922   6.615  17.236  0.00  0.00    +0.000 A 
ATOM      5  C   UNL     1       3.688   6.353  18.577  0.00  0.00    +0.000 A 
ATOM      6  N   UNL     1       2.886   7.100  19.364  0.00  0.00    +0.000 NA
ATOM      7  O   UNL     1       4.413   5.401  19.241  0.00  0.00    +0.000 OA
ATOM      8  C   UNL     1       4.099   4.052  18.866  0.00  0.00    +0.000 C 
ATOM      9  N   UNL     1       3.958   3.773  17.428  0.00  0.00    +0.000 N 
ATOM     10  C   UNL     1       4.855   4.413  16.560  0.00  0.00    +0.000 A 
ATOM     11  C   UNL     1       5.746   3.647  15.795  0.00  0.00    +0.000 A 
ATOM     12  C   UNL     1       6.630   4.259  14.909  0.00  0.00    +0.000 A 
ATOM     13  C   UNL     1       6.621   5.644  14.764  0.00  0.00    +0.000 A 
ATOM     14  C   UNL     1       5.729   6.418  15.511  0.00  0.00    +0.000 A 
ATOM     15  C   UNL     1       4.847   5.819  16.426  0.00  0.00    +0.000 A 
ATOM     16  H   UNL     1       3.941   2.766  17.286  0.00  0.00    +0.000 HD
ENDROOT
BRANCH   8  17
ATOM     17  C   UNL     1       2.885   3.621  19.655  0.00  0.00    +0.000 A 
ATOM     18  C   UNL     1       1.556   3.739  19.302  0.00  0.00    +0.000 A 
ATOM     19  C   UNL     1       0.680   3.223  20.297  0.00  0.00    +0.000 A 
ATOM     20  C   UNL     1       1.366   2.719  21.382  0.00  0.00    +0.000 A 
ATOM     21  C   UNL     1       0.810   2.098  22.616  0.00  0.00    +0.000 C 
ATOM     22  S   UNL     1       3.057   2.873  21.187  0.00  0.00    +0.000 S 
ENDBRANCH   8  17
BRANCH   1  23
ATOM     23  S   UNL     1       1.282   9.186  19.754  0.00  0.00    +0.000 S 
BRANCH  23  25
ATOM     24  C   UNL     1      -0.250   8.473  21.893  0.00  0.00    +0.000 C 
ATOM     25  C   UNL     1       1.060   8.118  21.207  0.00  0.00    +0.000 C 
ENDBRANCH  23  25
ENDBRANCH   1  23
TORSDOF 3
ENDMDL
MODEL 7
REMARK VINA RESULT:      -6.2      1.970      5.203
REMARK  Name = 
REMARK  5 active torsions:
REMARK  status: ('A' for Active; 'I' for Inactive)
REMARK    1  A    between atoms: C_1  and  C_2
REMARK    2  A    between atoms: C_2  and  S_3
REMARK    3  A    between atoms: S_3  and  C_4
REMARK    4  A    between atoms: C_11  and  C_12
REMARK    5  A    between atoms: C_15  and  C_16
REMARK                            x       y       z     vdW  Elec       q    Type
REMARK                         _______ _______ _______ _____ _____    ______ ____
ROOT
ATOM      1  C   UNL     1       4.948   5.107  16.555  0.00  0.00    +0.000 A 
ATOM      2  N   UNL     1       5.330   6.406  16.540  0.00  0.00    +0.000 NA
ATOM      3  N   UNL     1       4.542   7.354  17.146  0.00  0.00    +0.000 NA
ATOM      4  C   UNL     1       3.408   6.958  17.762  0.00  0.00    +0.000 A 
ATOM      5  C   UNL     1       3.097   5.606  17.767  0.00  0.00    +0.000 A 
ATOM      6  N   UNL     1       3.833   4.661  17.148  0.00  0.00    +0.000 NA
ATOM      7  O   UNL     1       1.901   5.165  18.264  0.00  0.00    +0.000 OA
ATOM      8  C   UNL     1       1.786   5.252  19.691  0.00  0.00    +0.000 C 
ATOM      9  N   UNL     1       2.252   6.496  20.325  0.00  0.00    +0.000 N 
ATOM     10  C   UNL     1       1.977   7.698  19.655  0.00  0.00    +0.000 A 
ATOM     11  C   UNL     1       1.150   8.655  20.259  0.00  0.00    +0.000 A 
ATOM     12  C   UNL     1       0.882   9.866  19.624  0.00  0.00    +0.000 A 
ATOM     13  C   UNL     1       1.454  10.141  18.384  0.00  0.00    +0.000 A 
ATOM     14  C   UNL     1       2.291   9.201  17.777  0.00  0.00    +0.000 A 
ATOM     15  C   UNL     1       2.554   7.966  18.393  0.00  0.00    +0.000 A 
ATOM     16  H   UNL     1       1.934   6.516  21.290  0.00  0.00    +0.000 HD
ENDROOT
BRANCH   8  17
ATOM     17  C   UNL     1       2.441   4.028  20.286  0.00  0.00    +0.000 A 
ATOM     18  C   UNL     1       1.918   3.149  21.213  0.00  0.00    +0.000 A 
ATOM     19  C   UNL     1       2.825   2.104  21.545  0.00  0.00    +0.000 A 
ATOM     20  C   UNL     1       4.015   2.211  20.856  0.00  0.00    +0.000 A 
ATOM     21  C   UNL     1       5.204   1.318  20.928  0.00  0.00    +0.000 C 
ATOM     22  S   UNL     1       4.024   3.568  19.817  0.00  0.00    +0.000 S 
ENDBRANCH   8  17
BRANCH   1  23
ATOM     23  S   UNL     1       5.895   3.922  15.638  0.00  0.00    +0.000 S 
BRANCH  23  25
ATOM     24  C   UNL     1       6.203   3.548  12.956  0.00  0.00    +0.000 C 
ATOM     25  C   UNL     1       5.437   4.408  13.949  0.00  0.00    +0.000 C 
ENDBRANCH  23  25
ENDBRANCH   1  23
TORSDOF 3
ENDMDL
MODEL 8
REMARK VINA RESULT:      -6.2      1.723      5.143
REMARK  Name = 
REMARK  5 active torsions:
REMARK  status: ('A' for Active; 'I' for Inactive)
REMARK    1  A    between atoms: C_1  and  C_2
REMARK    2  A    between atoms: C_2  and  S_3
REMARK    3  A    between atoms: S_3  and  C_4
REMARK    4  A    between atoms: C_11  and  C_12
REMARK    5  A    between atoms: C_15  and  C_16
REMARK                            x       y       z     vdW  Elec       q    Type
REMARK                         _______ _______ _______ _____ _____    ______ ____
ROOT
ATOM      1  C   UNL     1       5.732   5.340  15.941  0.00  0.00    +0.000 A 
ATOM      2  N   UNL     1       5.987   6.632  16.256  0.00  0.00    +0.000 NA
ATOM      3  N   UNL     1       5.090   7.334  17.023  0.00  0.00    +0.000 NA
ATOM      4  C   UNL     1       3.978   6.707  17.460  0.00  0.00    +0.000 A 
ATOM      5  C   UNL     1       3.799   5.373  17.126  0.00  0.00    +0.000 A 
ATOM      6  N   UNL     1       4.645   4.671  16.344  0.00  0.00    +0.000 NA
ATOM      7  O   UNL     1       2.633   4.724  17.433  0.00  0.00    +0.000 OA
ATOM      8  C   UNL     1       2.459   4.454  18.831  0.00  0.00    +0.000 C 
ATOM      9  N   UNL     1       2.779   5.543  19.768  0.00  0.00    +0.000 N 
ATOM     10  C   UNL     1       2.414   6.843  19.388  0.00  0.00    +0.000 A 
ATOM     11  C   UNL     1       1.477   7.552  20.152  0.00  0.00    +0.000 A 
ATOM     12  C   UNL     1       1.116   8.854  19.807  0.00  0.00    +0.000 A 
ATOM     13  C   UNL     1       1.704   9.468  18.704  0.00  0.00    +0.000 A 
ATOM     14  C   UNL     1       2.649   8.777  17.941  0.00  0.00    +0.000 A 
ATOM     15  C   UNL     1       3.007   7.456  18.261  0.00  0.00    +0.000 A 
ATOM     16  H   UNL     1       2.425   5.302  20.690  0.00  0.00    +0.000 HD
ENDROOT
BRANCH   8  17
ATOM     17  C   UNL     1       3.207   3.182  19.155  0.00  0.00    +0.000 A 
ATOM     18  C   UNL     1       3.271   2.020  18.413  0.00  0.00    +0.000 A 
ATOM     19  C   UNL     1       4.074   1.022  19.032  0.00  0.00    +0.000 A 
ATOM     20  C   UNL     1       4.607   1.453  20.228  0.00  0.00    +0.000 A 
ATOM     21  C   UNL     1       5.492   0.706  21.164  0.00  0.00    +0.000 C 
ATOM     22  S   UNL     1       4.134   3.054  20.591  0.00  0.00    +0.000 S 
ENDBRANCH   8  17
BRANCH   1  23
ATOM     23  S   UNL     1       6.822   4.496  14.826  0.00  0.00    +0.000 S 
BRANCH  23  25
ATOM     24  C   UNL     1       6.350   3.463  12.348  0.00  0.00    +0.000 C 
ATOM     25  C   UNL     1       5.613   3.921  13.597  0.00  0.00    +0.000 C 
ENDBRANCH  23  25
ENDBRANCH   1  23
TORSDOF 3
ENDMDL
MODEL 9
REMARK VINA RESULT:      -6.2      9.653     11.980
REMARK  Name = 
REMARK  5 active torsions:
REMARK  status: ('A' for Active; 'I' for Inactive)
REMARK    1  A    between atoms: C_1  and  C_2
REMARK    2  A    between atoms: C_2  and  S_3
REMARK    3  A    between atoms: S_3  and  C_4
REMARK    4  A    between atoms: C_11  and  C_12
REMARK    5  A    between atoms: C_15  and  C_16
REMARK                            x       y       z     vdW  Elec       q    Type
REMARK                         _______ _______ _______ _____ _____    ______ ____
ROOT
ATOM      1  C   UNL     1       5.978  15.343  19.332  0.00  0.00    +0.000 A 
ATOM      2  N   UNL     1       6.185  14.778  18.119  0.00  0.00    +0.000 NA
ATOM      3  N   UNL     1       7.337  14.066  17.889  0.00  0.00    +0.000 NA
ATOM      4  C   UNL     1       8.230  13.934  18.892  0.00  0.00    +0.000 A 
ATOM      5  C   UNL     1       7.935  14.512  20.118  0.00  0.00    +0.000 A 
ATOM      6  N   UNL     1       6.830  15.247  20.359  0.00  0.00    +0.000 NA
ATOM      7  O   UNL     1       8.858  14.520  21.129  0.00  0.00    +0.000 OA
ATOM      8  C   UNL     1       9.087  13.236  21.728  0.00  0.00    +0.000 C 
ATOM      9  N   UNL     1       9.236  12.089  20.817  0.00  0.00    +0.000 N 
ATOM     10  C   UNL     1       9.954  12.303  19.631  0.00  0.00    +0.000 A 
ATOM     11  C   UNL     1      11.146  11.599  19.406  0.00  0.00    +0.000 A 
ATOM     12  C   UNL     1      11.864  11.777  18.225  0.00  0.00    +0.000 A 
ATOM     13  C   UNL     1      11.388  12.647  17.247  0.00  0.00    +0.000 A 
ATOM     14  C   UNL     1      10.195  13.345  17.453  0.00  0.00    +0.000 A 
ATOM     15  C   UNL     1       9.470  13.195  18.647  0.00  0.00    +0.000 A 
ATOM     16  H   UNL     1       9.591  11.294  21.340  0.00  0.00    +0.000 HD
ENDROOT
BRANCH   8  17
ATOM     17  C   UNL     1       8.011  13.008  22.763  0.00  0.00    +0.000 A 
ATOM     18  C   UNL     1       7.258  11.870  22.972  0.00  0.00    +0.000 A 
ATOM     19  C   UNL     1       6.332  12.018  24.042  0.00  0.00    +0.000 A 
ATOM     20  C   UNL     1       6.409  13.264  24.626  0.00  0.00    +0.000 A 
ATOM     21  C   UNL     1       5.612  13.798  25.766  0.00  0.00    +0.000 C 
ATOM     22  S   UNL     1       7.595  14.241  23.879  0.00  0.00    +0.000 S 
ENDBRANCH   8  17
BRANCH   1  23
ATOM     23  S   UNL     1       4.561  16.384  19.563  0.00  0.00    +0.000 S 
BRANCH  23  25
ATOM     24  C   UNL     1       3.064  16.691  17.307  0.00  0.00    +0.000 C 
ATOM     25  C   UNL     1       3.437  15.643  18.344  0.00  0.00    +0.000 C 
ENDBRANCH  23  25
ENDBRANCH   1  23
TORSDOF 3
ENDMDL
