MODEL 1
REMARK VINA RESULT:      -7.8      0.000      0.000
REMARK  Name = 
REMARK  11 active torsions:
REMARK  status: ('A' for Active; 'I' for Inactive)
REMARK    1  A    between atoms: C_1  and  C_2
REMARK    2  A    between atoms: C_2  and  C_3
REMARK    3  A    between atoms: C_3  and  O_4
REMARK    4  A    between atoms: O_4  and  C_5
REMARK    5  A    between atoms: C_11  and  C_12
REMARK    6  A    between atoms: C_14  and  C_15
REMARK    7  A    between atoms: N_17  and  C_18
REMARK    8  A    between atoms: C_20  and  O_21
REMARK    9  A    between atoms: O_21  and  C_22
REMARK   10  A    between atoms: C_25  and  O_26
REMARK   11  A    between atoms: O_26  and  C_27
REMARK                            x       y       z     vdW  Elec       q    Type
REMARK                         _______ _______ _______ _____ _____    ______ ____
ROOT
ATOM      1  C   UNL     1       7.309   6.567  17.566  0.00  0.00    +0.000 A 
ATOM      2  C   UNL     1       7.380   7.961  17.297  0.00  0.00    +0.000 A 
ATOM      3  C   UNL     1       8.198   8.497  18.263  0.00  0.00    +0.000 A 
ATOM      4  N   UNL     1       8.574   7.437  19.036  0.00  0.00    +0.000 N 
ATOM      5  N   UNL     1       8.033   6.268  18.659  0.00  0.00    +0.000 NA
ATOM      6  H   UNL     1       9.184   7.464  19.846  0.00  0.00    +0.000 HD
ENDROOT
BRANCH   1  13
ATOM      7  C   UNL     1       5.388   4.913  17.413  0.00  0.00    +0.000 A 
ATOM      8  C   UNL     1       4.765   3.873  16.704  0.00  0.00    +0.000 A 
ATOM      9  C   UNL     1       5.240   3.477  15.453  0.00  0.00    +0.000 A 
ATOM     10  C   UNL     1       6.329   4.128  14.896  0.00  0.00    +0.000 A 
ATOM     11  F   UNL     1       6.777   3.750  13.694  0.00  0.00    +0.000 F 
ATOM     12  C   UNL     1       6.969   5.153  15.577  0.00  0.00    +0.000 A 
ATOM     13  C   UNL     1       6.527   5.546  16.854  0.00  0.00    +0.000 A 
BRANCH   7  14
ATOM     14  O   UNL     1       4.944   5.361  18.632  0.00  0.00    +0.000 OA
BRANCH  14  15
ATOM     15  C   UNL     1       3.625   5.901  18.700  0.00  0.00    +0.000 C 
BRANCH  15  17
ATOM     16  C   UNL     1       2.281   7.907  18.025  0.00  0.00    +0.000 C 
ATOM     17  C   UNL     1       3.530   7.089  17.747  0.00  0.00    +0.000 C 
ENDBRANCH  15  17
ENDBRANCH  14  15
ENDBRANCH   7  14
ENDBRANCH   1  13
BRANCH   3  18
ATOM     18  C   UNL     1       8.661   9.832  18.530  0.00  0.00    +0.000 C 
ATOM     19  O   UNL     1       8.563  10.713  17.684  0.00  0.00    +0.000 OA
ATOM     20  N   UNL     1       9.270   9.997  19.762  0.00  0.00    +0.000 N 
ATOM     21  H   UNL     1       9.611   9.176  20.238  0.00  0.00    +0.000 HD
BRANCH  20  22
ATOM     22  C   UNL     1       9.742  11.242  20.219  0.00  0.00    +0.000 A 
ATOM     23  C   UNL     1      10.758  11.892  19.501  0.00  0.00    +0.000 A 
ATOM     24  C   UNL     1      11.198  13.169  19.857  0.00  0.00    +0.000 A 
ATOM     25  C   UNL     1      10.631  13.795  20.963  0.00  0.00    +0.000 A 
ATOM     26  C   UNL     1       9.616  13.156  21.686  0.00  0.00    +0.000 A 
ATOM     27  C   UNL     1       9.158  11.886  21.318  0.00  0.00    +0.000 A 
BRANCH  24  28
ATOM     28  O   UNL     1      12.160  13.687  19.036  0.00  0.00    +0.000 OA
ATOM     29  C   UNL     1      12.332  15.097  19.055  0.00  0.00    +0.000 C 
ENDBRANCH  24  28
BRANCH  27  30
ATOM     30  O   UNL     1       8.131  11.404  22.087  0.00  0.00    +0.000 OA
ATOM     31  C   UNL     1       8.168  11.728  23.475  0.00  0.00    +0.000 C 
ENDBRANCH  27  30
ENDBRANCH  20  22
ENDBRANCH   3  18
TORSDOF 8
ENDMDL
MODEL 2
REMARK VINA RESULT:      -7.8      6.034      8.031
REMARK  Name = 
REMARK  11 active torsions:
REMARK  status: ('A' for Active; 'I' for Inactive)
REMARK    1  A    between atoms: C_1  and  C_2
REMARK    2  A    between atoms: C_2  and  C_3
REMARK    3  A    between atoms: C_3  and  O_4
REMARK    4  A    between atoms: O_4  and  C_5
REMARK    5  A    between atoms: C_11  and  C_12
REMARK    6  A    between atoms: C_14  and  C_15
REMARK    7  A    between atoms: N_17  and  C_18
REMARK    8  A    between atoms: C_20  and  O_21
REMARK    9  A    between atoms: O_21  and  C_22
REMARK   10  A    between atoms: C_25  and  O_26
REMARK   11  A    between atoms: O_26  and  C_27
REMARK                            x       y       z     vdW  Elec       q    Type
REMARK                         _______ _______ _______ _____ _____    ______ ____
ROOT
ATOM      1  C   UNL     1       2.900   6.834  18.687  0.00  0.00    +0.000 A 
ATOM      2  C   UNL     1       2.228   8.026  18.306  0.00  0.00    +0.000 A 
ATOM      3  C   UNL     1       1.623   8.507  19.444  0.00  0.00    +0.000 A 
ATOM      4  N   UNL     1       1.955   7.616  20.422  0.00  0.00    +0.000 N 
ATOM      5  N   UNL     1       2.698   6.585  19.994  0.00  0.00    +0.000 NA
ATOM      6  H   UNL     1       1.681   7.659  21.399  0.00  0.00    +0.000 HD
ENDROOT
BRANCH   1  13
ATOM      7  C   UNL     1       3.220   4.599  17.523  0.00  0.00    +0.000 A 
ATOM      8  C   UNL     1       4.062   3.749  16.787  0.00  0.00    +0.000 A 
ATOM      9  C   UNL     1       5.309   4.190  16.343  0.00  0.00    +0.000 A 
ATOM     10  C   UNL     1       5.715   5.487  16.615  0.00  0.00    +0.000 A 
ATOM     11  F   UNL     1       6.909   5.906  16.180  0.00  0.00    +0.000 F 
ATOM     12  C   UNL     1       4.909   6.345  17.346  0.00  0.00    +0.000 A 
ATOM     13  C   UNL     1       3.662   5.911  17.834  0.00  0.00    +0.000 A 
BRANCH   7  14
ATOM     14  O   UNL     1       1.973   4.227  17.959  0.00  0.00    +0.000 OA
BRANCH  14  15
ATOM     15  C   UNL     1       1.890   3.130  18.869  0.00  0.00    +0.000 C 
BRANCH  15  17
ATOM     16  C   UNL     1       1.349   2.791  21.292  0.00  0.00    +0.000 C 
ATOM     17  C   UNL     1       0.955   3.509  20.013  0.00  0.00    +0.000 C 
ENDBRANCH  15  17
ENDBRANCH  14  15
ENDBRANCH   7  14
ENDBRANCH   1  13
BRANCH   3  18
ATOM     18  C   UNL     1       0.812   9.663  19.713  0.00  0.00    +0.000 C 
ATOM     19  O   UNL     1       0.112  10.157  18.837  0.00  0.00    +0.000 OA
ATOM     20  N   UNL     1       0.952  10.183  20.988  0.00  0.00    +0.000 N 
ATOM     21  H   UNL     1       1.777   9.938  21.514  0.00  0.00    +0.000 HD
BRANCH  20  22
ATOM     22  C   UNL     1       0.204  11.283  21.450  0.00  0.00    +0.000 A 
ATOM     23  C   UNL     1      -0.922  11.051  22.255  0.00  0.00    +0.000 A 
ATOM     24  C   UNL     1      -1.645  12.107  22.816  0.00  0.00    +0.000 A 
ATOM     25  C   UNL     1      -1.252  13.413  22.545  0.00  0.00    +0.000 A 
ATOM     26  C   UNL     1      -0.129  13.656  21.744  0.00  0.00    +0.000 A 
ATOM     27  C   UNL     1       0.610  12.600  21.199  0.00  0.00    +0.000 A 
BRANCH  24  28
ATOM     28  O   UNL     1      -2.687  11.721  23.611  0.00  0.00    +0.000 OA
ATOM     29  C   UNL     1      -3.754  12.645  23.770  0.00  0.00    +0.000 C 
ENDBRANCH  24  28
BRANCH  27  30
ATOM     30  O   UNL     1       1.707  12.986  20.474  0.00  0.00    +0.000 OA
ATOM     31  C   UNL     1       1.454  13.610  19.218  0.00  0.00    +0.000 C 
ENDBRANCH  27  30
ENDBRANCH  20  22
ENDBRANCH   3  18
TORSDOF 8
ENDMDL
MODEL 3
REMARK VINA RESULT:      -7.8      6.548     10.303
REMARK  Name = 
REMARK  11 active torsions:
REMARK  status: ('A' for Active; 'I' for Inactive)
REMARK    1  A    between atoms: C_1  and  C_2
REMARK    2  A    between atoms: C_2  and  C_3
REMARK    3  A    between atoms: C_3  and  O_4
REMARK    4  A    between atoms: O_4  and  C_5
REMARK    5  A    between atoms: C_11  and  C_12
REMARK    6  A    between atoms: C_14  and  C_15
REMARK    7  A    between atoms: N_17  and  C_18
REMARK    8  A    between atoms: C_20  and  O_21
REMARK    9  A    between atoms: O_21  and  C_22
REMARK   10  A    between atoms: C_25  and  O_26
REMARK   11  A    between atoms: O_26  and  C_27
REMARK                            x       y       z     vdW  Elec       q    Type
REMARK                         _______ _______ _______ _____ _____    ______ ____
ROOT
ATOM      1  C   UNL     1       0.458  10.104  21.769  0.00  0.00    +0.000 A 
ATOM      2  C   UNL     1       0.653   9.564  20.468  0.00  0.00    +0.000 A 
ATOM      3  C   UNL     1       1.533   8.518  20.615  0.00  0.00    +0.000 A 
ATOM      4  N   UNL     1       1.811   8.474  21.950  0.00  0.00    +0.000 N 
ATOM      5  N   UNL     1       1.202   9.432  22.666  0.00  0.00    +0.000 NA
ATOM      6  H   UNL     1       2.427   7.819  22.420  0.00  0.00    +0.000 HD
ENDROOT
BRANCH   1  13
ATOM      7  C   UNL     1       0.025  12.604  21.883  0.00  0.00    +0.000 A 
ATOM      8  C   UNL     1      -0.761  13.655  22.382  0.00  0.00    +0.000 A 
ATOM      9  C   UNL     1      -1.919  13.394  23.116  0.00  0.00    +0.000 A 
ATOM     10  C   UNL     1      -2.306  12.082  23.342  0.00  0.00    +0.000 A 
ATOM     11  F   UNL     1      -3.421  11.838  24.041  0.00  0.00    +0.000 F 
ATOM     12  C   UNL     1      -1.545  11.025  22.869  0.00  0.00    +0.000 A 
ATOM     13  C   UNL     1      -0.356  11.265  22.155  0.00  0.00    +0.000 A 
BRANCH   7  14
ATOM     14  O   UNL     1       1.156  12.804  21.131  0.00  0.00    +0.000 OA
BRANCH  14  15
ATOM     15  C   UNL     1       1.123  13.837  20.148  0.00  0.00    +0.000 C 
BRANCH  15  17
ATOM     16  C   UNL     1      -0.472  13.079  18.370  0.00  0.00    +0.000 C 
ATOM     17  C   UNL     1       0.989  13.200  18.768  0.00  0.00    +0.000 C 
ENDBRANCH  15  17
ENDBRANCH  14  15
ENDBRANCH   7  14
ENDBRANCH   1  13
BRANCH   3  18
ATOM     18  C   UNL     1       2.114   7.583  19.689  0.00  0.00    +0.000 C 
ATOM     19  O   UNL     1       2.104   7.805  18.483  0.00  0.00    +0.000 OA
ATOM     20  N   UNL     1       2.599   6.423  20.265  0.00  0.00    +0.000 N 
ATOM     21  H   UNL     1       2.267   6.173  21.185  0.00  0.00    +0.000 HD
BRANCH  20  22
ATOM     22  C   UNL     1       3.245   5.415  19.525  0.00  0.00    +0.000 A 
ATOM     23  C   UNL     1       4.642   5.454  19.394  0.00  0.00    +0.000 A 
ATOM     24  C   UNL     1       5.342   4.432  18.749  0.00  0.00    +0.000 A 
ATOM     25  C   UNL     1       4.631   3.367  18.205  0.00  0.00    +0.000 A 
ATOM     26  C   UNL     1       3.237   3.316  18.331  0.00  0.00    +0.000 A 
ATOM     27  C   UNL     1       2.536   4.329  18.995  0.00  0.00    +0.000 A 
BRANCH  24  28
ATOM     28  O   UNL     1       6.699   4.591  18.741  0.00  0.00    +0.000 OA
ATOM     29  C   UNL     1       7.205   5.783  18.156  0.00  0.00    +0.000 C 
ENDBRANCH  24  28
BRANCH  27  30
ATOM     30  O   UNL     1       1.183   4.125  19.081  0.00  0.00    +0.000 OA
ATOM     31  C   UNL     1       0.746   3.136  20.010  0.00  0.00    +0.000 C 
ENDBRANCH  27  30
ENDBRANCH  20  22
ENDBRANCH   3  18
TORSDOF 8
ENDMDL
MODEL 4
REMARK VINA RESULT:      -7.7      4.161      7.587
REMARK  Name = 
REMARK  11 active torsions:
REMARK  status: ('A' for Active; 'I' for Inactive)
REMARK    1  A    between atoms: C_1  and  C_2
REMARK    2  A    between atoms: C_2  and  C_3
REMARK    3  A    between atoms: C_3  and  O_4
REMARK    4  A    between atoms: O_4  and  C_5
REMARK    5  A    between atoms: C_11  and  C_12
REMARK    6  A    between atoms: C_14  and  C_15
REMARK    7  A    between atoms: N_17  and  C_18
REMARK    8  A    between atoms: C_20  and  O_21
REMARK    9  A    between atoms: O_21  and  C_22
REMARK   10  A    between atoms: C_25  and  O_26
REMARK   11  A    between atoms: O_26  and  C_27
REMARK                            x       y       z     vdW  Elec       q    Type
REMARK                         _______ _______ _______ _____ _____    ______ ____
ROOT
ATOM      1  C   UNL     1       4.227   5.854  18.207  0.00  0.00    +0.000 A 
ATOM      2  C   UNL     1       3.447   7.042  18.151  0.00  0.00    +0.000 A 
ATOM      3  C   UNL     1       2.696   7.062  19.303  0.00  0.00    +0.000 A 
ATOM      4  N   UNL     1       3.052   5.931  19.977  0.00  0.00    +0.000 N 
ATOM      5  N   UNL     1       3.949   5.169  19.331  0.00  0.00    +0.000 NA
ATOM      6  H   UNL     1       2.694   5.623  20.875  0.00  0.00    +0.000 HD
ENDROOT
BRANCH   1  13
ATOM      7  C   UNL     1       6.571   5.346  17.374  0.00  0.00    +0.000 A 
ATOM      8  C   UNL     1       7.395   4.930  16.315  0.00  0.00    +0.000 A 
ATOM      9  C   UNL     1       6.843   4.490  15.111  0.00  0.00    +0.000 A 
ATOM     10  C   UNL     1       5.466   4.445  14.964  0.00  0.00    +0.000 A 
ATOM     11  F   UNL     1       4.941   4.016  13.811  0.00  0.00    +0.000 F 
ATOM     12  C   UNL     1       4.628   4.858  15.989  0.00  0.00    +0.000 A 
ATOM     13  C   UNL     1       5.163   5.337  17.200  0.00  0.00    +0.000 A 
BRANCH   7  14
ATOM     14  O   UNL     1       7.060   5.760  18.587  0.00  0.00    +0.000 OA
BRANCH  14  15
ATOM     15  C   UNL     1       8.074   6.765  18.585  0.00  0.00    +0.000 C 
BRANCH  15  17
ATOM     16  C   UNL     1       8.309   9.205  18.062  0.00  0.00    +0.000 C 
ATOM     17  C   UNL     1       7.638   7.902  17.665  0.00  0.00    +0.000 C 
ENDBRANCH  15  17
ENDBRANCH  14  15
ENDBRANCH   7  14
ENDBRANCH   1  13
BRANCH   3  18
ATOM     18  C   UNL     1       1.730   7.987  19.831  0.00  0.00    +0.000 C 
ATOM     19  O   UNL     1       1.196   7.787  20.915  0.00  0.00    +0.000 OA
ATOM     20  N   UNL     1       1.422   9.044  18.992  0.00  0.00    +0.000 N 
ATOM     21  H   UNL     1       1.636   8.950  18.010  0.00  0.00    +0.000 HD
BRANCH  20  22
ATOM     22  C   UNL     1       0.535  10.075  19.356  0.00  0.00    +0.000 A 
ATOM     23  C   UNL     1       0.871  10.916  20.428  0.00  0.00    +0.000 A 
ATOM     24  C   UNL     1       0.074  12.009  20.773  0.00  0.00    +0.000 A 
ATOM     25  C   UNL     1      -1.090  12.250  20.051  0.00  0.00    +0.000 A 
ATOM     26  C   UNL     1      -1.435  11.418  18.978  0.00  0.00    +0.000 A 
ATOM     27  C   UNL     1      -0.626  10.335  18.617  0.00  0.00    +0.000 A 
BRANCH  24  28
ATOM     28  O   UNL     1       0.556  12.758  21.809  0.00  0.00    +0.000 OA
ATOM     29  C   UNL     1      -0.117  13.978  22.091  0.00  0.00    +0.000 C 
ENDBRANCH  24  28
BRANCH  27  30
ATOM     30  O   UNL     1      -1.062   9.636  17.522  0.00  0.00    +0.000 OA
ATOM     31  C   UNL     1      -2.087  10.248  16.743  0.00  0.00    +0.000 C 
ENDBRANCH  27  30
ENDBRANCH  20  22
ENDBRANCH   3  18
TORSDOF 8
ENDMDL
MODEL 5
REMARK VINA RESULT:      -7.7      5.674      8.049
REMARK  Name = 
REMARK  11 active torsions:
REMARK  status: ('A' for Active; 'I' for Inactive)
REMARK    1  A    between atoms: C_1  and  C_2
REMARK    2  A    between atoms: C_2  and  C_3
REMARK    3  A    between atoms: C_3  and  O_4
REMARK    4  A    between atoms: O_4  and  C_5
REMARK    5  A    between atoms: C_11  and  C_12
REMARK    6  A    between atoms: C_14  and  C_15
REMARK    7  A    between atoms: N_17  and  C_18
REMARK    8  A    between atoms: C_20  and  O_21
REMARK    9  A    between atoms: O_21  and  C_22
REMARK   10  A    between atoms: C_25  and  O_26
REMARK   11  A    between atoms: O_26  and  C_27
REMARK                            x       y       z     vdW  Elec       q    Type
REMARK                         _______ _______ _______ _____ _____    ______ ____
ROOT
ATOM      1  C   UNL     1       3.243   6.470  18.814  0.00  0.00    +0.000 A 
ATOM      2  C   UNL     1       2.481   7.655  18.626  0.00  0.00    +0.000 A 
ATOM      3  C   UNL     1       1.807   7.870  19.805  0.00  0.00    +0.000 A 
ATOM      4  N   UNL     1       2.187   6.845  20.621  0.00  0.00    +0.000 N 
ATOM      5  N   UNL     1       3.028   5.971  20.045  0.00  0.00    +0.000 NA
ATOM      6  H   UNL     1       1.884   6.686  21.576  0.00  0.00    +0.000 HD
ENDROOT
BRANCH   1  13
ATOM      7  C   UNL     1       3.740   4.566  17.209  0.00  0.00    +0.000 A 
ATOM      8  C   UNL     1       4.669   3.924  16.374  0.00  0.00    +0.000 A 
ATOM      9  C   UNL     1       5.928   4.482  16.145  0.00  0.00    +0.000 A 
ATOM     10  C   UNL     1       6.260   5.691  16.734  0.00  0.00    +0.000 A 
ATOM     11  F   UNL     1       7.465   6.225  16.506  0.00  0.00    +0.000 F 
ATOM     12  C   UNL     1       5.366   6.343  17.570  0.00  0.00    +0.000 A 
ATOM     13  C   UNL     1       4.104   5.782  17.842  0.00  0.00    +0.000 A 
BRANCH   7  14
ATOM     14  O   UNL     1       2.480   4.077  17.445  0.00  0.00    +0.000 OA
BRANCH  14  15
ATOM     15  C   UNL     1       2.372   2.800  18.072  0.00  0.00    +0.000 C 
BRANCH  15  17
ATOM     16  C   UNL     1       1.047   3.048  20.185  0.00  0.00    +0.000 C 
ATOM     17  C   UNL     1       0.992   2.680  18.712  0.00  0.00    +0.000 C 
ENDBRANCH  15  17
ENDBRANCH  14  15
ENDBRANCH   7  14
ENDBRANCH   1  13
BRANCH   3  18
ATOM     18  C   UNL     1       0.892   8.889  20.243  0.00  0.00    +0.000 C 
ATOM     19  O   UNL     1       0.283   8.774  21.300  0.00  0.00    +0.000 OA
ATOM     20  N   UNL     1       0.720   9.934  19.353  0.00  0.00    +0.000 N 
ATOM     21  H   UNL     1       0.981   9.786  18.389  0.00  0.00    +0.000 HD
BRANCH  20  22
ATOM     22  C   UNL     1      -0.098  11.046  19.630  0.00  0.00    +0.000 A 
ATOM     23  C   UNL     1      -1.421  11.053  19.161  0.00  0.00    +0.000 A 
ATOM     24  C   UNL     1      -2.302  12.087  19.484  0.00  0.00    +0.000 A 
ATOM     25  C   UNL     1      -1.846  13.143  20.267  0.00  0.00    +0.000 A 
ATOM     26  C   UNL     1      -0.528  13.146  20.742  0.00  0.00    +0.000 A 
ATOM     27  C   UNL     1       0.350  12.100  20.437  0.00  0.00    +0.000 A 
BRANCH  24  28
ATOM     28  O   UNL     1      -3.567  11.930  18.991  0.00  0.00    +0.000 OA
ATOM     29  C   UNL     1      -3.684  11.429  17.666  0.00  0.00    +0.000 C 
ENDBRANCH  24  28
BRANCH  27  30
ATOM     30  O   UNL     1       1.592  12.213  21.005  0.00  0.00    +0.000 OA
ATOM     31  C   UNL     1       2.358  13.358  20.640  0.00  0.00    +0.000 C 
ENDBRANCH  27  30
ENDBRANCH  20  22
ENDBRANCH   3  18
TORSDOF 8
ENDMDL
MODEL 6
REMARK VINA RESULT:      -7.6      0.887      2.420
REMARK  Name = 
REMARK  11 active torsions:
REMARK  status: ('A' for Active; 'I' for Inactive)
REMARK    1  A    between atoms: C_1  and  C_2
REMARK    2  A    between atoms: C_2  and  C_3
REMARK    3  A    between atoms: C_3  and  O_4
REMARK    4  A    between atoms: O_4  and  C_5
REMARK    5  A    between atoms: C_11  and  C_12
REMARK    6  A    between atoms: C_14  and  C_15
REMARK    7  A    between atoms: N_17  and  C_18
REMARK    8  A    between atoms: C_20  and  O_21
REMARK    9  A    between atoms: O_21  and  C_22
REMARK   10  A    between atoms: C_25  and  O_26
REMARK   11  A    between atoms: O_26  and  C_27
REMARK                            x       y       z     vdW  Elec       q    Type
REMARK                         _______ _______ _______ _____ _____    ______ ____
ROOT
ATOM      1  C   UNL     1       7.337   6.752  17.635  0.00  0.00    +0.000 A 
ATOM      2  C   UNL     1       7.330   8.141  17.335  0.00  0.00    +0.000 A 
ATOM      3  C   UNL     1       8.172   8.735  18.246  0.00  0.00    +0.000 A 
ATOM      4  N   UNL     1       8.635   7.710  19.018  0.00  0.00    +0.000 N 
ATOM      5  N   UNL     1       8.130   6.510  18.695  0.00  0.00    +0.000 NA
ATOM      6  H   UNL     1       9.284   7.783  19.795  0.00  0.00    +0.000 HD
ENDROOT
BRANCH   1  13
ATOM      7  C   UNL     1       5.446   5.057  17.590  0.00  0.00    +0.000 A 
ATOM      8  C   UNL     1       4.836   3.970  16.943  0.00  0.00    +0.000 A 
ATOM      9  C   UNL     1       5.305   3.519  15.709  0.00  0.00    +0.000 A 
ATOM     10  C   UNL     1       6.375   4.161  15.106  0.00  0.00    +0.000 A 
ATOM     11  F   UNL     1       6.817   3.729  13.919  0.00  0.00    +0.000 F 
ATOM     12  C   UNL     1       7.002   5.231  15.726  0.00  0.00    +0.000 A 
ATOM     13  C   UNL     1       6.567   5.681  16.986  0.00  0.00    +0.000 A 
BRANCH   7  14
ATOM     14  O   UNL     1       5.007   5.559  18.790  0.00  0.00    +0.000 OA
BRANCH  14  15
ATOM     15  C   UNL     1       3.603   5.753  18.953  0.00  0.00    +0.000 C 
BRANCH  15  17
ATOM     16  C   UNL     1       2.377   7.929  18.736  0.00  0.00    +0.000 C 
ATOM     17  C   UNL     1       3.143   6.847  17.994  0.00  0.00    +0.000 C 
ENDBRANCH  15  17
ENDBRANCH  14  15
ENDBRANCH   7  14
ENDBRANCH   1  13
BRANCH   3  18
ATOM     18  C   UNL     1       8.585  10.095  18.462  0.00  0.00    +0.000 C 
ATOM     19  O   UNL     1       8.331  10.967  17.640  0.00  0.00    +0.000 OA
ATOM     20  N   UNL     1       9.334  10.296  19.608  0.00  0.00    +0.000 N 
ATOM     21  H   UNL     1       9.779   9.497  20.033  0.00  0.00    +0.000 HD
BRANCH  20  22
ATOM     22  C   UNL     1       9.786  11.568  20.011  0.00  0.00    +0.000 A 
ATOM     23  C   UNL     1       9.188  12.183  21.122  0.00  0.00    +0.000 A 
ATOM     24  C   UNL     1       9.658  13.401  21.620  0.00  0.00    +0.000 A 
ATOM     25  C   UNL     1      10.726  14.024  20.982  0.00  0.00    +0.000 A 
ATOM     26  C   UNL     1      11.331  13.418  19.873  0.00  0.00    +0.000 A 
ATOM     27  C   UNL     1      10.875  12.188  19.386  0.00  0.00    +0.000 A 
BRANCH  24  28
ATOM     28  O   UNL     1       9.003  13.850  22.731  0.00  0.00    +0.000 OA
ATOM     29  C   UNL     1       8.037  12.980  23.305  0.00  0.00    +0.000 C 
ENDBRANCH  24  28
BRANCH  27  30
ATOM     30  O   UNL     1      11.590  11.693  18.326  0.00  0.00    +0.000 OA
ATOM     31  C   UNL     1      11.877  12.606  17.270  0.00  0.00    +0.000 C 
ENDBRANCH  27  30
ENDBRANCH  20  22
ENDBRANCH   3  18
TORSDOF 8
ENDMDL
MODEL 7
REMARK VINA RESULT:      -7.6      6.104      8.340
REMARK  Name = 
REMARK  11 active torsions:
REMARK  status: ('A' for Active; 'I' for Inactive)
REMARK    1  A    between atoms: C_1  and  C_2
REMARK    2  A    between atoms: C_2  and  C_3
REMARK    3  A    between atoms: C_3  and  O_4
REMARK    4  A    between atoms: O_4  and  C_5
REMARK    5  A    between atoms: C_11  and  C_12
REMARK    6  A    between atoms: C_14  and  C_15
REMARK    7  A    between atoms: N_17  and  C_18
REMARK    8  A    between atoms: C_20  and  O_21
REMARK    9  A    between atoms: O_21  and  C_22
REMARK   10  A    between atoms: C_25  and  O_26
REMARK   11  A    between atoms: O_26  and  C_27
REMARK                            x       y       z     vdW  Elec       q    Type
REMARK                         _______ _______ _______ _____ _____    ______ ____
ROOT
ATOM      1  C   UNL     1       3.245   6.860  18.128  0.00  0.00    +0.000 A 
ATOM      2  C   UNL     1       2.722   8.098  17.666  0.00  0.00    +0.000 A 
ATOM      3  C   UNL     1       1.934   8.585  18.681  0.00  0.00    +0.000 A 
ATOM      4  N   UNL     1       2.022   7.654  19.674  0.00  0.00    +0.000 N 
ATOM      5  N   UNL     1       2.780   6.592  19.361  0.00  0.00    +0.000 NA
ATOM      6  H   UNL     1       1.565   7.689  20.580  0.00  0.00    +0.000 HD
ENDROOT
BRANCH   1  13
ATOM      7  C   UNL     1       3.751   4.564  17.167  0.00  0.00    +0.000 A 
ATOM      8  C   UNL     1       4.683   3.705  16.563  0.00  0.00    +0.000 A 
ATOM      9  C   UNL     1       5.939   4.172  16.176  0.00  0.00    +0.000 A 
ATOM     10  C   UNL     1       6.266   5.504  16.376  0.00  0.00    +0.000 A 
ATOM     11  F   UNL     1       7.469   5.950  15.998  0.00  0.00    +0.000 F 
ATOM     12  C   UNL     1       5.369   6.374  16.978  0.00  0.00    +0.000 A 
ATOM     13  C   UNL     1       4.109   5.915  17.406  0.00  0.00    +0.000 A 
BRANCH   7  14
ATOM     14  O   UNL     1       2.492   4.163  17.540  0.00  0.00    +0.000 OA
BRANCH  14  15
ATOM     15  C   UNL     1       2.381   2.986  18.340  0.00  0.00    +0.000 C 
BRANCH  15  17
ATOM     16  C   UNL     1       0.869   3.644  20.228  0.00  0.00    +0.000 C 
ATOM     17  C   UNL     1       0.966   2.906  18.904  0.00  0.00    +0.000 C 
ENDBRANCH  15  17
ENDBRANCH  14  15
ENDBRANCH   7  14
ENDBRANCH   1  13
BRANCH   3  18
ATOM     18  C   UNL     1       1.146   9.779  18.829  0.00  0.00    +0.000 C 
ATOM     19  O   UNL     1       1.528  10.846  18.361  0.00  0.00    +0.000 OA
ATOM     20  N   UNL     1      -0.002   9.625  19.586  0.00  0.00    +0.000 N 
ATOM     21  H   UNL     1      -0.061   8.830  20.204  0.00  0.00    +0.000 HD
BRANCH  20  22
ATOM     22  C   UNL     1      -0.921  10.670  19.800  0.00  0.00    +0.000 A 
ATOM     23  C   UNL     1      -1.890  10.936  18.819  0.00  0.00    +0.000 A 
ATOM     24  C   UNL     1      -2.883  11.898  19.020  0.00  0.00    +0.000 A 
ATOM     25  C   UNL     1      -2.891  12.622  20.207  0.00  0.00    +0.000 A 
ATOM     26  C   UNL     1      -1.929  12.365  21.193  0.00  0.00    +0.000 A 
ATOM     27  C   UNL     1      -0.947  11.386  21.003  0.00  0.00    +0.000 A 
BRANCH  24  28
ATOM     28  O   UNL     1      -3.779  12.010  17.994  0.00  0.00    +0.000 OA
ATOM     29  C   UNL     1      -3.552  11.199  16.849  0.00  0.00    +0.000 C 
ENDBRANCH  24  28
BRANCH  27  30
ATOM     30  O   UNL     1      -0.103  11.211  22.068  0.00  0.00    +0.000 OA
ATOM     31  C   UNL     1      -0.551  10.335  23.100  0.00  0.00    +0.000 C 
ENDBRANCH  27  30
ENDBRANCH  20  22
ENDBRANCH   3  18
TORSDOF 8
ENDMDL
MODEL 8
REMARK VINA RESULT:      -7.6      4.254      7.275
REMARK  Name = 
REMARK  11 active torsions:
REMARK  status: ('A' for Active; 'I' for Inactive)
REMARK    1  A    between atoms: C_1  and  C_2
REMARK    2  A    between atoms: C_2  and  C_3
REMARK    3  A    between atoms: C_3  and  O_4
REMARK    4  A    between atoms: O_4  and  C_5
REMARK    5  A    between atoms: C_11  and  C_12
REMARK    6  A    between atoms: C_14  and  C_15
REMARK    7  A    between atoms: N_17  and  C_18
REMARK    8  A    between atoms: C_20  and  O_21
REMARK    9  A    between atoms: O_21  and  C_22
REMARK   10  A    between atoms: C_25  and  O_26
REMARK   11  A    between atoms: O_26  and  C_27
REMARK                            x       y       z     vdW  Elec       q    Type
REMARK                         _______ _______ _______ _____ _____    ______ ____
ROOT
ATOM      1  C   UNL     1       4.033   5.985  17.603  0.00  0.00    +0.000 A 
ATOM      2  C   UNL     1       3.648   7.352  17.668  0.00  0.00    +0.000 A 
ATOM      3  C   UNL     1       2.602   7.414  18.559  0.00  0.00    +0.000 A 
ATOM      4  N   UNL     1       2.419   6.129  18.978  0.00  0.00    +0.000 N 
ATOM      5  N   UNL     1       3.245   5.242  18.401  0.00  0.00    +0.000 NA
ATOM      6  H   UNL     1       1.727   5.802  19.645  0.00  0.00    +0.000 HD
ENDROOT
BRANCH   1  13
ATOM      7  C   UNL     1       6.444   5.345  17.127  0.00  0.00    +0.000 A 
ATOM      8  C   UNL     1       7.384   4.838  16.215  0.00  0.00    +0.000 A 
ATOM      9  C   UNL     1       6.980   4.346  14.973  0.00  0.00    +0.000 A 
ATOM     10  C   UNL     1       5.635   4.342  14.642  0.00  0.00    +0.000 A 
ATOM     11  F   UNL     1       5.252   3.863  13.452  0.00  0.00    +0.000 F 
ATOM     12  C   UNL     1       4.685   4.844  15.519  0.00  0.00    +0.000 A 
ATOM     13  C   UNL     1       5.073   5.376  16.762  0.00  0.00    +0.000 A 
BRANCH   7  14
ATOM     14  O   UNL     1       6.783   5.814  18.371  0.00  0.00    +0.000 OA
BRANCH  14  15
ATOM     15  C   UNL     1       7.888   6.712  18.462  0.00  0.00    +0.000 C 
BRANCH  15  17
ATOM     16  C   UNL     1       8.350   9.153  18.127  0.00  0.00    +0.000 C 
ATOM     17  C   UNL     1       7.597   7.941  17.606  0.00  0.00    +0.000 C 
ENDBRANCH  15  17
ENDBRANCH  14  15
ENDBRANCH   7  14
ENDBRANCH   1  13
BRANCH   3  18
ATOM     18  C   UNL     1       1.793   8.496  19.052  0.00  0.00    +0.000 C 
ATOM     19  O   UNL     1       1.365   8.487  20.200  0.00  0.00    +0.000 OA
ATOM     20  N   UNL     1       1.497   9.470  18.115  0.00  0.00    +0.000 N 
ATOM     21  H   UNL     1       1.592   9.236  17.138  0.00  0.00    +0.000 HD
BRANCH  20  22
ATOM     22  C   UNL     1       0.759  10.628  18.426  0.00  0.00    +0.000 A 
ATOM     23  C   UNL     1       1.434  11.755  18.920  0.00  0.00    +0.000 A 
ATOM     24  C   UNL     1       0.765  12.958  19.157  0.00  0.00    +0.000 A 
ATOM     25  C   UNL     1      -0.604  13.027  18.920  0.00  0.00    +0.000 A 
ATOM     26  C   UNL     1      -1.288  11.909  18.426  0.00  0.00    +0.000 A 
ATOM     27  C   UNL     1      -0.616  10.709  18.168  0.00  0.00    +0.000 A 
BRANCH  24  28
ATOM     28  O   UNL     1       1.566  13.975  19.594  0.00  0.00    +0.000 OA
ATOM     29  C   UNL     1       2.613  13.631  20.491  0.00  0.00    +0.000 C 
ENDBRANCH  24  28
BRANCH  27  30
ATOM     30  O   UNL     1      -1.401   9.716  17.644  0.00  0.00    +0.000 OA
ATOM     31  C   UNL     1      -2.626  10.124  17.040  0.00  0.00    +0.000 C 
ENDBRANCH  27  30
ENDBRANCH  20  22
ENDBRANCH   3  18
TORSDOF 8
ENDMDL
MODEL 9
REMARK VINA RESULT:      -7.5      6.512      7.628
REMARK  Name = 
REMARK  11 active torsions:
REMARK  status: ('A' for Active; 'I' for Inactive)
REMARK    1  A    between atoms: C_1  and  C_2
REMARK    2  A    between atoms: C_2  and  C_3
REMARK    3  A    between atoms: C_3  and  O_4
REMARK    4  A    between atoms: O_4  and  C_5
REMARK    5  A    between atoms: C_11  and  C_12
REMARK    6  A    between atoms: C_14  and  C_15
REMARK    7  A    between atoms: N_17  and  C_18
REMARK    8  A    between atoms: C_20  and  O_21
REMARK    9  A    between atoms: O_21  and  C_22
REMARK   10  A    between atoms: C_25  and  O_26
REMARK   11  A    between atoms: O_26  and  C_27
REMARK                            x       y       z     vdW  Elec       q    Type
REMARK                         _______ _______ _______ _____ _____    ______ ____
ROOT
ATOM      1  C   UNL     1       2.480   7.232  18.765  0.00  0.00    +0.000 A 
ATOM      2  C   UNL     1       1.865   8.424  18.293  0.00  0.00    +0.000 A 
ATOM      3  C   UNL     1       1.268   9.007  19.386  0.00  0.00    +0.000 A 
ATOM      4  N   UNL     1       1.548   8.172  20.428  0.00  0.00    +0.000 N 
ATOM      5  N   UNL     1       2.250   7.083  20.082  0.00  0.00    +0.000 NA
ATOM      6  H   UNL     1       1.263   8.293  21.394  0.00  0.00    +0.000 HD
ENDROOT
BRANCH   1  13
ATOM      7  C   UNL     1       2.761   4.885  17.837  0.00  0.00    +0.000 A 
ATOM      8  C   UNL     1       3.577   3.959  17.167  0.00  0.00    +0.000 A 
ATOM      9  C   UNL     1       4.806   4.347  16.632  0.00  0.00    +0.000 A 
ATOM     10  C   UNL     1       5.219   5.664  16.748  0.00  0.00    +0.000 A 
ATOM     11  F   UNL     1       6.396   6.032  16.227  0.00  0.00    +0.000 F 
ATOM     12  C   UNL     1       4.439   6.598  17.411  0.00  0.00    +0.000 A 
ATOM     13  C   UNL     1       3.211   6.222  17.988  0.00  0.00    +0.000 A 
BRANCH   7  14
ATOM     14  O   UNL     1       1.532   4.564  18.357  0.00  0.00    +0.000 OA
BRANCH  14  15
ATOM     15  C   UNL     1       1.425   3.356  19.108  0.00  0.00    +0.000 C 
BRANCH  15  17
ATOM     16  C   UNL     1       2.119   3.034  21.495  0.00  0.00    +0.000 C 
ATOM     17  C   UNL     1       1.125   3.705  20.563  0.00  0.00    +0.000 C 
ENDBRANCH  15  17
ENDBRANCH  14  15
ENDBRANCH   7  14
ENDBRANCH   1  13
BRANCH   3  18
ATOM     18  C   UNL     1       0.504  10.212  19.563  0.00  0.00    +0.000 C 
ATOM     19  O   UNL     1      -0.648  10.293  19.152  0.00  0.00    +0.000 OA
ATOM     20  N   UNL     1       1.197  11.254  20.154  0.00  0.00    +0.000 N 
ATOM     21  H   UNL     1       2.206  11.221  20.145  0.00  0.00    +0.000 HD
BRANCH  20  22
ATOM     22  C   UNL     1       0.602  12.494  20.453  0.00  0.00    +0.000 A 
ATOM     23  C   UNL     1       0.608  13.505  19.480  0.00  0.00    +0.000 A 
ATOM     24  C   UNL     1      -0.048  14.721  19.689  0.00  0.00    +0.000 A 
ATOM     25  C   UNL     1      -0.698  14.938  20.900  0.00  0.00    +0.000 A 
ATOM     26  C   UNL     1      -0.711  13.935  21.879  0.00  0.00    +0.000 A 
ATOM     27  C   UNL     1      -0.073  12.709  21.662  0.00  0.00    +0.000 A 
BRANCH  24  28
ATOM     28  O   UNL     1       0.009  15.585  18.633  0.00  0.00    +0.000 OA
ATOM     29  C   UNL     1      -0.718  16.800  18.754  0.00  0.00    +0.000 C 
ENDBRANCH  24  28
BRANCH  27  30
ATOM     30  O   UNL     1      -0.206  11.807  22.686  0.00  0.00    +0.000 OA
ATOM     31  C   UNL     1      -1.524  11.333  22.949  0.00  0.00    +0.000 C 
ENDBRANCH  27  30
ENDBRANCH  20  22
ENDBRANCH   3  18
TORSDOF 8
ENDMDL
