MODEL 1
REMARK VINA RESULT:      -9.5      0.000      0.000
REMARK  Name = 
REMARK  13 active torsions:
REMARK  status: ('A' for Active; 'I' for Inactive)
REMARK    1  A    between atoms: C_1  and  C_2
REMARK    2  A    between atoms: C_4  and  C_5
REMARK    3  A    between atoms: C_5  and  N_6
REMARK    4  A    between atoms: C_5  and  C_26
REMARK    5  A    between atoms: N_6  and  C_7
REMARK    6  A    between atoms: C_8  and  N_9
REMARK    7  A    between atoms: N_9  and  C_10
REMARK    8  A    between atoms: C_14  and  C_15
REMARK    9  A    between atoms: N_17  and  C_18
REMARK   10  A    between atoms: N_17  and  C_19
REMARK   11  A    between atoms: C_20  and  O_21
REMARK   12  A    between atoms: C_26  and  C_27
REMARK   13  A    between atoms: C_32  and  C_33
REMARK                            x       y       z     vdW  Elec       q    Type
REMARK                         _______ _______ _______ _____ _____    ______ ____
ROOT
ATOM      1  C   UNL     1       3.158   5.109  17.941  0.00  0.00    +0.000 C 
ATOM      2  C   UNL     1       2.532   5.486  19.106  0.00  0.00    +0.000 C 
ATOM      3  C   UNL     1       1.770   4.211  19.172  0.00  0.00    +0.000 C 
ATOM      4  O   UNL     1       0.986   3.655  19.901  0.00  0.00    +0.000 OA
ATOM      5  C   UNL     1       2.312   3.886  17.825  0.00  0.00    +0.000 C 
ATOM      6  O   UNL     1       2.104   3.005  17.027  0.00  0.00    +0.000 OA
ENDROOT
BRANCH   1   7
ATOM      7  N   UNL     1       4.058   5.576  17.080  0.00  0.00    +0.000 N 
ATOM      8  H   UNL     1       3.715   5.680  16.122  0.00  0.00    +0.000 HD
BRANCH   7   9
ATOM      9  C   UNL     1       5.381   4.875  16.957  0.00  0.00    +0.000 C 
BRANCH   9  13
ATOM     10  C   UNL     1       6.152   3.088  12.180  0.00  0.00    +0.000 C 
ATOM     11  C   UNL     1       6.174   3.898  13.422  0.00  0.00    +0.000 A 
ATOM     12  C   UNL     1       5.308   3.771  14.539  0.00  0.00    +0.000 A 
ATOM     13  C   UNL     1       5.779   4.623  15.518  0.00  0.00    +0.000 A 
ATOM     14  O   UNL     1       6.833   5.342  15.024  0.00  0.00    +0.000 OA
ATOM     15  C   UNL     1       7.055   4.911  13.750  0.00  0.00    +0.000 A 
ATOM     16  C   UNL     1       8.162   5.553  13.004  0.00  0.00    +0.000 C 
ENDBRANCH   9  13
BRANCH   9  17
ATOM     17  C   UNL     1       6.483   5.660  17.696  0.00  0.00    +0.000 C 
ATOM     18  C   UNL     1       6.693   7.107  17.246  0.00  0.00    +0.000 C 
ATOM     19  C   UNL     1       7.812   4.890  17.850  0.00  0.00    +0.000 C 
ATOM     20  O   UNL     1       7.659   4.809  19.284  0.00  0.00    +0.000 OA
ATOM     21  C   UNL     1       6.400   5.515  19.228  0.00  0.00    +0.000 C 
ENDBRANCH   9  17
ENDBRANCH   7   9
ENDBRANCH   1   7
BRANCH   2  22
ATOM     22  N   UNL     1       2.486   6.506  19.951  0.00  0.00    +0.000 N 
ATOM     23  H   UNL     1       1.974   6.354  20.832  0.00  0.00    +0.000 HD
BRANCH  22  24
ATOM     24  C   UNL     1       2.003   7.806  19.547  0.00  0.00    +0.000 A 
ATOM     25  C   UNL     1       2.122   8.266  18.230  0.00  0.00    +0.000 A 
ATOM     26  C   UNL     1       1.609   9.511  17.869  0.00  0.00    +0.000 A 
ATOM     27  C   UNL     1       0.925  10.284  18.810  0.00  0.00    +0.000 A 
ATOM     28  C   UNL     1       0.812   9.869  20.148  0.00  0.00    +0.000 A 
ATOM     29  C   UNL     1       1.461   8.682  20.517  0.00  0.00    +0.000 A 
BRANCH  28  30
ATOM     30  C   UNL     1       0.050  10.789  21.052  0.00  0.00    +0.000 C 
ATOM     31  O   UNL     1      -0.884  10.276  21.674  0.00  0.00    +0.000 OA
ATOM     32  N   UNL     1       0.389  12.136  21.238  0.00  0.00    +0.000 N 
ATOM     33  C   UNL     1       1.431  12.886  20.550  0.00  0.00    +0.000 C 
ATOM     34  C   UNL     1      -0.420  12.923  22.164  0.00  0.00    +0.000 C 
ENDBRANCH  28  30
BRANCH  29  35
ATOM     35  O   UNL     1       1.663   8.333  21.830  0.00  0.00    +0.000 OA
ATOM     36  H   UNL     1       2.626   8.407  21.982  0.00  0.00    +0.000 HD
ENDBRANCH  29  35
ENDBRANCH  22  24
ENDBRANCH   2  22
TORSDOF 8
ENDMDL
MODEL 2
REMARK VINA RESULT:      -9.5      0.977      1.439
REMARK  Name = 
REMARK  13 active torsions:
REMARK  status: ('A' for Active; 'I' for Inactive)
REMARK    1  A    between atoms: C_1  and  C_2
REMARK    2  A    between atoms: C_4  and  C_5
REMARK    3  A    between atoms: C_5  and  N_6
REMARK    4  A    between atoms: C_5  and  C_26
REMARK    5  A    between atoms: N_6  and  C_7
REMARK    6  A    between atoms: C_8  and  N_9
REMARK    7  A    between atoms: N_9  and  C_10
REMARK    8  A    between atoms: C_14  and  C_15
REMARK    9  A    between atoms: N_17  and  C_18
REMARK   10  A    between atoms: N_17  and  C_19
REMARK   11  A    between atoms: C_20  and  O_21
REMARK   12  A    between atoms: C_26  and  C_27
REMARK   13  A    between atoms: C_32  and  C_33
REMARK                            x       y       z     vdW  Elec       q    Type
REMARK                         _______ _______ _______ _____ _____    ______ ____
ROOT
ATOM      1  C   UNL     1       3.144   4.628  17.996  0.00  0.00    +0.000 C 
ATOM      2  C   UNL     1       2.579   5.023  19.187  0.00  0.00    +0.000 C 
ATOM      3  C   UNL     1       1.925   3.702  19.376  0.00  0.00    +0.000 C 
ATOM      4  O   UNL     1       1.242   3.131  20.191  0.00  0.00    +0.000 OA
ATOM      5  C   UNL     1       2.389   3.343  18.009  0.00  0.00    +0.000 C 
ATOM      6  O   UNL     1       2.189   2.406  17.274  0.00  0.00    +0.000 OA
ENDROOT
BRANCH   1   7
ATOM      7  N   UNL     1       3.939   5.111  17.046  0.00  0.00    +0.000 N 
ATOM      8  H   UNL     1       3.590   4.980  16.093  0.00  0.00    +0.000 HD
BRANCH   7   9
ATOM      9  C   UNL     1       5.377   4.677  17.007  0.00  0.00    +0.000 C 
BRANCH   9  13
ATOM     10  C   UNL     1       7.878   5.073  12.514  0.00  0.00    +0.000 C 
ATOM     11  C   UNL     1       6.949   4.680  13.600  0.00  0.00    +0.000 A 
ATOM     12  C   UNL     1       7.068   4.993  14.980  0.00  0.00    +0.000 A 
ATOM     13  C   UNL     1       5.914   4.553  15.597  0.00  0.00    +0.000 A 
ATOM     14  O   UNL     1       5.134   3.896  14.685  0.00  0.00    +0.000 OA
ATOM     15  C   UNL     1       5.774   3.961  13.483  0.00  0.00    +0.000 A 
ATOM     16  C   UNL     1       5.112   3.311  12.330  0.00  0.00    +0.000 C 
ENDBRANCH   9  13
BRANCH   9  17
ATOM     17  C   UNL     1       6.255   5.630  17.842  0.00  0.00    +0.000 C 
ATOM     18  C   UNL     1       6.252   7.097  17.408  0.00  0.00    +0.000 C 
ATOM     19  C   UNL     1       7.677   5.099  18.119  0.00  0.00    +0.000 C 
ATOM     20  O   UNL     1       7.410   4.974  19.534  0.00  0.00    +0.000 OA
ATOM     21  C   UNL     1       6.059   5.454  19.360  0.00  0.00    +0.000 C 
ENDBRANCH   9  17
ENDBRANCH   7   9
ENDBRANCH   1   7
BRANCH   2  22
ATOM     22  N   UNL     1       2.519   6.082  19.981  0.00  0.00    +0.000 N 
ATOM     23  H   UNL     1       1.899   6.011  20.802  0.00  0.00    +0.000 HD
BRANCH  22  24
ATOM     24  C   UNL     1       2.192   7.394  19.474  0.00  0.00    +0.000 A 
ATOM     25  C   UNL     1       2.515   7.788  18.171  0.00  0.00    +0.000 A 
ATOM     26  C   UNL     1       2.148   9.050  17.704  0.00  0.00    +0.000 A 
ATOM     27  C   UNL     1       1.406   9.907  18.519  0.00  0.00    +0.000 A 
ATOM     28  C   UNL     1       1.089   9.558  19.843  0.00  0.00    +0.000 A 
ATOM     29  C   UNL     1       1.594   8.346  20.334  0.00  0.00    +0.000 A 
BRANCH  28  30
ATOM     30  C   UNL     1       0.286  10.566  20.606  0.00  0.00    +0.000 C 
ATOM     31  O   UNL     1       0.770  10.934  21.680  0.00  0.00    +0.000 OA
ATOM     32  N   UNL     1      -0.913  11.113  20.129  0.00  0.00    +0.000 N 
ATOM     33  C   UNL     1      -1.622  10.752  18.909  0.00  0.00    +0.000 C 
ATOM     34  C   UNL     1      -1.590  12.105  20.958  0.00  0.00    +0.000 C 
ENDBRANCH  28  30
BRANCH  29  35
ATOM     35  O   UNL     1       1.596   8.040  21.673  0.00  0.00    +0.000 OA
ATOM     36  H   UNL     1       2.154   8.718  22.103  0.00  0.00    +0.000 HD
ENDBRANCH  29  35
ENDBRANCH  22  24
ENDBRANCH   2  22
TORSDOF 8
ENDMDL
MODEL 3
REMARK VINA RESULT:      -9.1      0.784      1.072
REMARK  Name = 
REMARK  13 active torsions:
REMARK  status: ('A' for Active; 'I' for Inactive)
REMARK    1  A    between atoms: C_1  and  C_2
REMARK    2  A    between atoms: C_4  and  C_5
REMARK    3  A    between atoms: C_5  and  N_6
REMARK    4  A    between atoms: C_5  and  C_26
REMARK    5  A    between atoms: N_6  and  C_7
REMARK    6  A    between atoms: C_8  and  N_9
REMARK    7  A    between atoms: N_9  and  C_10
REMARK    8  A    between atoms: C_14  and  C_15
REMARK    9  A    between atoms: N_17  and  C_18
REMARK   10  A    between atoms: N_17  and  C_19
REMARK   11  A    between atoms: C_20  and  O_21
REMARK   12  A    between atoms: C_26  and  C_27
REMARK   13  A    between atoms: C_32  and  C_33
REMARK                            x       y       z     vdW  Elec       q    Type
REMARK                         _______ _______ _______ _____ _____    ______ ____
ROOT
ATOM      1  C   UNL     1       3.251   5.224  17.914  0.00  0.00    +0.000 C 
ATOM      2  C   UNL     1       2.581   5.587  19.059  0.00  0.00    +0.000 C 
ATOM      3  C   UNL     1       1.806   4.318  19.072  0.00  0.00    +0.000 C 
ATOM      4  O   UNL     1       0.988   3.757  19.758  0.00  0.00    +0.000 OA
ATOM      5  C   UNL     1       2.400   4.011  17.742  0.00  0.00    +0.000 C 
ATOM      6  O   UNL     1       2.215   3.147  16.921  0.00  0.00    +0.000 OA
ENDROOT
BRANCH   1   7
ATOM      7  N   UNL     1       4.190   5.697  17.099  0.00  0.00    +0.000 N 
ATOM      8  H   UNL     1       3.872   5.873  16.143  0.00  0.00    +0.000 HD
BRANCH   7   9
ATOM      9  C   UNL     1       5.481   4.943  16.958  0.00  0.00    +0.000 C 
BRANCH   9  13
ATOM     10  C   UNL     1       6.139   3.114  12.181  0.00  0.00    +0.000 C 
ATOM     11  C   UNL     1       6.196   3.931  13.417  0.00  0.00    +0.000 A 
ATOM     12  C   UNL     1       5.347   3.825  14.549  0.00  0.00    +0.000 A 
ATOM     13  C   UNL     1       5.849   4.675  15.514  0.00  0.00    +0.000 A 
ATOM     14  O   UNL     1       6.906   5.374  14.998  0.00  0.00    +0.000 OA
ATOM     15  C   UNL     1       7.099   4.932  13.722  0.00  0.00    +0.000 A 
ATOM     16  C   UNL     1       8.203   5.551  12.954  0.00  0.00    +0.000 C 
ENDBRANCH   9  13
BRANCH   9  17
ATOM     17  C   UNL     1       6.624   5.682  17.683  0.00  0.00    +0.000 C 
ATOM     18  C   UNL     1       6.913   7.104  17.203  0.00  0.00    +0.000 C 
ATOM     19  C   UNL     1       7.908   4.843  17.856  0.00  0.00    +0.000 C 
ATOM     20  O   UNL     1       7.749   4.801  19.291  0.00  0.00    +0.000 OA
ATOM     21  C   UNL     1       6.531   5.574  19.218  0.00  0.00    +0.000 C 
ENDBRANCH   9  17
ENDBRANCH   7   9
ENDBRANCH   1   7
BRANCH   2  22
ATOM     22  N   UNL     1       2.511   6.592  19.920  0.00  0.00    +0.000 N 
ATOM     23  H   UNL     1       2.008   6.412  20.801  0.00  0.00    +0.000 HD
BRANCH  22  24
ATOM     24  C   UNL     1       1.990   7.884  19.538  0.00  0.00    +0.000 A 
ATOM     25  C   UNL     1       1.950   8.303  18.203  0.00  0.00    +0.000 A 
ATOM     26  C   UNL     1       1.403   9.541  17.869  0.00  0.00    +0.000 A 
ATOM     27  C   UNL     1       0.843  10.348  18.862  0.00  0.00    +0.000 A 
ATOM     28  C   UNL     1       0.891   9.974  20.216  0.00  0.00    +0.000 A 
ATOM     29  C   UNL     1       1.574   8.793  20.540  0.00  0.00    +0.000 A 
BRANCH  28  30
ATOM     30  C   UNL     1       0.250  10.927  21.177  0.00  0.00    +0.000 C 
ATOM     31  O   UNL     1       0.455  12.124  20.961  0.00  0.00    +0.000 OA
ATOM     32  N   UNL     1      -0.579  10.515  22.229  0.00  0.00    +0.000 N 
ATOM     33  C   UNL     1      -0.880   9.147  22.630  0.00  0.00    +0.000 C 
ATOM     34  C   UNL     1      -1.163  11.543  23.084  0.00  0.00    +0.000 C 
ENDBRANCH  28  30
BRANCH  29  35
ATOM     35  O   UNL     1       1.933   8.481  21.828  0.00  0.00    +0.000 OA
ATOM     36  H   UNL     1       1.572   9.197  22.389  0.00  0.00    +0.000 HD
ENDBRANCH  29  35
ENDBRANCH  22  24
ENDBRANCH   2  22
TORSDOF 8
ENDMDL
MODEL 4
REMARK VINA RESULT:      -9.1      1.398      1.903
REMARK  Name = 
REMARK  13 active torsions:
REMARK  status: ('A' for Active; 'I' for Inactive)
REMARK    1  A    between atoms: C_1  and  C_2
REMARK    2  A    between atoms: C_4  and  C_5
REMARK    3  A    between atoms: C_5  and  N_6
REMARK    4  A    between atoms: C_5  and  C_26
REMARK    5  A    between atoms: N_6  and  C_7
REMARK    6  A    between atoms: C_8  and  N_9
REMARK    7  A    between atoms: N_9  and  C_10
REMARK    8  A    between atoms: C_14  and  C_15
REMARK    9  A    between atoms: N_17  and  C_18
REMARK   10  A    between atoms: N_17  and  C_19
REMARK   11  A    between atoms: C_20  and  O_21
REMARK   12  A    between atoms: C_26  and  C_27
REMARK   13  A    between atoms: C_32  and  C_33
REMARK                            x       y       z     vdW  Elec       q    Type
REMARK                         _______ _______ _______ _____ _____    ______ ____
ROOT
ATOM      1  C   UNL     1       3.205   5.460  17.981  0.00  0.00    +0.000 C 
ATOM      2  C   UNL     1       2.700   5.888  19.187  0.00  0.00    +0.000 C 
ATOM      3  C   UNL     1       1.778   4.726  19.274  0.00  0.00    +0.000 C 
ATOM      4  O   UNL     1       0.965   4.263  20.037  0.00  0.00    +0.000 OA
ATOM      5  C   UNL     1       2.196   4.365  17.893  0.00  0.00    +0.000 C 
ATOM      6  O   UNL     1       1.826   3.541  17.092  0.00  0.00    +0.000 OA
ENDROOT
BRANCH   1   7
ATOM      7  N   UNL     1       4.112   5.823  17.079  0.00  0.00    +0.000 N 
ATOM      8  H   UNL     1       3.753   5.903  16.124  0.00  0.00    +0.000 HD
BRANCH   7   9
ATOM      9  C   UNL     1       5.383   5.031  16.962  0.00  0.00    +0.000 C 
BRANCH   9  13
ATOM     10  C   UNL     1       6.047   3.118  12.219  0.00  0.00    +0.000 C 
ATOM     11  C   UNL     1       6.110   3.951  13.443  0.00  0.00    +0.000 A 
ATOM     12  C   UNL     1       5.248   3.881  14.568  0.00  0.00    +0.000 A 
ATOM     13  C   UNL     1       5.759   4.734  15.526  0.00  0.00    +0.000 A 
ATOM     14  O   UNL     1       6.836   5.400  15.011  0.00  0.00    +0.000 OA
ATOM     15  C   UNL     1       7.032   4.936  13.744  0.00  0.00    +0.000 A 
ATOM     16  C   UNL     1       8.157   5.518  12.978  0.00  0.00    +0.000 C 
ENDBRANCH   9  13
BRANCH   9  17
ATOM     17  C   UNL     1       6.538   5.746  17.690  0.00  0.00    +0.000 C 
ATOM     18  C   UNL     1       6.808   7.190  17.264  0.00  0.00    +0.000 C 
ATOM     19  C   UNL     1       7.831   4.910  17.798  0.00  0.00    +0.000 C 
ATOM     20  O   UNL     1       7.706   4.807  19.233  0.00  0.00    +0.000 OA
ATOM     21  C   UNL     1       6.483   5.573  19.221  0.00  0.00    +0.000 C 
ENDBRANCH   9  17
ENDBRANCH   7   9
ENDBRANCH   1   7
BRANCH   2  22
ATOM     22  N   UNL     1       2.840   6.883  20.051  0.00  0.00    +0.000 N 
ATOM     23  H   UNL     1       3.217   6.640  20.979  0.00  0.00    +0.000 HD
BRANCH  22  24
ATOM     24  C   UNL     1       1.738   7.751  20.396  0.00  0.00    +0.000 A 
ATOM     25  C   UNL     1       0.850   7.446  21.434  0.00  0.00    +0.000 A 
ATOM     26  C   UNL     1      -0.178   8.328  21.764  0.00  0.00    +0.000 A 
ATOM     27  C   UNL     1      -0.294   9.547  21.093  0.00  0.00    +0.000 A 
ATOM     28  C   UNL     1       0.560   9.875  20.026  0.00  0.00    +0.000 A 
ATOM     29  C   UNL     1       1.492   8.910  19.621  0.00  0.00    +0.000 A 
BRANCH  28  30
ATOM     30  C   UNL     1       0.330  11.214  19.397  0.00  0.00    +0.000 C 
ATOM     31  O   UNL     1       1.112  12.106  19.736  0.00  0.00    +0.000 OA
ATOM     32  N   UNL     1      -0.667  11.453  18.441  0.00  0.00    +0.000 N 
ATOM     33  C   UNL     1      -1.682  10.518  17.974  0.00  0.00    +0.000 C 
ATOM     34  C   UNL     1      -0.775  12.798  17.886  0.00  0.00    +0.000 C 
ENDBRANCH  28  30
BRANCH  29  35
ATOM     35  O   UNL     1       2.169   8.997  18.429  0.00  0.00    +0.000 OA
ATOM     36  H   UNL     1       1.901   8.213  17.910  0.00  0.00    +0.000 HD
ENDBRANCH  29  35
ENDBRANCH  22  24
ENDBRANCH   2  22
TORSDOF 8
ENDMDL
MODEL 5
REMARK VINA RESULT:      -8.8      0.881      1.263
REMARK  Name = 
REMARK  13 active torsions:
REMARK  status: ('A' for Active; 'I' for Inactive)
REMARK    1  A    between atoms: C_1  and  C_2
REMARK    2  A    between atoms: C_4  and  C_5
REMARK    3  A    between atoms: C_5  and  N_6
REMARK    4  A    between atoms: C_5  and  C_26
REMARK    5  A    between atoms: N_6  and  C_7
REMARK    6  A    between atoms: C_8  and  N_9
REMARK    7  A    between atoms: N_9  and  C_10
REMARK    8  A    between atoms: C_14  and  C_15
REMARK    9  A    between atoms: N_17  and  C_18
REMARK   10  A    between atoms: N_17  and  C_19
REMARK   11  A    between atoms: C_20  and  O_21
REMARK   12  A    between atoms: C_26  and  C_27
REMARK   13  A    between atoms: C_32  and  C_33
REMARK                            x       y       z     vdW  Elec       q    Type
REMARK                         _______ _______ _______ _____ _____    ______ ____
ROOT
ATOM      1  C   UNL     1       3.438   5.131  17.890  0.00  0.00    +0.000 C 
ATOM      2  C   UNL     1       2.664   5.484  18.972  0.00  0.00    +0.000 C 
ATOM      3  C   UNL     1       1.858   4.240  18.868  0.00  0.00    +0.000 C 
ATOM      4  O   UNL     1       0.958   3.686  19.452  0.00  0.00    +0.000 OA
ATOM      5  C   UNL     1       2.576   3.950  17.598  0.00  0.00    +0.000 C 
ATOM      6  O   UNL     1       2.454   3.112  16.738  0.00  0.00    +0.000 OA
ENDROOT
BRANCH   1   7
ATOM      7  N   UNL     1       4.468   5.597  17.189  0.00  0.00    +0.000 N 
ATOM      8  H   UNL     1       4.217   5.995  16.281  0.00  0.00    +0.000 HD
BRANCH   7   9
ATOM      9  C   UNL     1       5.635   4.691  16.919  0.00  0.00    +0.000 C 
BRANCH   9  13
ATOM     10  C   UNL     1       5.904   3.059  12.033  0.00  0.00    +0.000 C 
ATOM     11  C   UNL     1       6.062   3.825  13.293  0.00  0.00    +0.000 A 
ATOM     12  C   UNL     1       5.306   3.672  14.485  0.00  0.00    +0.000 A 
ATOM     13  C   UNL     1       5.886   4.483  15.440  0.00  0.00    +0.000 A 
ATOM     14  O   UNL     1       6.900   5.201  14.870  0.00  0.00    +0.000 OA
ATOM     15  C   UNL     1       6.990   4.812  13.566  0.00  0.00    +0.000 A 
ATOM     16  C   UNL     1       8.031   5.461  12.738  0.00  0.00    +0.000 C 
ENDBRANCH   9  13
BRANCH   9  17
ATOM     17  C   UNL     1       6.905   5.218  17.617  0.00  0.00    +0.000 C 
ATOM     18  C   UNL     1       8.100   4.264  17.646  0.00  0.00    +0.000 C 
ATOM     19  C   UNL     1       6.644   5.880  18.987  0.00  0.00    +0.000 C 
ATOM     20  O   UNL     1       7.030   7.180  18.489  0.00  0.00    +0.000 OA
ATOM     21  C   UNL     1       7.287   6.643  17.173  0.00  0.00    +0.000 C 
ENDBRANCH   9  17
ENDBRANCH   7   9
ENDBRANCH   1   7
BRANCH   2  22
ATOM     22  N   UNL     1       2.534   6.468  19.848  0.00  0.00    +0.000 N 
ATOM     23  H   UNL     1       1.935   6.283  20.667  0.00  0.00    +0.000 HD
BRANCH  22  24
ATOM     24  C   UNL     1       2.094   7.787  19.452  0.00  0.00    +0.000 A 
ATOM     25  C   UNL     1       2.294   8.277  18.156  0.00  0.00    +0.000 A 
ATOM     26  C   UNL     1       1.820   9.539  17.799  0.00  0.00    +0.000 A 
ATOM     27  C   UNL     1       1.096  10.298  18.720  0.00  0.00    +0.000 A 
ATOM     28  C   UNL     1       0.901   9.852  20.039  0.00  0.00    +0.000 A 
ATOM     29  C   UNL     1       1.510   8.647  20.413  0.00  0.00    +0.000 A 
BRANCH  28  30
ATOM     30  C   UNL     1       0.103  10.762  20.922  0.00  0.00    +0.000 C 
ATOM     31  O   UNL     1       0.585  10.985  22.035  0.00  0.00    +0.000 OA
ATOM     32  N   UNL     1      -1.089  11.375  20.514  0.00  0.00    +0.000 N 
ATOM     33  C   UNL     1      -1.796  11.180  19.254  0.00  0.00    +0.000 C 
ATOM     34  C   UNL     1      -1.762  12.259  21.460  0.00  0.00    +0.000 C 
ENDBRANCH  28  30
BRANCH  29  35
ATOM     35  O   UNL     1       1.633   8.261  21.726  0.00  0.00    +0.000 OA
ATOM     36  H   UNL     1       1.432   9.056  22.259  0.00  0.00    +0.000 HD
ENDBRANCH  29  35
ENDBRANCH  22  24
ENDBRANCH   2  22
TORSDOF 8
ENDMDL
MODEL 6
REMARK VINA RESULT:      -8.7      2.069      4.224
REMARK  Name = 
REMARK  13 active torsions:
REMARK  status: ('A' for Active; 'I' for Inactive)
REMARK    1  A    between atoms: C_1  and  C_2
REMARK    2  A    between atoms: C_4  and  C_5
REMARK    3  A    between atoms: C_5  and  N_6
REMARK    4  A    between atoms: C_5  and  C_26
REMARK    5  A    between atoms: N_6  and  C_7
REMARK    6  A    between atoms: C_8  and  N_9
REMARK    7  A    between atoms: N_9  and  C_10
REMARK    8  A    between atoms: C_14  and  C_15
REMARK    9  A    between atoms: N_17  and  C_18
REMARK   10  A    between atoms: N_17  and  C_19
REMARK   11  A    between atoms: C_20  and  O_21
REMARK   12  A    between atoms: C_26  and  C_27
REMARK   13  A    between atoms: C_32  and  C_33
REMARK                            x       y       z     vdW  Elec       q    Type
REMARK                         _______ _______ _______ _____ _____    ______ ____
ROOT
ATOM      1  C   UNL     1       2.421   7.142  19.046  0.00  0.00    +0.000 C 
ATOM      2  C   UNL     1       1.738   8.300  19.337  0.00  0.00    +0.000 C 
ATOM      3  C   UNL     1       2.232   8.964  18.102  0.00  0.00    +0.000 C 
ATOM      4  O   UNL     1       2.103  10.012  17.517  0.00  0.00    +0.000 OA
ATOM      5  C   UNL     1       3.107   7.781  17.886  0.00  0.00    +0.000 C 
ATOM      6  O   UNL     1       3.985   7.519  17.100  0.00  0.00    +0.000 OA
ENDROOT
BRANCH   1   7
ATOM      7  N   UNL     1       2.609   5.925  19.550  0.00  0.00    +0.000 N 
ATOM      8  H   UNL     1       3.417   5.844  20.172  0.00  0.00    +0.000 HD
BRANCH   7   9
ATOM      9  C   UNL     1       2.707   4.755  18.613  0.00  0.00    +0.000 C 
BRANCH   9  13
ATOM     10  C   UNL     1       7.782   4.554  17.718  0.00  0.00    +0.000 C 
ATOM     11  C   UNL     1       6.307   4.442  17.607  0.00  0.00    +0.000 A 
ATOM     12  C   UNL     1       5.360   4.590  18.654  0.00  0.00    +0.000 A 
ATOM     13  C   UNL     1       4.107   4.550  18.075  0.00  0.00    +0.000 A 
ATOM     14  O   UNL     1       4.232   4.284  16.740  0.00  0.00    +0.000 OA
ATOM     15  C   UNL     1       5.566   4.203  16.466  0.00  0.00    +0.000 A 
ATOM     16  C   UNL     1       5.951   3.919  15.065  0.00  0.00    +0.000 C 
ENDBRANCH   9  13
BRANCH   9  17
ATOM     17  C   UNL     1       2.191   3.471  19.292  0.00  0.00    +0.000 C 
ATOM     18  C   UNL     1       2.310   2.185  18.474  0.00  0.00    +0.000 C 
ATOM     19  C   UNL     1       0.807   3.621  19.959  0.00  0.00    +0.000 C 
ATOM     20  O   UNL     1       1.368   3.450  21.279  0.00  0.00    +0.000 OA
ATOM     21  C   UNL     1       2.699   3.310  20.738  0.00  0.00    +0.000 C 
ENDBRANCH   9  17
ENDBRANCH   7   9
ENDBRANCH   1   7
BRANCH   2  22
ATOM     22  N   UNL     1       0.941   8.802  20.268  0.00  0.00    +0.000 N 
ATOM     23  H   UNL     1       0.330   8.136  20.763  0.00  0.00    +0.000 HD
BRANCH  22  24
ATOM     24  C   UNL     1       0.028   9.885  19.983  0.00  0.00    +0.000 A 
ATOM     25  C   UNL     1      -0.857   9.844  18.899  0.00  0.00    +0.000 A 
ATOM     26  C   UNL     1      -1.751  10.891  18.679  0.00  0.00    +0.000 A 
ATOM     27  C   UNL     1      -1.805  11.962  19.573  0.00  0.00    +0.000 A 
ATOM     28  C   UNL     1      -0.913  12.053  20.655  0.00  0.00    +0.000 A 
ATOM     29  C   UNL     1       0.070  11.060  20.771  0.00  0.00    +0.000 A 
BRANCH  28  30
ATOM     30  C   UNL     1      -1.081  13.250  21.539  0.00  0.00    +0.000 C 
ATOM     31  O   UNL     1      -0.499  14.274  21.171  0.00  0.00    +0.000 OA
ATOM     32  N   UNL     1      -1.886  13.250  22.686  0.00  0.00    +0.000 N 
ATOM     33  C   UNL     1      -2.598  12.118  23.264  0.00  0.00    +0.000 C 
ATOM     34  C   UNL     1      -1.987  14.489  23.452  0.00  0.00    +0.000 C 
ENDBRANCH  28  30
BRANCH  29  35
ATOM     35  O   UNL     1       1.158  11.196  21.599  0.00  0.00    +0.000 OA
ATOM     36  H   UNL     1       1.676  10.373  21.499  0.00  0.00    +0.000 HD
ENDBRANCH  29  35
ENDBRANCH  22  24
ENDBRANCH   2  22
TORSDOF 8
ENDMDL
MODEL 7
REMARK VINA RESULT:      -8.6      2.201      4.383
REMARK  Name = 
REMARK  13 active torsions:
REMARK  status: ('A' for Active; 'I' for Inactive)
REMARK    1  A    between atoms: C_1  and  C_2
REMARK    2  A    between atoms: C_4  and  C_5
REMARK    3  A    between atoms: C_5  and  N_6
REMARK    4  A    between atoms: C_5  and  C_26
REMARK    5  A    between atoms: N_6  and  C_7
REMARK    6  A    between atoms: C_8  and  N_9
REMARK    7  A    between atoms: N_9  and  C_10
REMARK    8  A    between atoms: C_14  and  C_15
REMARK    9  A    between atoms: N_17  and  C_18
REMARK   10  A    between atoms: N_17  and  C_19
REMARK   11  A    between atoms: C_20  and  O_21
REMARK   12  A    between atoms: C_26  and  C_27
REMARK   13  A    between atoms: C_32  and  C_33
REMARK                            x       y       z     vdW  Elec       q    Type
REMARK                         _______ _______ _______ _____ _____    ______ ____
ROOT
ATOM      1  C   UNL     1       2.363   7.357  19.245  0.00  0.00    +0.000 C 
ATOM      2  C   UNL     1       1.653   8.520  19.439  0.00  0.00    +0.000 C 
ATOM      3  C   UNL     1       2.096   9.071  18.131  0.00  0.00    +0.000 C 
ATOM      4  O   UNL     1       1.921  10.051  17.449  0.00  0.00    +0.000 OA
ATOM      5  C   UNL     1       3.000   7.895  18.008  0.00  0.00    +0.000 C 
ATOM      6  O   UNL     1       3.865   7.580  17.229  0.00  0.00    +0.000 OA
ENDROOT
BRANCH   1   7
ATOM      7  N   UNL     1       2.599   6.203  19.862  0.00  0.00    +0.000 N 
ATOM      8  H   UNL     1       3.440   6.197  20.443  0.00  0.00    +0.000 HD
BRANCH   7   9
ATOM      9  C   UNL     1       2.667   4.942  19.048  0.00  0.00    +0.000 C 
BRANCH   9  13
ATOM     10  C   UNL     1       7.693   4.680  17.925  0.00  0.00    +0.000 C 
ATOM     11  C   UNL     1       6.216   4.555  17.896  0.00  0.00    +0.000 A 
ATOM     12  C   UNL     1       5.320   4.788  18.972  0.00  0.00    +0.000 A 
ATOM     13  C   UNL     1       4.040   4.696  18.461  0.00  0.00    +0.000 A 
ATOM     14  O   UNL     1       4.102   4.321  17.148  0.00  0.00    +0.000 OA
ATOM     15  C   UNL     1       5.421   4.219  16.817  0.00  0.00    +0.000 A 
ATOM     16  C   UNL     1       5.740   3.821  15.427  0.00  0.00    +0.000 C 
ENDBRANCH   9  13
BRANCH   9  17
ATOM     17  C   UNL     1       2.207   3.731  19.883  0.00  0.00    +0.000 C 
ATOM     18  C   UNL     1       2.153   3.941  21.397  0.00  0.00    +0.000 C 
ATOM     19  C   UNL     1       2.888   2.401  19.495  0.00  0.00    +0.000 C 
ATOM     20  O   UNL     1       1.647   1.849  19.003  0.00  0.00    +0.000 OA
ATOM     21  C   UNL     1       0.934   3.064  19.325  0.00  0.00    +0.000 C 
ENDBRANCH   9  17
ENDBRANCH   7   9
ENDBRANCH   1   7
BRANCH   2  22
ATOM     22  N   UNL     1       0.865   9.091  20.337  0.00  0.00    +0.000 N 
ATOM     23  H   UNL     1       0.319   8.461  20.942  0.00  0.00    +0.000 HD
BRANCH  22  24
ATOM     24  C   UNL     1      -0.125  10.076  19.964  0.00  0.00    +0.000 A 
ATOM     25  C   UNL     1      -0.997   9.879  18.888  0.00  0.00    +0.000 A 
ATOM     26  C   UNL     1      -1.966  10.834  18.582  0.00  0.00    +0.000 A 
ATOM     27  C   UNL     1      -2.106  11.968  19.384  0.00  0.00    +0.000 A 
ATOM     28  C   UNL     1      -1.229  12.214  20.455  0.00  0.00    +0.000 A 
ATOM     29  C   UNL     1      -0.175  11.312  20.652  0.00  0.00    +0.000 A 
BRANCH  28  30
ATOM     30  C   UNL     1      -1.492  13.464  21.237  0.00  0.00    +0.000 C 
ATOM     31  O   UNL     1      -1.063  14.508  20.738  0.00  0.00    +0.000 OA
ATOM     32  N   UNL     1      -2.224  13.483  22.432  0.00  0.00    +0.000 N 
ATOM     33  C   UNL     1      -2.756  12.337  23.157  0.00  0.00    +0.000 C 
ATOM     34  C   UNL     1      -2.431  14.770  23.088  0.00  0.00    +0.000 C 
ENDBRANCH  28  30
BRANCH  29  35
ATOM     35  O   UNL     1       0.894  11.596  21.466  0.00  0.00    +0.000 OA
ATOM     36  H   UNL     1       1.146  10.749  21.884  0.00  0.00    +0.000 HD
ENDBRANCH  29  35
ENDBRANCH  22  24
ENDBRANCH   2  22
TORSDOF 8
ENDMDL
MODEL 8
REMARK VINA RESULT:      -8.6      1.998      4.146
REMARK  Name = 
REMARK  13 active torsions:
REMARK  status: ('A' for Active; 'I' for Inactive)
REMARK    1  A    between atoms: C_1  and  C_2
REMARK    2  A    between atoms: C_4  and  C_5
REMARK    3  A    between atoms: C_5  and  N_6
REMARK    4  A    between atoms: C_5  and  C_26
REMARK    5  A    between atoms: N_6  and  C_7
REMARK    6  A    between atoms: C_8  and  N_9
REMARK    7  A    between atoms: N_9  and  C_10
REMARK    8  A    between atoms: C_14  and  C_15
REMARK    9  A    between atoms: N_17  and  C_18
REMARK   10  A    between atoms: N_17  and  C_19
REMARK   11  A    between atoms: C_20  and  O_21
REMARK   12  A    between atoms: C_26  and  C_27
REMARK   13  A    between atoms: C_32  and  C_33
REMARK                            x       y       z     vdW  Elec       q    Type
REMARK                         _______ _______ _______ _____ _____    ______ ____
ROOT
ATOM      1  C   UNL     1       2.353   7.168  19.061  0.00  0.00    +0.000 C 
ATOM      2  C   UNL     1       1.667   8.318  19.378  0.00  0.00    +0.000 C 
ATOM      3  C   UNL     1       2.138   9.002  18.145  0.00  0.00    +0.000 C 
ATOM      4  O   UNL     1       1.994  10.057  17.576  0.00  0.00    +0.000 OA
ATOM      5  C   UNL     1       3.016   7.827  17.899  0.00  0.00    +0.000 C 
ATOM      6  O   UNL     1       3.884   7.581  17.097  0.00  0.00    +0.000 OA
ENDROOT
BRANCH   1   7
ATOM      7  N   UNL     1       2.555   5.946  19.546  0.00  0.00    +0.000 N 
ATOM      8  H   UNL     1       3.371   5.862  20.156  0.00  0.00    +0.000 HD
BRANCH   7   9
ATOM      9  C   UNL     1       2.648   4.790  18.591  0.00  0.00    +0.000 C 
BRANCH   9  13
ATOM     10  C   UNL     1       7.728   4.585  17.723  0.00  0.00    +0.000 C 
ATOM     11  C   UNL     1       6.255   4.464  17.610  0.00  0.00    +0.000 A 
ATOM     12  C   UNL     1       5.302   4.638  18.648  0.00  0.00    +0.000 A 
ATOM     13  C   UNL     1       4.052   4.575  18.066  0.00  0.00    +0.000 A 
ATOM     14  O   UNL     1       4.184   4.271  16.739  0.00  0.00    +0.000 OA
ATOM     15  C   UNL     1       5.519   4.187  16.473  0.00  0.00    +0.000 A 
ATOM     16  C   UNL     1       5.911   3.865  15.083  0.00  0.00    +0.000 C 
ENDBRANCH   9  13
BRANCH   9  17
ATOM     17  C   UNL     1       2.109   3.502  19.245  0.00  0.00    +0.000 C 
ATOM     18  C   UNL     1       1.997   2.282  18.330  0.00  0.00    +0.000 C 
ATOM     19  C   UNL     1       0.846   3.712  20.107  0.00  0.00    +0.000 C 
ATOM     20  O   UNL     1       1.558   3.387  21.321  0.00  0.00    +0.000 OA
ATOM     21  C   UNL     1       2.787   3.181  20.591  0.00  0.00    +0.000 C 
ENDBRANCH   9  17
ENDBRANCH   7   9
ENDBRANCH   1   7
BRANCH   2  22
ATOM     22  N   UNL     1       0.882   8.803  20.328  0.00  0.00    +0.000 N 
ATOM     23  H   UNL     1       0.199   8.152  20.742  0.00  0.00    +0.000 HD
BRANCH  22  24
ATOM     24  C   UNL     1       0.076   9.985  20.119  0.00  0.00    +0.000 A 
ATOM     25  C   UNL     1      -0.920  10.038  19.138  0.00  0.00    +0.000 A 
ATOM     26  C   UNL     1      -1.705  11.182  18.992  0.00  0.00    +0.000 A 
ATOM     27  C   UNL     1      -1.535  12.261  19.861  0.00  0.00    +0.000 A 
ATOM     28  C   UNL     1      -0.525  12.255  20.839  0.00  0.00    +0.000 A 
ATOM     29  C   UNL     1       0.342  11.154  20.870  0.00  0.00    +0.000 A 
BRANCH  28  30
ATOM     30  C   UNL     1      -0.454  13.472  21.709  0.00  0.00    +0.000 C 
ATOM     31  O   UNL     1      -1.176  13.458  22.709  0.00  0.00    +0.000 OA
ATOM     32  N   UNL     1       0.407  14.549  21.454  0.00  0.00    +0.000 N 
ATOM     33  C   UNL     1       1.281  14.725  20.302  0.00  0.00    +0.000 C 
ATOM     34  C   UNL     1       0.398  15.668  22.390  0.00  0.00    +0.000 C 
ENDBRANCH  28  30
BRANCH  29  35
ATOM     35  O   UNL     1       1.522  11.167  21.574  0.00  0.00    +0.000 OA
ATOM     36  H   UNL     1       1.312  11.560  22.444  0.00  0.00    +0.000 HD
ENDBRANCH  29  35
ENDBRANCH  22  24
ENDBRANCH   2  22
TORSDOF 8
ENDMDL
MODEL 9
REMARK VINA RESULT:      -8.6      2.206      4.356
REMARK  Name = 
REMARK  13 active torsions:
REMARK  status: ('A' for Active; 'I' for Inactive)
REMARK    1  A    between atoms: C_1  and  C_2
REMARK    2  A    between atoms: C_4  and  C_5
REMARK    3  A    between atoms: C_5  and  N_6
REMARK    4  A    between atoms: C_5  and  C_26
REMARK    5  A    between atoms: N_6  and  C_7
REMARK    6  A    between atoms: C_8  and  N_9
REMARK    7  A    between atoms: N_9  and  C_10
REMARK    8  A    between atoms: C_14  and  C_15
REMARK    9  A    between atoms: N_17  and  C_18
REMARK   10  A    between atoms: N_17  and  C_19
REMARK   11  A    between atoms: C_20  and  O_21
REMARK   12  A    between atoms: C_26  and  C_27
REMARK   13  A    between atoms: C_32  and  C_33
REMARK                            x       y       z     vdW  Elec       q    Type
REMARK                         _______ _______ _______ _____ _____    ______ ____
ROOT
ATOM      1  C   UNL     1       2.333   7.380  19.269  0.00  0.00    +0.000 C 
ATOM      2  C   UNL     1       1.625   8.548  19.443  0.00  0.00    +0.000 C 
ATOM      3  C   UNL     1       2.079   9.080  18.131  0.00  0.00    +0.000 C 
ATOM      4  O   UNL     1       1.911  10.052  17.435  0.00  0.00    +0.000 OA
ATOM      5  C   UNL     1       2.979   7.900  18.030  0.00  0.00    +0.000 C 
ATOM      6  O   UNL     1       3.849   7.573  17.260  0.00  0.00    +0.000 OA
ENDROOT
BRANCH   1   7
ATOM      7  N   UNL     1       2.561   6.233  19.902  0.00  0.00    +0.000 N 
ATOM      8  H   UNL     1       3.392   6.235  20.498  0.00  0.00    +0.000 HD
BRANCH   7   9
ATOM      9  C   UNL     1       2.646   4.964  19.103  0.00  0.00    +0.000 C 
BRANCH   9  13
ATOM     10  C   UNL     1       7.685   4.727  18.028  0.00  0.00    +0.000 C 
ATOM     11  C   UNL     1       6.209   4.592  17.987  0.00  0.00    +0.000 A 
ATOM     12  C   UNL     1       5.301   4.828  19.053  0.00  0.00    +0.000 A 
ATOM     13  C   UNL     1       4.027   4.722  18.531  0.00  0.00    +0.000 A 
ATOM     14  O   UNL     1       4.103   4.336  17.222  0.00  0.00    +0.000 OA
ATOM     15  C   UNL     1       5.426   4.241  16.903  0.00  0.00    +0.000 A 
ATOM     16  C   UNL     1       5.760   3.833  15.520  0.00  0.00    +0.000 C 
ENDBRANCH   9  13
BRANCH   9  17
ATOM     17  C   UNL     1       2.189   3.758  19.948  0.00  0.00    +0.000 C 
ATOM     18  C   UNL     1       2.230   3.948  21.465  0.00  0.00    +0.000 C 
ATOM     19  C   UNL     1       2.794   2.410  19.504  0.00  0.00    +0.000 C 
ATOM     20  O   UNL     1       1.506   1.913  19.078  0.00  0.00    +0.000 OA
ATOM     21  C   UNL     1       0.861   3.148  19.456  0.00  0.00    +0.000 C 
ENDBRANCH   9  17
ENDBRANCH   7   9
ENDBRANCH   1   7
BRANCH   2  22
ATOM     22  N   UNL     1       0.833   9.133  20.329  0.00  0.00    +0.000 N 
ATOM     23  H   UNL     1       0.196   8.519  20.857  0.00  0.00    +0.000 HD
BRANCH  22  24
ATOM     24  C   UNL     1      -0.041  10.223  19.964  0.00  0.00    +0.000 A 
ATOM     25  C   UNL     1      -1.077  10.064  19.036  0.00  0.00    +0.000 A 
ATOM     26  C   UNL     1      -1.926  11.130  18.738  0.00  0.00    +0.000 A 
ATOM     27  C   UNL     1      -1.779  12.347  19.405  0.00  0.00    +0.000 A 
ATOM     28  C   UNL     1      -0.732  12.553  20.321  0.00  0.00    +0.000 A 
ATOM     29  C   UNL     1       0.192  11.514  20.495  0.00  0.00    +0.000 A 
BRANCH  28  30
ATOM     30  C   UNL     1      -0.692  13.903  20.969  0.00  0.00    +0.000 C 
ATOM     31  O   UNL     1      -1.326  14.009  22.023  0.00  0.00    +0.000 OA
ATOM     32  N   UNL     1       0.053  14.976  20.462  0.00  0.00    +0.000 N 
ATOM     33  C   UNL     1       0.812  15.013  19.219  0.00  0.00    +0.000 C 
ATOM     34  C   UNL     1       0.028  16.235  21.200  0.00  0.00    +0.000 C 
ENDBRANCH  28  30
BRANCH  29  35
ATOM     35  O   UNL     1       1.396  11.700  21.129  0.00  0.00    +0.000 OA
ATOM     36  H   UNL     1       1.703  10.809  21.389  0.00  0.00    +0.000 HD
ENDBRANCH  29  35
ENDBRANCH  22  24
ENDBRANCH   2  22
TORSDOF 8
ENDMDL
