MODEL 1
REMARK VINA RESULT:      -9.3      0.000      0.000
REMARK  Name = 
REMARK  12 active torsions:
REMARK  status: ('A' for Active; 'I' for Inactive)
REMARK    1  A    between atoms: C_1  and  C_2
REMARK    2  A    between atoms: C_2  and  O_3
REMARK    3  A    between atoms: O_3  and  C_4
REMARK    4  A    between atoms: C_4  and  C_6
REMARK    5  A    between atoms: C_6  and  O_7
REMARK    6  A    between atoms: C_8  and  C_9
REMARK    7  A    between atoms: C_9  and  C_11
REMARK    8  A    between atoms: N_13  and  C_14
REMARK    9  A    between atoms: C_14  and  C_15
REMARK   10  A    between atoms: C_19  and  C_20
REMARK   11  A    between atoms: C_21  and  C_22
REMARK   12  A    between atoms: C_27  and  O_28
REMARK                            x       y       z     vdW  Elec       q    Type
REMARK                         _______ _______ _______ _____ _____    ______ ____
ROOT
ATOM      1  C   UNL     1       4.352   4.661  19.024  0.00  0.00    +0.000 A 
ATOM      2  C   UNL     1       3.872   5.729  19.764  0.00  0.00    +0.000 A 
ATOM      3  N   UNL     1       2.552   5.524  20.056  0.00  0.00    +0.000 N 
ATOM      4  C   UNL     1       2.152   4.303  19.552  0.00  0.00    +0.000 A 
ATOM      5  C   UNL     1       0.906   3.659  19.606  0.00  0.00    +0.000 A 
ATOM      6  C   UNL     1       0.772   2.397  19.024  0.00  0.00    +0.000 A 
ATOM      7  C   UNL     1       1.855   1.784  18.410  0.00  0.00    +0.000 A 
ATOM      8  C   UNL     1       3.096   2.430  18.359  0.00  0.00    +0.000 A 
ATOM      9  C   UNL     1       3.265   3.723  18.916  0.00  0.00    +0.000 A 
ENDROOT
BRANCH   1  10
ATOM     10  C   UNL     1       5.732   4.638  18.544  0.00  0.00    +0.000 C 
ATOM     11  O   UNL     1       6.681   4.632  19.322  0.00  0.00    +0.000 OA
BRANCH  10  13
ATOM     12  C   UNL     1       7.048   4.532  16.441  0.00  0.00    +0.000 C 
ATOM     13  C   UNL     1       5.896   4.784  17.079  0.00  0.00    +0.000 C 
BRANCH  12  14
ATOM     14  C   UNL     1       7.054   4.622  14.949  0.00  0.00    +0.000 C 
ATOM     15  O   UNL     1       7.620   5.469  14.281  0.00  0.00    +0.000 OA
BRANCH  14  16
ATOM     16  O   UNL     1       6.208   3.654  14.495  0.00  0.00    +0.000 OA
BRANCH  16  18
ATOM     17  C   UNL     1       6.124   3.107  12.174  0.00  0.00    +0.000 C 
ATOM     18  C   UNL     1       5.525   3.965  13.273  0.00  0.00    +0.000 C 
ENDBRANCH  16  18
ENDBRANCH  14  16
ENDBRANCH  12  14
BRANCH  12  19
ATOM     19  O   UNL     1       8.198   4.102  17.083  0.00  0.00    +0.000 OA
ATOM     20  H   UNL     1       8.038   4.226  18.039  0.00  0.00    +0.000 HD
ENDBRANCH  12  19
ENDBRANCH  10  13
ENDBRANCH   1  10
BRANCH   8  21
ATOM     21  O   UNL     1       4.154   1.780  17.771  0.00  0.00    +0.000 OA
ATOM     22  H   UNL     1       4.809   1.567  18.457  0.00  0.00    +0.000 HD
ENDBRANCH   8  21
BRANCH   3  23
ATOM     23  C   UNL     1       1.685   6.540  20.661  0.00  0.00    +0.000 C 
BRANCH  23  24
ATOM     24  C   UNL     1       1.642   7.857  19.907  0.00  0.00    +0.000 A 
ATOM     25  C   UNL     1       2.136   7.891  18.588  0.00  0.00    +0.000 A 
ATOM     26  C   UNL     1       2.027   9.033  17.803  0.00  0.00    +0.000 A 
ATOM     27  C   UNL     1       1.431  10.174  18.324  0.00  0.00    +0.000 A 
ATOM     28  C   UNL     1       0.941  10.192  19.638  0.00  0.00    +0.000 A 
ATOM     29  C   UNL     1       0.330  11.473  20.146  0.00  0.00    +0.000 C 
ATOM     30  C   UNL     1       1.025   9.024  20.438  0.00  0.00    +0.000 A 
ATOM     31  C   UNL     1       0.429   9.009  21.824  0.00  0.00    +0.000 C 
ENDBRANCH  23  24
ENDBRANCH   3  23
TORSDOF 9
ENDMDL
MODEL 2
REMARK VINA RESULT:      -8.5      1.241      1.848
REMARK  Name = 
REMARK  12 active torsions:
REMARK  status: ('A' for Active; 'I' for Inactive)
REMARK    1  A    between atoms: C_1  and  C_2
REMARK    2  A    between atoms: C_2  and  O_3
REMARK    3  A    between atoms: O_3  and  C_4
REMARK    4  A    between atoms: C_4  and  C_6
REMARK    5  A    between atoms: C_6  and  O_7
REMARK    6  A    between atoms: C_8  and  C_9
REMARK    7  A    between atoms: C_9  and  C_11
REMARK    8  A    between atoms: N_13  and  C_14
REMARK    9  A    between atoms: C_14  and  C_15
REMARK   10  A    between atoms: C_19  and  C_20
REMARK   11  A    between atoms: C_21  and  C_22
REMARK   12  A    between atoms: C_27  and  O_28
REMARK                            x       y       z     vdW  Elec       q    Type
REMARK                         _______ _______ _______ _____ _____    ______ ____
ROOT
ATOM      1  C   UNL     1       4.706   4.936  18.494  0.00  0.00    +0.000 A 
ATOM      2  C   UNL     1       4.113   6.142  18.159  0.00  0.00    +0.000 A 
ATOM      3  N   UNL     1       2.832   6.169  18.635  0.00  0.00    +0.000 N 
ATOM      4  C   UNL     1       2.573   5.002  19.327  0.00  0.00    +0.000 A 
ATOM      5  C   UNL     1       1.413   4.578  19.994  0.00  0.00    +0.000 A 
ATOM      6  C   UNL     1       1.421   3.342  20.642  0.00  0.00    +0.000 A 
ATOM      7  C   UNL     1       2.559   2.548  20.635  0.00  0.00    +0.000 A 
ATOM      8  C   UNL     1       3.713   2.975  19.968  0.00  0.00    +0.000 A 
ATOM      9  C   UNL     1       3.736   4.213  19.277  0.00  0.00    +0.000 A 
ENDROOT
BRANCH   1  10
ATOM     10  C   UNL     1       6.071   4.625  18.076  0.00  0.00    +0.000 C 
ATOM     11  O   UNL     1       7.005   4.648  18.871  0.00  0.00    +0.000 OA
BRANCH  10  13
ATOM     12  C   UNL     1       6.929   5.318  15.851  0.00  0.00    +0.000 C 
ATOM     13  C   UNL     1       6.262   4.444  16.618  0.00  0.00    +0.000 C 
BRANCH  12  14
ATOM     14  C   UNL     1       7.135   4.970  14.413  0.00  0.00    +0.000 C 
ATOM     15  O   UNL     1       7.950   5.472  13.659  0.00  0.00    +0.000 OA
BRANCH  14  16
ATOM     16  O   UNL     1       6.159   4.078  14.082  0.00  0.00    +0.000 OA
BRANCH  16  18
ATOM     17  C   UNL     1       4.902   3.478  12.145  0.00  0.00    +0.000 C 
ATOM     18  C   UNL     1       6.281   3.495  12.778  0.00  0.00    +0.000 C 
ENDBRANCH  16  18
ENDBRANCH  14  16
ENDBRANCH  12  14
BRANCH  12  19
ATOM     19  O   UNL     1       7.515   6.473  16.344  0.00  0.00    +0.000 OA
ATOM     20  H   UNL     1       7.857   6.248  17.231  0.00  0.00    +0.000 HD
ENDBRANCH  12  19
ENDBRANCH  10  13
ENDBRANCH   1  10
BRANCH   8  21
ATOM     21  O   UNL     1       4.832   2.179  20.009  0.00  0.00    +0.000 OA
ATOM     22  H   UNL     1       4.656   1.368  19.504  0.00  0.00    +0.000 HD
ENDBRANCH   8  21
BRANCH   3  23
ATOM     23  C   UNL     1       1.861   7.213  18.298  0.00  0.00    +0.000 C 
BRANCH  23  24
ATOM     24  C   UNL     1       1.502   8.131  19.454  0.00  0.00    +0.000 A 
ATOM     25  C   UNL     1       1.708   7.667  20.768  0.00  0.00    +0.000 A 
ATOM     26  C   UNL     1       1.506   8.492  21.868  0.00  0.00    +0.000 A 
ATOM     27  C   UNL     1       1.080   9.801  21.679  0.00  0.00    +0.000 A 
ATOM     28  C   UNL     1       0.845  10.301  20.391  0.00  0.00    +0.000 A 
ATOM     29  C   UNL     1       0.359  11.722  20.262  0.00  0.00    +0.000 C 
ATOM     30  C   UNL     1       1.074   9.474  19.261  0.00  0.00    +0.000 A 
ATOM     31  C   UNL     1       0.901  10.027  17.868  0.00  0.00    +0.000 C 
ENDBRANCH  23  24
ENDBRANCH   3  23
TORSDOF 9
ENDMDL
MODEL 3
REMARK VINA RESULT:      -8.4      0.989      1.191
REMARK  Name = 
REMARK  12 active torsions:
REMARK  status: ('A' for Active; 'I' for Inactive)
REMARK    1  A    between atoms: C_1  and  C_2
REMARK    2  A    between atoms: C_2  and  O_3
REMARK    3  A    between atoms: O_3  and  C_4
REMARK    4  A    between atoms: C_4  and  C_6
REMARK    5  A    between atoms: C_6  and  O_7
REMARK    6  A    between atoms: C_8  and  C_9
REMARK    7  A    between atoms: C_9  and  C_11
REMARK    8  A    between atoms: N_13  and  C_14
REMARK    9  A    between atoms: C_14  and  C_15
REMARK   10  A    between atoms: C_19  and  C_20
REMARK   11  A    between atoms: C_21  and  C_22
REMARK   12  A    between atoms: C_27  and  O_28
REMARK                            x       y       z     vdW  Elec       q    Type
REMARK                         _______ _______ _______ _____ _____    ______ ____
ROOT
ATOM      1  C   UNL     1       4.448   4.518  18.857  0.00  0.00    +0.000 A 
ATOM      2  C   UNL     1       4.069   5.620  19.607  0.00  0.00    +0.000 A 
ATOM      3  N   UNL     1       2.778   5.463  20.026  0.00  0.00    +0.000 N 
ATOM      4  C   UNL     1       2.298   4.242  19.596  0.00  0.00    +0.000 A 
ATOM      5  C   UNL     1       1.044   3.638  19.784  0.00  0.00    +0.000 A 
ATOM      6  C   UNL     1       0.821   2.366  19.254  0.00  0.00    +0.000 A 
ATOM      7  C   UNL     1       1.824   1.704  18.560  0.00  0.00    +0.000 A 
ATOM      8  C   UNL     1       3.072   2.310  18.375  0.00  0.00    +0.000 A 
ATOM      9  C   UNL     1       3.330   3.611  18.877  0.00  0.00    +0.000 A 
ENDROOT
BRANCH   1  10
ATOM     10  C   UNL     1       5.776   4.440  18.251  0.00  0.00    +0.000 C 
ATOM     11  O   UNL     1       6.793   4.624  18.913  0.00  0.00    +0.000 OA
BRANCH  10  13
ATOM     12  C   UNL     1       6.568   5.025  15.972  0.00  0.00    +0.000 C 
ATOM     13  C   UNL     1       5.793   4.286  16.778  0.00  0.00    +0.000 C 
BRANCH  12  14
ATOM     14  C   UNL     1       6.565   4.704  14.513  0.00  0.00    +0.000 C 
ATOM     15  O   UNL     1       5.855   3.886  13.956  0.00  0.00    +0.000 OA
BRANCH  14  16
ATOM     16  O   UNL     1       7.589   5.411  13.955  0.00  0.00    +0.000 OA
BRANCH  16  18
ATOM     17  C   UNL     1       8.332   6.347  11.889  0.00  0.00    +0.000 C 
ATOM     18  C   UNL     1       7.889   5.077  12.593  0.00  0.00    +0.000 C 
ENDBRANCH  16  18
ENDBRANCH  14  16
ENDBRANCH  12  14
BRANCH  12  19
ATOM     19  O   UNL     1       7.436   6.003  16.433  0.00  0.00    +0.000 OA
ATOM     20  H   UNL     1       7.471   6.687  15.737  0.00  0.00    +0.000 HD
ENDBRANCH  12  19
ENDBRANCH  10  13
ENDBRANCH   1  10
BRANCH   8  21
ATOM     21  O   UNL     1       4.052   1.612  17.711  0.00  0.00    +0.000 OA
ATOM     22  H   UNL     1       4.791   2.215  17.523  0.00  0.00    +0.000 HD
ENDBRANCH   8  21
BRANCH   3  23
ATOM     23  C   UNL     1       2.000   6.520  20.679  0.00  0.00    +0.000 C 
BRANCH  23  24
ATOM     24  C   UNL     1       1.839   7.782  19.850  0.00  0.00    +0.000 A 
ATOM     25  C   UNL     1       2.311   7.778  18.523  0.00  0.00    +0.000 A 
ATOM     26  C   UNL     1       2.097   8.858  17.675  0.00  0.00    +0.000 A 
ATOM     27  C   UNL     1       1.417   9.977  18.140  0.00  0.00    +0.000 A 
ATOM     28  C   UNL     1       0.945  10.033  19.459  0.00  0.00    +0.000 A 
ATOM     29  C   UNL     1       0.238  11.288  19.904  0.00  0.00    +0.000 C 
ATOM     30  C   UNL     1       1.135   8.925  20.324  0.00  0.00    +0.000 A 
ATOM     31  C   UNL     1       0.562   8.944  21.719  0.00  0.00    +0.000 C 
ENDBRANCH  23  24
ENDBRANCH   3  23
TORSDOF 9
ENDMDL
MODEL 4
REMARK VINA RESULT:      -8.1      1.407      1.832
REMARK  Name = 
REMARK  12 active torsions:
REMARK  status: ('A' for Active; 'I' for Inactive)
REMARK    1  A    between atoms: C_1  and  C_2
REMARK    2  A    between atoms: C_2  and  O_3
REMARK    3  A    between atoms: O_3  and  C_4
REMARK    4  A    between atoms: C_4  and  C_6
REMARK    5  A    between atoms: C_6  and  O_7
REMARK    6  A    between atoms: C_8  and  C_9
REMARK    7  A    between atoms: C_9  and  C_11
REMARK    8  A    between atoms: N_13  and  C_14
REMARK    9  A    between atoms: C_14  and  C_15
REMARK   10  A    between atoms: C_19  and  C_20
REMARK   11  A    between atoms: C_21  and  C_22
REMARK   12  A    between atoms: C_27  and  O_28
REMARK                            x       y       z     vdW  Elec       q    Type
REMARK                         _______ _______ _______ _____ _____    ______ ____
ROOT
ATOM      1  C   UNL     1       4.840   6.068  18.062  0.00  0.00    +0.000 A 
ATOM      2  C   UNL     1       3.995   7.136  17.804  0.00  0.00    +0.000 A 
ATOM      3  N   UNL     1       2.729   6.824  18.212  0.00  0.00    +0.000 N 
ATOM      4  C   UNL     1       2.724   5.567  18.783  0.00  0.00    +0.000 A 
ATOM      5  C   UNL     1       1.673   4.827  19.348  0.00  0.00    +0.000 A 
ATOM      6  C   UNL     1       1.945   3.567  19.884  0.00  0.00    +0.000 A 
ATOM      7  C   UNL     1       3.236   3.057  19.867  0.00  0.00    +0.000 A 
ATOM      8  C   UNL     1       4.281   3.799  19.302  0.00  0.00    +0.000 A 
ATOM      9  C   UNL     1       4.039   5.071  18.725  0.00  0.00    +0.000 A 
ENDROOT
BRANCH   1  10
ATOM     10  C   UNL     1       6.252   6.117  17.690  0.00  0.00    +0.000 C 
ATOM     11  O   UNL     1       7.116   6.438  18.500  0.00  0.00    +0.000 OA
BRANCH  10  13
ATOM     12  C   UNL     1       6.535   4.709  15.665  0.00  0.00    +0.000 C 
ATOM     13  C   UNL     1       6.536   5.914  16.250  0.00  0.00    +0.000 C 
BRANCH  12  14
ATOM     14  C   UNL     1       6.739   4.650  14.186  0.00  0.00    +0.000 C 
ATOM     15  O   UNL     1       7.511   5.333  13.537  0.00  0.00    +0.000 OA
BRANCH  14  16
ATOM     16  O   UNL     1       5.812   3.777  13.698  0.00  0.00    +0.000 OA
BRANCH  16  18
ATOM     17  C   UNL     1       4.660   3.256  11.674  0.00  0.00    +0.000 C 
ATOM     18  C   UNL     1       6.020   3.363  12.341  0.00  0.00    +0.000 C 
ENDBRANCH  16  18
ENDBRANCH  14  16
ENDBRANCH  12  14
BRANCH  12  19
ATOM     19  O   UNL     1       6.262   3.531  16.344  0.00  0.00    +0.000 OA
ATOM     20  H   UNL     1       5.471   3.708  16.888  0.00  0.00    +0.000 HD
ENDBRANCH  12  19
ENDBRANCH  10  13
ENDBRANCH   1  10
BRANCH   8  21
ATOM     21  O   UNL     1       5.551   3.276  19.331  0.00  0.00    +0.000 OA
ATOM     22  H   UNL     1       5.823   3.066  18.422  0.00  0.00    +0.000 HD
ENDBRANCH   8  21
BRANCH   3  23
ATOM     23  C   UNL     1       1.553   7.649  17.919  0.00  0.00    +0.000 C 
BRANCH  23  24
ATOM     24  C   UNL     1       1.522   8.979  18.652  0.00  0.00    +0.000 A 
ATOM     25  C   UNL     1       1.887  10.142  17.946  0.00  0.00    +0.000 A 
ATOM     26  C   UNL     1       1.775  11.403  18.521  0.00  0.00    +0.000 A 
ATOM     27  C   UNL     1       1.308  11.529  19.823  0.00  0.00    +0.000 A 
ATOM     28  C   UNL     1       0.950  10.397  20.570  0.00  0.00    +0.000 A 
ATOM     29  C   UNL     1       0.475  10.605  21.985  0.00  0.00    +0.000 C 
ATOM     30  C   UNL     1       1.035   9.109  19.982  0.00  0.00    +0.000 A 
ATOM     31  C   UNL     1       0.577   7.893  20.750  0.00  0.00    +0.000 C 
ENDBRANCH  23  24
ENDBRANCH   3  23
TORSDOF 9
ENDMDL
MODEL 5
REMARK VINA RESULT:      -8.0      1.395      2.097
REMARK  Name = 
REMARK  12 active torsions:
REMARK  status: ('A' for Active; 'I' for Inactive)
REMARK    1  A    between atoms: C_1  and  C_2
REMARK    2  A    between atoms: C_2  and  O_3
REMARK    3  A    between atoms: O_3  and  C_4
REMARK    4  A    between atoms: C_4  and  C_6
REMARK    5  A    between atoms: C_6  and  O_7
REMARK    6  A    between atoms: C_8  and  C_9
REMARK    7  A    between atoms: C_9  and  C_11
REMARK    8  A    between atoms: N_13  and  C_14
REMARK    9  A    between atoms: C_14  and  C_15
REMARK   10  A    between atoms: C_19  and  C_20
REMARK   11  A    between atoms: C_21  and  C_22
REMARK   12  A    between atoms: C_27  and  O_28
REMARK                            x       y       z     vdW  Elec       q    Type
REMARK                         _______ _______ _______ _____ _____    ______ ____
ROOT
ATOM      1  C   UNL     1       4.690   6.287  17.681  0.00  0.00    +0.000 A 
ATOM      2  C   UNL     1       3.987   7.472  17.828  0.00  0.00    +0.000 A 
ATOM      3  N   UNL     1       2.669   7.194  18.063  0.00  0.00    +0.000 N 
ATOM      4  C   UNL     1       2.488   5.826  18.117  0.00  0.00    +0.000 A 
ATOM      5  C   UNL     1       1.327   5.069  18.339  0.00  0.00    +0.000 A 
ATOM      6  C   UNL     1       1.423   3.677  18.365  0.00  0.00    +0.000 A 
ATOM      7  C   UNL     1       2.648   3.050  18.183  0.00  0.00    +0.000 A 
ATOM      8  C   UNL     1       3.803   3.810  17.961  0.00  0.00    +0.000 A 
ATOM      9  C   UNL     1       3.742   5.225  17.903  0.00  0.00    +0.000 A 
ENDROOT
BRANCH   1  10
ATOM     10  C   UNL     1       6.121   6.291  17.385  0.00  0.00    +0.000 C 
ATOM     11  O   UNL     1       6.950   6.591  18.238  0.00  0.00    +0.000 OA
BRANCH  10  13
ATOM     12  C   UNL     1       7.174   5.009  15.538  0.00  0.00    +0.000 C 
ATOM     13  C   UNL     1       6.474   6.070  15.964  0.00  0.00    +0.000 C 
BRANCH  12  14
ATOM     14  C   UNL     1       7.379   4.851  14.067  0.00  0.00    +0.000 C 
ATOM     15  O   UNL     1       8.178   5.464  13.380  0.00  0.00    +0.000 OA
BRANCH  14  16
ATOM     16  O   UNL     1       6.420   3.987  13.628  0.00  0.00    +0.000 OA
BRANCH  16  18
ATOM     17  C   UNL     1       5.204   3.061  11.796  0.00  0.00    +0.000 C 
ATOM     18  C   UNL     1       6.557   3.565  12.264  0.00  0.00    +0.000 C 
ENDBRANCH  16  18
ENDBRANCH  14  16
ENDBRANCH  12  14
BRANCH  12  19
ATOM     19  O   UNL     1       7.632   4.008  16.382  0.00  0.00    +0.000 OA
ATOM     20  H   UNL     1       6.921   3.857  17.034  0.00  0.00    +0.000 HD
ENDBRANCH  12  19
ENDBRANCH  10  13
ENDBRANCH   1  10
BRANCH   8  21
ATOM     21  O   UNL     1       5.004   3.157  17.818  0.00  0.00    +0.000 OA
ATOM     22  H   UNL     1       5.661   3.785  17.475  0.00  0.00    +0.000 HD
ENDBRANCH   8  21
BRANCH   3  23
ATOM     23  C   UNL     1       1.614   8.211  18.078  0.00  0.00    +0.000 C 
BRANCH  23  24
ATOM     24  C   UNL     1       1.251   8.716  19.463  0.00  0.00    +0.000 A 
ATOM     25  C   UNL     1       1.642   7.951  20.579  0.00  0.00    +0.000 A 
ATOM     26  C   UNL     1       1.440   8.408  21.877  0.00  0.00    +0.000 A 
ATOM     27  C   UNL     1       0.829   9.638  22.089  0.00  0.00    +0.000 A 
ATOM     28  C   UNL     1       0.407  10.425  21.008  0.00  0.00    +0.000 A 
ATOM     29  C   UNL     1      -0.271  11.736  21.311  0.00  0.00    +0.000 C 
ATOM     30  C   UNL     1       0.633   9.979  19.680  0.00  0.00    +0.000 A 
ATOM     31  C   UNL     1       0.255  10.855  18.511  0.00  0.00    +0.000 C 
ENDBRANCH  23  24
ENDBRANCH   3  23
TORSDOF 9
ENDMDL
MODEL 6
REMARK VINA RESULT:      -8.0      3.773      5.633
REMARK  Name = 
REMARK  12 active torsions:
REMARK  status: ('A' for Active; 'I' for Inactive)
REMARK    1  A    between atoms: C_1  and  C_2
REMARK    2  A    between atoms: C_2  and  O_3
REMARK    3  A    between atoms: O_3  and  C_4
REMARK    4  A    between atoms: C_4  and  C_6
REMARK    5  A    between atoms: C_6  and  O_7
REMARK    6  A    between atoms: C_8  and  C_9
REMARK    7  A    between atoms: C_9  and  C_11
REMARK    8  A    between atoms: N_13  and  C_14
REMARK    9  A    between atoms: C_14  and  C_15
REMARK   10  A    between atoms: C_19  and  C_20
REMARK   11  A    between atoms: C_21  and  C_22
REMARK   12  A    between atoms: C_27  and  O_28
REMARK                            x       y       z     vdW  Elec       q    Type
REMARK                         _______ _______ _______ _____ _____    ______ ____
ROOT
ATOM      1  C   UNL     1       6.203   4.437  15.620  0.00  0.00    +0.000 A 
ATOM      2  C   UNL     1       5.296   3.435  15.926  0.00  0.00    +0.000 A 
ATOM      3  N   UNL     1       5.146   3.355  17.282  0.00  0.00    +0.000 N 
ATOM      4  C   UNL     1       5.915   4.327  17.890  0.00  0.00    +0.000 A 
ATOM      5  C   UNL     1       6.082   4.640  19.249  0.00  0.00    +0.000 A 
ATOM      6  C   UNL     1       6.917   5.702  19.600  0.00  0.00    +0.000 A 
ATOM      7  C   UNL     1       7.566   6.443  18.623  0.00  0.00    +0.000 A 
ATOM      8  C   UNL     1       7.397   6.127  17.269  0.00  0.00    +0.000 A 
ATOM      9  C   UNL     1       6.577   5.040  16.874  0.00  0.00    +0.000 A 
ENDROOT
BRANCH   1  10
ATOM     10  C   UNL     1       6.580   4.715  14.236  0.00  0.00    +0.000 C 
ATOM     11  O   UNL     1       7.485   5.498  13.963  0.00  0.00    +0.000 OA
BRANCH  10  13
ATOM     12  C   UNL     1       6.126   3.233  12.296  0.00  0.00    +0.000 C 
ATOM     13  C   UNL     1       5.697   4.118  13.207  0.00  0.00    +0.000 C 
BRANCH  12  14
ATOM     14  C   UNL     1       5.115   2.632  11.376  0.00  0.00    +0.000 C 
ATOM     15  O   UNL     1       5.214   1.567  10.791  0.00  0.00    +0.000 OA
BRANCH  14  16
ATOM     16  O   UNL     1       4.124   3.556  11.225  0.00  0.00    +0.000 OA
BRANCH  16  18
ATOM     17  C   UNL     1       2.849   4.411   9.398  0.00  0.00    +0.000 C 
ATOM     18  C   UNL     1       3.099   3.205  10.285  0.00  0.00    +0.000 C 
ENDBRANCH  16  18
ENDBRANCH  14  16
ENDBRANCH  12  14
BRANCH  12  19
ATOM     19  O   UNL     1       7.435   2.782  12.227  0.00  0.00    +0.000 OA
ATOM     20  H   UNL     1       7.966   3.406  12.760  0.00  0.00    +0.000 HD
ENDBRANCH  12  19
ENDBRANCH  10  13
ENDBRANCH   1  10
BRANCH   8  21
ATOM     21  O   UNL     1       8.029   6.902  16.327  0.00  0.00    +0.000 OA
ATOM     22  H   UNL     1       8.647   6.344  15.827  0.00  0.00    +0.000 HD
ENDBRANCH   8  21
BRANCH   3  23
ATOM     23  C   UNL     1       4.408   2.284  17.957  0.00  0.00    +0.000 C 
BRANCH  23  24
ATOM     24  C   UNL     1       3.150   2.743  18.672  0.00  0.00    +0.000 A 
ATOM     25  C   UNL     1       2.087   3.250  17.899  0.00  0.00    +0.000 A 
ATOM     26  C   UNL     1       0.867   3.585  18.476  0.00  0.00    +0.000 A 
ATOM     27  C   UNL     1       0.686   3.432  19.844  0.00  0.00    +0.000 A 
ATOM     28  C   UNL     1       1.722   2.948  20.656  0.00  0.00    +0.000 A 
ATOM     29  C   UNL     1       1.464   2.832  22.137  0.00  0.00    +0.000 C 
ATOM     30  C   UNL     1       2.961   2.579  20.073  0.00  0.00    +0.000 A 
ATOM     31  C   UNL     1       4.054   1.983  20.925  0.00  0.00    +0.000 C 
ENDBRANCH  23  24
ENDBRANCH   3  23
TORSDOF 9
ENDMDL
MODEL 7
REMARK VINA RESULT:      -7.9      2.152      3.059
REMARK  Name = 
REMARK  12 active torsions:
REMARK  status: ('A' for Active; 'I' for Inactive)
REMARK    1  A    between atoms: C_1  and  C_2
REMARK    2  A    between atoms: C_2  and  O_3
REMARK    3  A    between atoms: O_3  and  C_4
REMARK    4  A    between atoms: C_4  and  C_6
REMARK    5  A    between atoms: C_6  and  O_7
REMARK    6  A    between atoms: C_8  and  C_9
REMARK    7  A    between atoms: C_9  and  C_11
REMARK    8  A    between atoms: N_13  and  C_14
REMARK    9  A    between atoms: C_14  and  C_15
REMARK   10  A    between atoms: C_19  and  C_20
REMARK   11  A    between atoms: C_21  and  C_22
REMARK   12  A    between atoms: C_27  and  O_28
REMARK                            x       y       z     vdW  Elec       q    Type
REMARK                         _______ _______ _______ _____ _____    ______ ____
ROOT
ATOM      1  C   UNL     1       3.976   4.789  18.521  0.00  0.00    +0.000 A 
ATOM      2  C   UNL     1       3.737   5.894  19.322  0.00  0.00    +0.000 A 
ATOM      3  N   UNL     1       2.552   5.730  19.982  0.00  0.00    +0.000 N 
ATOM      4  C   UNL     1       2.011   4.501  19.663  0.00  0.00    +0.000 A 
ATOM      5  C   UNL     1       0.823   3.888  20.092  0.00  0.00    +0.000 A 
ATOM      6  C   UNL     1       0.515   2.609  19.625  0.00  0.00    +0.000 A 
ATOM      7  C   UNL     1       1.372   1.950  18.755  0.00  0.00    +0.000 A 
ATOM      8  C   UNL     1       2.556   2.565  18.330  0.00  0.00    +0.000 A 
ATOM      9  C   UNL     1       2.891   3.873  18.763  0.00  0.00    +0.000 A 
ENDROOT
BRANCH   1  10
ATOM     10  C   UNL     1       5.163   4.717  17.672  0.00  0.00    +0.000 C 
ATOM     11  O   UNL     1       5.231   3.932  16.732  0.00  0.00    +0.000 OA
BRANCH  10  13
ATOM     12  C   UNL     1       6.819   6.549  17.412  0.00  0.00    +0.000 C 
ATOM     13  C   UNL     1       6.316   5.531  18.124  0.00  0.00    +0.000 C 
BRANCH  12  14
ATOM     14  C   UNL     1       7.919   7.353  18.025  0.00  0.00    +0.000 C 
ATOM     15  O   UNL     1       8.538   7.075  19.037  0.00  0.00    +0.000 OA
BRANCH  14  16
ATOM     16  O   UNL     1       8.009   8.507  17.305  0.00  0.00    +0.000 OA
BRANCH  16  18
ATOM     17  C   UNL     1       9.293  10.379  18.041  0.00  0.00    +0.000 C 
ATOM     18  C   UNL     1       7.929   9.714  18.074  0.00  0.00    +0.000 C 
ENDBRANCH  16  18
ENDBRANCH  14  16
ENDBRANCH  12  14
BRANCH  12  19
ATOM     19  O   UNL     1       6.309   6.950  16.187  0.00  0.00    +0.000 OA
ATOM     20  H   UNL     1       5.662   7.655  16.379  0.00  0.00    +0.000 HD
ENDBRANCH  12  19
ENDBRANCH  10  13
ENDBRANCH   1  10
BRANCH   8  21
ATOM     21  O   UNL     1       3.397   1.870  17.494  0.00  0.00    +0.000 OA
ATOM     22  H   UNL     1       2.965   1.769  16.630  0.00  0.00    +0.000 HD
ENDBRANCH   8  21
BRANCH   3  23
ATOM     23  C   UNL     1       1.904   6.787  20.765  0.00  0.00    +0.000 C 
BRANCH  23  24
ATOM     24  C   UNL     1       1.639   8.066  19.993  0.00  0.00    +0.000 A 
ATOM     25  C   UNL     1       2.018   8.122  18.637  0.00  0.00    +0.000 A 
ATOM     26  C   UNL     1       1.707   9.219  17.842  0.00  0.00    +0.000 A 
ATOM     27  C   UNL     1       1.019  10.295  18.389  0.00  0.00    +0.000 A 
ATOM     28  C   UNL     1       0.637  10.291  19.738  0.00  0.00    +0.000 A 
ATOM     29  C   UNL     1      -0.084  11.503  20.271  0.00  0.00    +0.000 C 
ATOM     30  C   UNL     1       0.927   9.165  20.550  0.00  0.00    +0.000 A 
ATOM     31  C   UNL     1       0.450   9.118  21.981  0.00  0.00    +0.000 C 
ENDBRANCH  23  24
ENDBRANCH   3  23
TORSDOF 9
ENDMDL
MODEL 8
REMARK VINA RESULT:      -7.8      3.441      4.646
REMARK  Name = 
REMARK  12 active torsions:
REMARK  status: ('A' for Active; 'I' for Inactive)
REMARK    1  A    between atoms: C_1  and  C_2
REMARK    2  A    between atoms: C_2  and  O_3
REMARK    3  A    between atoms: O_3  and  C_4
REMARK    4  A    between atoms: C_4  and  C_6
REMARK    5  A    between atoms: C_6  and  O_7
REMARK    6  A    between atoms: C_8  and  C_9
REMARK    7  A    between atoms: C_9  and  C_11
REMARK    8  A    between atoms: N_13  and  C_14
REMARK    9  A    between atoms: C_14  and  C_15
REMARK   10  A    between atoms: C_19  and  C_20
REMARK   11  A    between atoms: C_21  and  C_22
REMARK   12  A    between atoms: C_27  and  O_28
REMARK                            x       y       z     vdW  Elec       q    Type
REMARK                         _______ _______ _______ _____ _____    ______ ____
ROOT
ATOM      1  C   UNL     1       5.423   6.641  17.481  0.00  0.00    +0.000 A 
ATOM      2  C   UNL     1       4.356   7.518  17.376  0.00  0.00    +0.000 A 
ATOM      3  N   UNL     1       3.239   6.943  17.914  0.00  0.00    +0.000 N 
ATOM      4  C   UNL     1       3.559   5.699  18.420  0.00  0.00    +0.000 A 
ATOM      5  C   UNL     1       2.757   4.746  19.068  0.00  0.00    +0.000 A 
ATOM      6  C   UNL     1       3.343   3.557  19.507  0.00  0.00    +0.000 A 
ATOM      7  C   UNL     1       4.697   3.323  19.314  0.00  0.00    +0.000 A 
ATOM      8  C   UNL     1       5.492   4.277  18.667  0.00  0.00    +0.000 A 
ATOM      9  C   UNL     1       4.929   5.486  18.185  0.00  0.00    +0.000 A 
ENDROOT
BRANCH   1  10
ATOM     10  C   UNL     1       6.739   6.989  16.949  0.00  0.00    +0.000 C 
ATOM     11  O   UNL     1       7.435   6.162  16.369  0.00  0.00    +0.000 OA
BRANCH  10  13
ATOM     12  C   UNL     1       8.139   8.570  18.255  0.00  0.00    +0.000 C 
ATOM     13  C   UNL     1       7.227   8.343  17.300  0.00  0.00    +0.000 C 
BRANCH  12  14
ATOM     14  C   UNL     1       8.619   9.972  18.444  0.00  0.00    +0.000 C 
ATOM     15  O   UNL     1       8.435  10.906  17.683  0.00  0.00    +0.000 OA
BRANCH  14  16
ATOM     16  O   UNL     1       9.401   9.971  19.561  0.00  0.00    +0.000 OA
BRANCH  16  18
ATOM     17  C   UNL     1      11.189  11.547  19.687  0.00  0.00    +0.000 C 
ATOM     18  C   UNL     1       9.746  11.268  20.066  0.00  0.00    +0.000 C 
ENDBRANCH  16  18
ENDBRANCH  14  16
ENDBRANCH  12  14
BRANCH  12  19
ATOM     19  O   UNL     1       8.725   7.563  19.006  0.00  0.00    +0.000 OA
ATOM     20  H   UNL     1       9.687   7.637  18.857  0.00  0.00    +0.000 HD
ENDBRANCH  12  19
ENDBRANCH  10  13
ENDBRANCH   1  10
BRANCH   8  21
ATOM     21  O   UNL     1       6.835   4.027  18.522  0.00  0.00    +0.000 OA
ATOM     22  H   UNL     1       7.004   3.095  18.740  0.00  0.00    +0.000 HD
ENDBRANCH   8  21
BRANCH   3  23
ATOM     23  C   UNL     1       1.894   7.515  17.800  0.00  0.00    +0.000 C 
BRANCH  23  24
ATOM     24  C   UNL     1       1.654   8.732  18.676  0.00  0.00    +0.000 A 
ATOM     25  C   UNL     1       1.661  10.004  18.072  0.00  0.00    +0.000 A 
ATOM     26  C   UNL     1       1.341  11.149  18.793  0.00  0.00    +0.000 A 
ATOM     27  C   UNL     1       1.018  11.050  20.140  0.00  0.00    +0.000 A 
ATOM     28  C   UNL     1       1.015   9.806  20.787  0.00  0.00    +0.000 A 
ATOM     29  C   UNL     1       0.680   9.775  22.256  0.00  0.00    +0.000 C 
ATOM     30  C   UNL     1       1.316   8.629  20.054  0.00  0.00    +0.000 A 
ATOM     31  C   UNL     1       1.237   7.278  20.722  0.00  0.00    +0.000 C 
ENDBRANCH  23  24
ENDBRANCH   3  23
TORSDOF 9
ENDMDL
MODEL 9
REMARK VINA RESULT:      -7.6      3.476      6.518
REMARK  Name = 
REMARK  12 active torsions:
REMARK  status: ('A' for Active; 'I' for Inactive)
REMARK    1  A    between atoms: C_1  and  C_2
REMARK    2  A    between atoms: C_2  and  O_3
REMARK    3  A    between atoms: O_3  and  C_4
REMARK    4  A    between atoms: C_4  and  C_6
REMARK    5  A    between atoms: C_6  and  O_7
REMARK    6  A    between atoms: C_8  and  C_9
REMARK    7  A    between atoms: C_9  and  C_11
REMARK    8  A    between atoms: N_13  and  C_14
REMARK    9  A    between atoms: C_14  and  C_15
REMARK   10  A    between atoms: C_19  and  C_20
REMARK   11  A    between atoms: C_21  and  C_22
REMARK   12  A    between atoms: C_27  and  O_28
REMARK                            x       y       z     vdW  Elec       q    Type
REMARK                         _______ _______ _______ _____ _____    ______ ____
ROOT
ATOM      1  C   UNL     1       1.367   9.234  18.758  0.00  0.00    +0.000 A 
ATOM      2  C   UNL     1       0.874  10.356  18.111  0.00  0.00    +0.000 A 
ATOM      3  N   UNL     1       0.095  11.074  18.974  0.00  0.00    +0.000 N 
ATOM      4  C   UNL     1       0.095  10.465  20.213  0.00  0.00    +0.000 A 
ATOM      5  C   UNL     1      -0.545  10.830  21.408  0.00  0.00    +0.000 A 
ATOM      6  C   UNL     1      -0.361  10.037  22.542  0.00  0.00    +0.000 A 
ATOM      7  C   UNL     1       0.449   8.911  22.493  0.00  0.00    +0.000 A 
ATOM      8  C   UNL     1       1.085   8.552  21.299  0.00  0.00    +0.000 A 
ATOM      9  C   UNL     1       0.903   9.317  20.119  0.00  0.00    +0.000 A 
ENDROOT
BRANCH   1  10
ATOM     10  C   UNL     1       2.205   8.266  18.054  0.00  0.00    +0.000 C 
ATOM     11  O   UNL     1       3.139   8.624  17.344  0.00  0.00    +0.000 OA
BRANCH  10  13
ATOM     12  C   UNL     1       2.589   5.814  18.151  0.00  0.00    +0.000 C 
ATOM     13  C   UNL     1       1.748   6.858  18.132  0.00  0.00    +0.000 C 
BRANCH  12  14
ATOM     14  C   UNL     1       2.005   4.451  18.331  0.00  0.00    +0.000 C 
ATOM     15  O   UNL     1       1.273   3.871  17.548  0.00  0.00    +0.000 OA
BRANCH  14  16
ATOM     16  O   UNL     1       2.348   4.040  19.585  0.00  0.00    +0.000 OA
BRANCH  16  18
ATOM     17  C   UNL     1       1.345   2.763  21.333  0.00  0.00    +0.000 C 
ATOM     18  C   UNL     1       1.284   4.060  20.546  0.00  0.00    +0.000 C 
ENDBRANCH  16  18
ENDBRANCH  14  16
ENDBRANCH  12  14
BRANCH  12  19
ATOM     19  O   UNL     1       3.968   5.944  18.108  0.00  0.00    +0.000 OA
ATOM     20  H   UNL     1       4.270   5.389  17.363  0.00  0.00    +0.000 HD
ENDBRANCH  12  19
ENDBRANCH  10  13
ENDBRANCH   1  10
BRANCH   8  21
ATOM     21  O   UNL     1       1.905   7.449  21.295  0.00  0.00    +0.000 OA
ATOM     22  H   UNL     1       1.397   6.683  20.980  0.00  0.00    +0.000 HD
ENDBRANCH   8  21
BRANCH   3  23
ATOM     23  C   UNL     1      -0.733  12.214  18.567  0.00  0.00    +0.000 C 
BRANCH  23  24
ATOM     24  C   UNL     1      -2.162  11.852  18.204  0.00  0.00    +0.000 A 
ATOM     25  C   UNL     1      -2.387  11.097  17.036  0.00  0.00    +0.000 A 
ATOM     26  C   UNL     1      -3.656  10.638  16.704  0.00  0.00    +0.000 A 
ATOM     27  C   UNL     1      -4.735  10.934  17.527  0.00  0.00    +0.000 A 
ATOM     28  C   UNL     1      -4.562  11.697  18.690  0.00  0.00    +0.000 A 
ATOM     29  C   UNL     1      -5.780  12.002  19.523  0.00  0.00    +0.000 C 
ATOM     30  C   UNL     1      -3.266  12.148  19.051  0.00  0.00    +0.000 A 
ATOM     31  C   UNL     1      -3.057  12.901  20.342  0.00  0.00    +0.000 C 
ENDBRANCH  23  24
ENDBRANCH   3  23
TORSDOF 9
ENDMDL
