MODEL 1
REMARK VINA RESULT:      -7.1      0.000      0.000
REMARK  Name = 
REMARK  8 active torsions:
REMARK  status: ('A' for Active; 'I' for Inactive)
REMARK    1  A    between atoms: C_1  and  O_2
REMARK    2  A    between atoms: O_2  and  C_3
REMARK    3  A    between atoms: C_6  and  C_7
REMARK    4  A    between atoms: C_7  and  C_8
REMARK    5  A    between atoms: C_12  and  O_13
REMARK    6  A    between atoms: O_13  and  C_14
REMARK    7  A    between atoms: C_14  and  C_15
REMARK    8  A    between atoms: C_15  and  O_17
REMARK                            x       y       z     vdW  Elec       q    Type
REMARK                         _______ _______ _______ _____ _____    ______ ____
ROOT
ATOM      1  C   UNL     1       1.320   9.648  18.680  0.00  0.00    +0.000 C 
ATOM      2  C   UNL     1      -0.092   9.214  18.224  0.00  0.00    +0.000 C 
ATOM      3  C   UNL     1       2.483   9.319  17.679  0.00  0.00    +0.000 C 
ATOM      4  C   UNL     1       2.928   7.937  18.059  0.00  0.00    +0.000 A 
ATOM      5  C   UNL     1       3.808   7.126  17.364  0.00  0.00    +0.000 A 
ATOM      6  C   UNL     1       3.921   5.783  17.738  0.00  0.00    +0.000 A 
ATOM      7  C   UNL     1       3.024   5.264  18.704  0.00  0.00    +0.000 A 
ATOM      8 CL   UNL     1       2.779   3.545  18.819  0.00  0.00    +0.000 Cl
ATOM      9  C   UNL     1       2.223   6.136  19.474  0.00  0.00    +0.000 A 
ATOM     10 CL   UNL     1       1.029   5.552  20.577  0.00  0.00    +0.000 Cl
ATOM     11  C   UNL     1       2.298   7.494  19.203  0.00  0.00    +0.000 A 
ATOM     12  C   UNL     1       1.620   8.662  19.793  0.00  0.00    +0.000 C 
ATOM     13  O   UNL     1       1.332   8.742  20.971  0.00  0.00    +0.000 OA
ENDROOT
BRANCH   1  17
ATOM     14  C   UNL     1       1.083  13.996  18.770  0.00  0.00    +0.000 A 
ATOM     15  C   UNL     1       0.077  13.238  19.378  0.00  0.00    +0.000 A 
ATOM     16  C   UNL     1       0.152  11.834  19.443  0.00  0.00    +0.000 A 
ATOM     17  C   UNL     1       1.238  11.164  18.880  0.00  0.00    +0.000 A 
ATOM     18  C   UNL     1       2.263  11.953  18.303  0.00  0.00    +0.000 A 
ATOM     19  C   UNL     1       2.188  13.345  18.244  0.00  0.00    +0.000 A 
BRANCH  14  21
ATOM     20  C   UNL     1       1.992  16.168  18.456  0.00  0.00    +0.000 C 
ATOM     21  O   UNL     1       0.856  15.343  18.699  0.00  0.00    +0.000 OA
ENDBRANCH  14  21
ENDBRANCH   1  17
BRANCH   6  22
ATOM     22  O   UNL     1       4.870   5.095  17.019  0.00  0.00    +0.000 OA
BRANCH  22  23
ATOM     23  C   UNL     1       5.941   4.507  17.769  0.00  0.00    +0.000 C 
BRANCH  23  24
ATOM     24  C   UNL     1       7.266   4.636  17.025  0.00  0.00    +0.000 C 
ATOM     25  O   UNL     1       7.393   5.209  15.952  0.00  0.00    +0.000 OA
BRANCH  24  26
ATOM     26  O   UNL     1       8.298   4.037  17.662  0.00  0.00    +0.000 OA
ATOM     27  H   UNL     1       8.645   4.623  18.366  0.00  0.00    +0.000 HD
ENDBRANCH  24  26
ENDBRANCH  23  24
ENDBRANCH  22  23
ENDBRANCH   6  22
TORSDOF 6
ENDMDL
MODEL 2
REMARK VINA RESULT:      -7.0      0.847      1.074
REMARK  Name = 
REMARK  8 active torsions:
REMARK  status: ('A' for Active; 'I' for Inactive)
REMARK    1  A    between atoms: C_1  and  O_2
REMARK    2  A    between atoms: O_2  and  C_3
REMARK    3  A    between atoms: C_6  and  C_7
REMARK    4  A    between atoms: C_7  and  C_8
REMARK    5  A    between atoms: C_12  and  O_13
REMARK    6  A    between atoms: O_13  and  C_14
REMARK    7  A    between atoms: C_14  and  C_15
REMARK    8  A    between atoms: C_15  and  O_17
REMARK                            x       y       z     vdW  Elec       q    Type
REMARK                         _______ _______ _______ _____ _____    ______ ____
ROOT
ATOM      1  C   UNL     1       1.552   9.321  18.614  0.00  0.00    +0.000 C 
ATOM      2  C   UNL     1       0.155   8.914  18.089  0.00  0.00    +0.000 C 
ATOM      3  C   UNL     1       2.754   8.985  17.663  0.00  0.00    +0.000 C 
ATOM      4  C   UNL     1       3.160   7.592  18.045  0.00  0.00    +0.000 A 
ATOM      5  C   UNL     1       4.058   6.775  17.382  0.00  0.00    +0.000 A 
ATOM      6  C   UNL     1       4.134   5.426  17.744  0.00  0.00    +0.000 A 
ATOM      7  C   UNL     1       3.185   4.910  18.662  0.00  0.00    +0.000 A 
ATOM      8 CL   UNL     1       2.909   3.195  18.746  0.00  0.00    +0.000 Cl
ATOM      9  C   UNL     1       2.364   5.786  19.406  0.00  0.00    +0.000 A 
ATOM     10 CL   UNL     1       1.113   5.209  20.446  0.00  0.00    +0.000 Cl
ATOM     11  C   UNL     1       2.473   7.146  19.154  0.00  0.00    +0.000 A 
ATOM     12  C   UNL     1       1.786   8.318  19.727  0.00  0.00    +0.000 C 
ATOM     13  O   UNL     1       1.446   8.389  20.892  0.00  0.00    +0.000 OA
ENDROOT
BRANCH   1  17
ATOM     14  C   UNL     1       1.295  13.667  18.749  0.00  0.00    +0.000 A 
ATOM     15  C   UNL     1       0.379  12.899  19.476  0.00  0.00    +0.000 A 
ATOM     16  C   UNL     1       0.472  11.496  19.526  0.00  0.00    +0.000 A 
ATOM     17  C   UNL     1       1.484  10.836  18.828  0.00  0.00    +0.000 A 
ATOM     18  C   UNL     1       2.423  11.634  18.130  0.00  0.00    +0.000 A 
ATOM     19  C   UNL     1       2.331  13.026  18.086  0.00  0.00    +0.000 A 
BRANCH  14  21
ATOM     20  C   UNL     1      -0.311  15.415  18.835  0.00  0.00    +0.000 C 
ATOM     21  O   UNL     1       1.051  15.013  18.712  0.00  0.00    +0.000 OA
ENDBRANCH  14  21
ENDBRANCH   1  17
BRANCH   6  22
ATOM     22  O   UNL     1       5.103   4.732  17.060  0.00  0.00    +0.000 OA
BRANCH  22  23
ATOM     23  C   UNL     1       5.591   5.334  15.853  0.00  0.00    +0.000 C 
BRANCH  23  24
ATOM     24  C   UNL     1       7.065   5.013  15.638  0.00  0.00    +0.000 C 
ATOM     25  O   UNL     1       7.754   4.398  16.441  0.00  0.00    +0.000 OA
BRANCH  24  26
ATOM     26  O   UNL     1       7.553   5.488  14.469  0.00  0.00    +0.000 OA
ATOM     27  H   UNL     1       8.248   4.889  14.126  0.00  0.00    +0.000 HD
ENDBRANCH  24  26
ENDBRANCH  23  24
ENDBRANCH  22  23
ENDBRANCH   6  22
TORSDOF 6
ENDMDL
MODEL 3
REMARK VINA RESULT:      -7.0      2.505      8.418
REMARK  Name = 
REMARK  8 active torsions:
REMARK  status: ('A' for Active; 'I' for Inactive)
REMARK    1  A    between atoms: C_1  and  O_2
REMARK    2  A    between atoms: O_2  and  C_3
REMARK    3  A    between atoms: C_6  and  C_7
REMARK    4  A    between atoms: C_7  and  C_8
REMARK    5  A    between atoms: C_12  and  O_13
REMARK    6  A    between atoms: O_13  and  C_14
REMARK    7  A    between atoms: C_14  and  C_15
REMARK    8  A    between atoms: C_15  and  O_17
REMARK                            x       y       z     vdW  Elec       q    Type
REMARK                         _______ _______ _______ _____ _____    ______ ____
ROOT
ATOM      1  C   UNL     1       4.952   5.767  17.168  0.00  0.00    +0.000 C 
ATOM      2  C   UNL     1       6.030   5.733  18.275  0.00  0.00    +0.000 C 
ATOM      3  C   UNL     1       4.449   7.196  16.758  0.00  0.00    +0.000 C 
ATOM      4  C   UNL     1       3.311   7.478  17.694  0.00  0.00    +0.000 A 
ATOM      5  C   UNL     1       2.647   8.681  17.858  0.00  0.00    +0.000 A 
ATOM      6  C   UNL     1       1.773   8.823  18.942  0.00  0.00    +0.000 A 
ATOM      7  C   UNL     1       1.717   7.795  19.915  0.00  0.00    +0.000 A 
ATOM      8 CL   UNL     1       1.070   8.135  21.493  0.00  0.00    +0.000 Cl
ATOM      9  C   UNL     1       2.311   6.539  19.660  0.00  0.00    +0.000 A 
ATOM     10 CL   UNL     1       2.375   5.295  20.855  0.00  0.00    +0.000 Cl
ATOM     11  C   UNL     1       3.001   6.379  18.467  0.00  0.00    +0.000 A 
ATOM     12  C   UNL     1       3.728   5.235  17.888  0.00  0.00    +0.000 C 
ATOM     13  O   UNL     1       3.383   4.079  18.039  0.00  0.00    +0.000 OA
ENDROOT
BRANCH   1  17
ATOM     14  C   UNL     1       6.462   4.089  13.442  0.00  0.00    +0.000 A 
ATOM     15  C   UNL     1       7.328   4.800  14.280  0.00  0.00    +0.000 A 
ATOM     16  C   UNL     1       6.905   5.291  15.529  0.00  0.00    +0.000 A 
ATOM     17  C   UNL     1       5.591   5.089  15.952  0.00  0.00    +0.000 A 
ATOM     18  C   UNL     1       4.742   4.335  15.106  0.00  0.00    +0.000 A 
ATOM     19  C   UNL     1       5.166   3.845  13.870  0.00  0.00    +0.000 A 
BRANCH  14  21
ATOM     20  C   UNL     1       6.409   2.574  11.613  0.00  0.00    +0.000 C 
ATOM     21  O   UNL     1       6.968   3.735  12.221  0.00  0.00    +0.000 OA
ENDBRANCH  14  21
ENDBRANCH   1  17
BRANCH   6  22
ATOM     22  O   UNL     1       1.127  10.037  18.964  0.00  0.00    +0.000 OA
BRANCH  22  23
ATOM     23  C   UNL     1      -0.208  10.061  18.442  0.00  0.00    +0.000 C 
BRANCH  23  24
ATOM     24  C   UNL     1      -0.805  11.461  18.531  0.00  0.00    +0.000 C 
ATOM     25  O   UNL     1      -1.921  11.701  18.974  0.00  0.00    +0.000 OA
BRANCH  24  26
ATOM     26  O   UNL     1       0.015  12.425  18.055  0.00  0.00    +0.000 OA
ATOM     27  H   UNL     1       0.843  12.451  18.578  0.00  0.00    +0.000 HD
ENDBRANCH  24  26
ENDBRANCH  23  24
ENDBRANCH  22  23
ENDBRANCH   6  22
TORSDOF 6
ENDMDL
MODEL 4
REMARK VINA RESULT:      -7.0      2.289      8.140
REMARK  Name = 
REMARK  8 active torsions:
REMARK  status: ('A' for Active; 'I' for Inactive)
REMARK    1  A    between atoms: C_1  and  O_2
REMARK    2  A    between atoms: O_2  and  C_3
REMARK    3  A    between atoms: C_6  and  C_7
REMARK    4  A    between atoms: C_7  and  C_8
REMARK    5  A    between atoms: C_12  and  O_13
REMARK    6  A    between atoms: O_13  and  C_14
REMARK    7  A    between atoms: C_14  and  C_15
REMARK    8  A    between atoms: C_15  and  O_17
REMARK                            x       y       z     vdW  Elec       q    Type
REMARK                         _______ _______ _______ _____ _____    ______ ____
ROOT
ATOM      1  C   UNL     1       4.855   5.887  17.417  0.00  0.00    +0.000 C 
ATOM      2  C   UNL     1       5.917   5.945  18.540  0.00  0.00    +0.000 C 
ATOM      3  C   UNL     1       4.311   7.276  16.931  0.00  0.00    +0.000 C 
ATOM      4  C   UNL     1       3.149   7.563  17.836  0.00  0.00    +0.000 A 
ATOM      5  C   UNL     1       2.441   8.748  17.932  0.00  0.00    +0.000 A 
ATOM      6  C   UNL     1       1.546   8.912  18.994  0.00  0.00    +0.000 A 
ATOM      7  C   UNL     1       1.510   7.930  20.016  0.00  0.00    +0.000 A 
ATOM      8 CL   UNL     1       0.827   8.323  21.566  0.00  0.00    +0.000 Cl
ATOM      9  C   UNL     1       2.151   6.685  19.831  0.00  0.00    +0.000 A 
ATOM     10 CL   UNL     1       2.239   5.503  21.086  0.00  0.00    +0.000 Cl
ATOM     11  C   UNL     1       2.864   6.492  18.657  0.00  0.00    +0.000 A 
ATOM     12  C   UNL     1       3.640   5.348  18.145  0.00  0.00    +0.000 C 
ATOM     13  O   UNL     1       3.332   4.189  18.347  0.00  0.00    +0.000 OA
ENDROOT
BRANCH   1  17
ATOM     14  C   UNL     1       6.489   4.094  13.798  0.00  0.00    +0.000 A 
ATOM     15  C   UNL     1       7.322   4.848  14.632  0.00  0.00    +0.000 A 
ATOM     16  C   UNL     1       6.859   5.379  15.849  0.00  0.00    +0.000 A 
ATOM     17  C   UNL     1       5.536   5.174  16.245  0.00  0.00    +0.000 A 
ATOM     18  C   UNL     1       4.722   4.376  15.405  0.00  0.00    +0.000 A 
ATOM     19  C   UNL     1       5.185   3.847  14.201  0.00  0.00    +0.000 A 
BRANCH  14  21
ATOM     20  C   UNL     1       6.222   2.873  11.779  0.00  0.00    +0.000 C 
ATOM     21  O   UNL     1       7.033   3.703  12.606  0.00  0.00    +0.000 OA
ENDBRANCH  14  21
ENDBRANCH   1  17
BRANCH   6  22
ATOM     22  O   UNL     1       0.859  10.101  18.949  0.00  0.00    +0.000 OA
BRANCH  22  23
ATOM     23  C   UNL     1       1.530  11.251  19.483  0.00  0.00    +0.000 C 
BRANCH  23  24
ATOM     24  C   UNL     1       1.573  12.383  18.463  0.00  0.00    +0.000 C 
ATOM     25  O   UNL     1       0.825  13.352  18.487  0.00  0.00    +0.000 OA
BRANCH  24  26
ATOM     26  O   UNL     1       2.515  12.210  17.509  0.00  0.00    +0.000 OA
ATOM     27  H   UNL     1       2.550  11.270  17.236  0.00  0.00    +0.000 HD
ENDBRANCH  24  26
ENDBRANCH  23  24
ENDBRANCH  22  23
ENDBRANCH   6  22
TORSDOF 6
ENDMDL
MODEL 5
REMARK VINA RESULT:      -6.9      0.705      1.269
REMARK  Name = 
REMARK  8 active torsions:
REMARK  status: ('A' for Active; 'I' for Inactive)
REMARK    1  A    between atoms: C_1  and  O_2
REMARK    2  A    between atoms: O_2  and  C_3
REMARK    3  A    between atoms: C_6  and  C_7
REMARK    4  A    between atoms: C_7  and  C_8
REMARK    5  A    between atoms: C_12  and  O_13
REMARK    6  A    between atoms: O_13  and  C_14
REMARK    7  A    between atoms: C_14  and  C_15
REMARK    8  A    between atoms: C_15  and  O_17
REMARK                            x       y       z     vdW  Elec       q    Type
REMARK                         _______ _______ _______ _____ _____    ______ ____
ROOT
ATOM      1  C   UNL     1       1.485   9.343  18.495  0.00  0.00    +0.000 C 
ATOM      2  C   UNL     1       0.081   8.882  18.037  0.00  0.00    +0.000 C 
ATOM      3  C   UNL     1       2.665   8.974  17.529  0.00  0.00    +0.000 C 
ATOM      4  C   UNL     1       3.109   7.613  17.979  0.00  0.00    +0.000 A 
ATOM      5  C   UNL     1       4.003   6.774  17.338  0.00  0.00    +0.000 A 
ATOM      6  C   UNL     1       4.115   5.450  17.776  0.00  0.00    +0.000 A 
ATOM      7  C   UNL     1       3.204   4.973  18.752  0.00  0.00    +0.000 A 
ATOM      8 CL   UNL     1       2.964   3.261  18.944  0.00  0.00    +0.000 Cl
ATOM      9  C   UNL     1       2.388   5.877  19.467  0.00  0.00    +0.000 A 
ATOM     10 CL   UNL     1       1.180   5.341  20.578  0.00  0.00    +0.000 Cl
ATOM     11  C   UNL     1       2.463   7.221  19.133  0.00  0.00    +0.000 A 
ATOM     12  C   UNL     1       1.771   8.413  19.657  0.00  0.00    +0.000 C 
ATOM     13  O   UNL     1       1.464   8.547  20.826  0.00  0.00    +0.000 OA
ENDROOT
BRANCH   1  17
ATOM     14  C   UNL     1       1.266  13.613  19.328  0.00  0.00    +0.000 A 
ATOM     15  C   UNL     1       2.294  13.121  18.517  0.00  0.00    +0.000 A 
ATOM     16  C   UNL     1       2.359  11.762  18.156  0.00  0.00    +0.000 A 
ATOM     17  C   UNL     1       1.394  10.867  18.621  0.00  0.00    +0.000 A 
ATOM     18  C   UNL     1       0.342  11.394  19.409  0.00  0.00    +0.000 A 
ATOM     19  C   UNL     1       0.278  12.742  19.761  0.00  0.00    +0.000 A 
BRANCH  14  21
ATOM     20  C   UNL     1       1.883  15.815  18.684  0.00  0.00    +0.000 C 
ATOM     21  O   UNL     1       1.358  14.934  19.674  0.00  0.00    +0.000 OA
ENDBRANCH  14  21
ENDBRANCH   1  17
BRANCH   6  22
ATOM     22  O   UNL     1       5.077   4.734  17.105  0.00  0.00    +0.000 OA
BRANCH  22  23
ATOM     23  C   UNL     1       6.376   5.337  17.011  0.00  0.00    +0.000 C 
BRANCH  23  24
ATOM     24  C   UNL     1       7.284   4.856  18.137  0.00  0.00    +0.000 C 
ATOM     25  O   UNL     1       7.147   5.178  19.311  0.00  0.00    +0.000 OA
BRANCH  24  26
ATOM     26  O   UNL     1       8.279   4.043  17.714  0.00  0.00    +0.000 OA
ATOM     27  H   UNL     1       7.911   3.319  17.166  0.00  0.00    +0.000 HD
ENDBRANCH  24  26
ENDBRANCH  23  24
ENDBRANCH  22  23
ENDBRANCH   6  22
TORSDOF 6
ENDMDL
MODEL 6
REMARK VINA RESULT:      -6.9      1.083      1.440
REMARK  Name = 
REMARK  8 active torsions:
REMARK  status: ('A' for Active; 'I' for Inactive)
REMARK    1  A    between atoms: C_1  and  O_2
REMARK    2  A    between atoms: O_2  and  C_3
REMARK    3  A    between atoms: C_6  and  C_7
REMARK    4  A    between atoms: C_7  and  C_8
REMARK    5  A    between atoms: C_12  and  O_13
REMARK    6  A    between atoms: O_13  and  C_14
REMARK    7  A    between atoms: C_14  and  C_15
REMARK    8  A    between atoms: C_15  and  O_17
REMARK                            x       y       z     vdW  Elec       q    Type
REMARK                         _______ _______ _______ _____ _____    ______ ____
ROOT
ATOM      1  C   UNL     1       1.714   8.986  18.428  0.00  0.00    +0.000 C 
ATOM      2  C   UNL     1       0.347   8.550  17.850  0.00  0.00    +0.000 C 
ATOM      3  C   UNL     1       2.966   8.598  17.565  0.00  0.00    +0.000 C 
ATOM      4  C   UNL     1       3.347   7.229  18.046  0.00  0.00    +0.000 A 
ATOM      5  C   UNL     1       4.278   6.377  17.480  0.00  0.00    +0.000 A 
ATOM      6  C   UNL     1       4.330   5.050  17.922  0.00  0.00    +0.000 A 
ATOM      7  C   UNL     1       3.332   4.587  18.814  0.00  0.00    +0.000 A 
ATOM      8 CL   UNL     1       3.047   2.878  18.979  0.00  0.00    +0.000 Cl
ATOM      9  C   UNL     1       2.473   5.502  19.461  0.00  0.00    +0.000 A 
ATOM     10 CL   UNL     1       1.165   4.984  20.462  0.00  0.00    +0.000 Cl
ATOM     11  C   UNL     1       2.598   6.846  19.140  0.00  0.00    +0.000 A 
ATOM     12  C   UNL     1       1.884   8.048  19.606  0.00  0.00    +0.000 C 
ATOM     13  O   UNL     1       1.481   8.184  20.745  0.00  0.00    +0.000 OA
ENDROOT
BRANCH   1  17
ATOM     14  C   UNL     1       1.629  13.265  19.239  0.00  0.00    +0.000 A 
ATOM     15  C   UNL     1       2.485  12.767  18.251  0.00  0.00    +0.000 A 
ATOM     16  C   UNL     1       2.489  11.404  17.900  0.00  0.00    +0.000 A 
ATOM     17  C   UNL     1       1.639  10.511  18.552  0.00  0.00    +0.000 A 
ATOM     18  C   UNL     1       0.754  11.043  19.521  0.00  0.00    +0.000 A 
ATOM     19  C   UNL     1       0.749  12.395  19.864  0.00  0.00    +0.000 A 
BRANCH  14  21
ATOM     20  C   UNL     1       1.774  14.927  20.930  0.00  0.00    +0.000 C 
ATOM     21  O   UNL     1       1.777  14.590  19.545  0.00  0.00    +0.000 OA
ENDBRANCH  14  21
ENDBRANCH   1  17
BRANCH   6  22
ATOM     22  O   UNL     1       5.334   4.319  17.332  0.00  0.00    +0.000 OA
BRANCH  22  23
ATOM     23  C   UNL     1       5.586   4.581  15.944  0.00  0.00    +0.000 C 
BRANCH  23  24
ATOM     24  C   UNL     1       7.069   4.833  15.695  0.00  0.00    +0.000 C 
ATOM     25  O   UNL     1       7.510   5.369  14.687  0.00  0.00    +0.000 OA
BRANCH  24  26
ATOM     26  O   UNL     1       7.863   4.393  16.697  0.00  0.00    +0.000 OA
ATOM     27  H   UNL     1       7.408   3.689  17.203  0.00  0.00    +0.000 HD
ENDBRANCH  24  26
ENDBRANCH  23  24
ENDBRANCH  22  23
ENDBRANCH   6  22
TORSDOF 6
ENDMDL
MODEL 7
REMARK VINA RESULT:      -6.8      2.398      8.273
REMARK  Name = 
REMARK  8 active torsions:
REMARK  status: ('A' for Active; 'I' for Inactive)
REMARK    1  A    between atoms: C_1  and  O_2
REMARK    2  A    between atoms: O_2  and  C_3
REMARK    3  A    between atoms: C_6  and  C_7
REMARK    4  A    between atoms: C_7  and  C_8
REMARK    5  A    between atoms: C_12  and  O_13
REMARK    6  A    between atoms: O_13  and  C_14
REMARK    7  A    between atoms: C_14  and  C_15
REMARK    8  A    between atoms: C_15  and  O_17
REMARK                            x       y       z     vdW  Elec       q    Type
REMARK                         _______ _______ _______ _____ _____    ______ ____
ROOT
ATOM      1  C   UNL     1       4.867   5.882  17.357  0.00  0.00    +0.000 C 
ATOM      2  C   UNL     1       5.948   5.978  18.458  0.00  0.00    +0.000 C 
ATOM      3  C   UNL     1       4.285   7.252  16.860  0.00  0.00    +0.000 C 
ATOM      4  C   UNL     1       3.134   7.529  17.782  0.00  0.00    +0.000 A 
ATOM      5  C   UNL     1       2.405   8.702  17.874  0.00  0.00    +0.000 A 
ATOM      6  C   UNL     1       1.526   8.863  18.951  0.00  0.00    +0.000 A 
ATOM      7  C   UNL     1       1.529   7.897  19.987  0.00  0.00    +0.000 A 
ATOM      8 CL   UNL     1       0.866   8.299  21.544  0.00  0.00    +0.000 Cl
ATOM      9  C   UNL     1       2.192   6.663  19.809  0.00  0.00    +0.000 A 
ATOM     10 CL   UNL     1       2.327   5.502  21.080  0.00  0.00    +0.000 Cl
ATOM     11  C   UNL     1       2.887   6.466  18.625  0.00  0.00    +0.000 A 
ATOM     12  C   UNL     1       3.676   5.330  18.116  0.00  0.00    +0.000 C 
ATOM     13  O   UNL     1       3.396   4.168  18.341  0.00  0.00    +0.000 OA
ENDROOT
BRANCH   1  17
ATOM     14  C   UNL     1       6.468   4.065  13.735  0.00  0.00    +0.000 A 
ATOM     15  C   UNL     1       7.300   4.855  14.537  0.00  0.00    +0.000 A 
ATOM     16  C   UNL     1       6.849   5.396  15.755  0.00  0.00    +0.000 A 
ATOM     17  C   UNL     1       5.541   5.165  16.183  0.00  0.00    +0.000 A 
ATOM     18  C   UNL     1       4.729   4.332  15.375  0.00  0.00    +0.000 A 
ATOM     19  C   UNL     1       5.180   3.793  14.170  0.00  0.00    +0.000 A 
BRANCH  14  21
ATOM     20  C   UNL     1       6.206   2.770  11.762  0.00  0.00    +0.000 C 
ATOM     21  O   UNL     1       6.996   3.666  12.538  0.00  0.00    +0.000 OA
ENDBRANCH  14  21
ENDBRANCH   1  17
BRANCH   6  22
ATOM     22  O   UNL     1       0.814  10.038  18.900  0.00  0.00    +0.000 OA
BRANCH  22  23
ATOM     23  C   UNL     1       1.551  11.245  19.140  0.00  0.00    +0.000 C 
BRANCH  23  24
ATOM     24  C   UNL     1       1.048  11.953  20.394  0.00  0.00    +0.000 C 
ATOM     25  O   UNL     1       1.782  12.435  21.246  0.00  0.00    +0.000 OA
BRANCH  24  26
ATOM     26  O   UNL     1      -0.301  11.986  20.487  0.00  0.00    +0.000 OA
ATOM     27  H   UNL     1      -0.649  11.087  20.660  0.00  0.00    +0.000 HD
ENDBRANCH  24  26
ENDBRANCH  23  24
ENDBRANCH  22  23
ENDBRANCH   6  22
TORSDOF 6
ENDMDL
MODEL 8
REMARK VINA RESULT:      -6.7      4.339      9.427
REMARK  Name = 
REMARK  8 active torsions:
REMARK  status: ('A' for Active; 'I' for Inactive)
REMARK    1  A    between atoms: C_1  and  O_2
REMARK    2  A    between atoms: O_2  and  C_3
REMARK    3  A    between atoms: C_6  and  C_7
REMARK    4  A    between atoms: C_7  and  C_8
REMARK    5  A    between atoms: C_12  and  O_13
REMARK    6  A    between atoms: O_13  and  C_14
REMARK    7  A    between atoms: C_14  and  C_15
REMARK    8  A    between atoms: C_15  and  O_17
REMARK                            x       y       z     vdW  Elec       q    Type
REMARK                         _______ _______ _______ _____ _____    ______ ____
ROOT
ATOM      1  C   UNL     1       0.692   9.967  19.226  0.00  0.00    +0.000 C 
ATOM      2  C   UNL     1      -0.239   9.893  17.993  0.00  0.00    +0.000 C 
ATOM      3  C   UNL     1      -0.024   9.863  20.619  0.00  0.00    +0.000 C 
ATOM      4  C   UNL     1      -0.382  11.278  20.966  0.00  0.00    +0.000 A 
ATOM      5  C   UNL     1      -1.184  11.701  22.012  0.00  0.00    +0.000 A 
ATOM      6  C   UNL     1      -1.600  13.036  22.040  0.00  0.00    +0.000 A 
ATOM      7  C   UNL     1      -1.319  13.865  20.926  0.00  0.00    +0.000 A 
ATOM      8 CL   UNL     1      -2.232  15.326  20.684  0.00  0.00    +0.000 Cl
ATOM      9  C   UNL     1      -0.405  13.442  19.936  0.00  0.00    +0.000 A 
ATOM     10 CL   UNL     1      -0.118  14.358  18.500  0.00  0.00    +0.000 Cl
ATOM     11  C   UNL     1       0.146  12.175  20.061  0.00  0.00    +0.000 A 
ATOM     12  C   UNL     1       1.107  11.425  19.233  0.00  0.00    +0.000 C 
ATOM     13  O   UNL     1       2.030  11.951  18.640  0.00  0.00    +0.000 OA
ENDROOT
BRANCH   1  17
ATOM     14  C   UNL     1       3.094   6.357  18.821  0.00  0.00    +0.000 A 
ATOM     15  C   UNL     1       3.105   7.311  17.798  0.00  0.00    +0.000 A 
ATOM     16  C   UNL     1       2.408   8.527  17.919  0.00  0.00    +0.000 A 
ATOM     17  C   UNL     1       1.670   8.800  19.072  0.00  0.00    +0.000 A 
ATOM     18  C   UNL     1       1.704   7.837  20.110  0.00  0.00    +0.000 A 
ATOM     19  C   UNL     1       2.400   6.634  19.989  0.00  0.00    +0.000 A 
BRANCH  14  21
ATOM     20  C   UNL     1       5.056   5.043  19.085  0.00  0.00    +0.000 C 
ATOM     21  O   UNL     1       3.743   5.183  18.550  0.00  0.00    +0.000 OA
ENDBRANCH  14  21
ENDBRANCH   1  17
BRANCH   6  22
ATOM     22  O   UNL     1      -2.338  13.352  23.156  0.00  0.00    +0.000 OA
BRANCH  22  23
ATOM     23  C   UNL     1      -3.701  12.906  23.170  0.00  0.00    +0.000 C 
BRANCH  23  24
ATOM     24  C   UNL     1      -4.224  12.787  24.598  0.00  0.00    +0.000 C 
ATOM     25  O   UNL     1      -4.933  11.870  24.991  0.00  0.00    +0.000 OA
BRANCH  24  26
ATOM     26  O   UNL     1      -3.839  13.808  25.396  0.00  0.00    +0.000 OA
ATOM     27  H   UNL     1      -4.590  14.101  25.953  0.00  0.00    +0.000 HD
ENDBRANCH  24  26
ENDBRANCH  23  24
ENDBRANCH  22  23
ENDBRANCH   6  22
TORSDOF 6
ENDMDL
MODEL 9
REMARK VINA RESULT:      -6.7      4.577      9.161
REMARK  Name = 
REMARK  8 active torsions:
REMARK  status: ('A' for Active; 'I' for Inactive)
REMARK    1  A    between atoms: C_1  and  O_2
REMARK    2  A    between atoms: O_2  and  C_3
REMARK    3  A    between atoms: C_6  and  C_7
REMARK    4  A    between atoms: C_7  and  C_8
REMARK    5  A    between atoms: C_12  and  O_13
REMARK    6  A    between atoms: O_13  and  C_14
REMARK    7  A    between atoms: C_14  and  C_15
REMARK    8  A    between atoms: C_15  and  O_17
REMARK                            x       y       z     vdW  Elec       q    Type
REMARK                         _______ _______ _______ _____ _____    ______ ____
ROOT
ATOM      1  C   UNL     1       0.488  10.456  19.138  0.00  0.00    +0.000 C 
ATOM      2  C   UNL     1       1.314  11.730  18.843  0.00  0.00    +0.000 C 
ATOM      3  C   UNL     1      -0.760  10.232  18.214  0.00  0.00    +0.000 C 
ATOM      4  C   UNL     1      -1.877  10.958  18.906  0.00  0.00    +0.000 A 
ATOM      5  C   UNL     1      -3.142  11.211  18.405  0.00  0.00    +0.000 A 
ATOM      6  C   UNL     1      -3.970  12.105  19.092  0.00  0.00    +0.000 A 
ATOM      7  C   UNL     1      -3.433  12.835  20.181  0.00  0.00    +0.000 A 
ATOM      8 CL   UNL     1      -4.224  14.288  20.719  0.00  0.00    +0.000 Cl
ATOM      9  C   UNL     1      -2.187  12.472  20.738  0.00  0.00    +0.000 A 
ATOM     10 CL   UNL     1      -1.434  13.399  21.985  0.00  0.00    +0.000 Cl
ATOM     11  C   UNL     1      -1.490  11.432  20.142  0.00  0.00    +0.000 A 
ATOM     12  C   UNL     1      -0.191  10.805  20.448  0.00  0.00    +0.000 C 
ATOM     13  O   UNL     1       0.231  10.663  21.580  0.00  0.00    +0.000 OA
ENDROOT
BRANCH   1  17
ATOM     14  C   UNL     1       2.877   6.843  18.681  0.00  0.00    +0.000 A 
ATOM     15  C   UNL     1       2.874   7.801  17.661  0.00  0.00    +0.000 A 
ATOM     16  C   UNL     1       2.181   9.018  17.799  0.00  0.00    +0.000 A 
ATOM     17  C   UNL     1       1.462   9.287  18.964  0.00  0.00    +0.000 A 
ATOM     18  C   UNL     1       1.510   8.320  19.997  0.00  0.00    +0.000 A 
ATOM     19  C   UNL     1       2.202   7.116  19.860  0.00  0.00    +0.000 A 
BRANCH  14  21
ATOM     20  C   UNL     1       4.910   5.760  18.102  0.00  0.00    +0.000 C 
ATOM     21  O   UNL     1       3.519   5.669  18.395  0.00  0.00    +0.000 OA
ENDBRANCH  14  21
ENDBRANCH   1  17
BRANCH   6  22
ATOM     22  O   UNL     1      -5.220  12.226  18.534  0.00  0.00    +0.000 OA
BRANCH  22  23
ATOM     23  C   UNL     1      -5.868  11.008  18.142  0.00  0.00    +0.000 C 
BRANCH  23  24
ATOM     24  C   UNL     1      -6.911  10.588  19.173  0.00  0.00    +0.000 C 
ATOM     25  O   UNL     1      -7.239  11.274  20.131  0.00  0.00    +0.000 OA
BRANCH  24  26
ATOM     26  O   UNL     1      -7.436   9.364  18.935  0.00  0.00    +0.000 OA
ATOM     27  H   UNL     1      -8.335   9.303  19.320  0.00  0.00    +0.000 HD
ENDBRANCH  24  26
ENDBRANCH  23  24
ENDBRANCH  22  23
ENDBRANCH   6  22
TORSDOF 6
ENDMDL
