MODEL 1
REMARK VINA RESULT:      -8.3      0.000      0.000
REMARK  Name = 
REMARK  10 active torsions:
REMARK  status: ('A' for Active; 'I' for Inactive)
REMARK    1  A    between atoms: C_1  and  O_2
REMARK    2  A    between atoms: O_2  and  C_3
REMARK    3  A    between atoms: C_5  and  C_6
REMARK    4  A    between atoms: C_6  and  C_12
REMARK    5  A    between atoms: N_7  and  N_8
REMARK    6  A    between atoms: C_9  and  C_10
REMARK    7  A    between atoms: C_23  and  O_24
REMARK    8  A    between atoms: O_24  and  C_25
REMARK    9  A    between atoms: C_26  and  O_27
REMARK   10  A    between atoms: O_27  and  C_28
REMARK                            x       y       z     vdW  Elec       q    Type
REMARK                         _______ _______ _______ _____ _____    ______ ____
ROOT
ATOM      1  C   UNL     1       3.515   5.008  17.728  0.00  0.00    +0.000 C 
ATOM      2  N   UNL     1       3.067   3.840  18.110  0.00  0.00    +0.000 NA
ENDROOT
BRANCH   1   3
ATOM      3  C   UNL     1       2.924   6.349  18.178  0.00  0.00    +0.000 A 
ATOM      4  C   UNL     1       2.703   7.403  17.290  0.00  0.00    +0.000 A 
ATOM      5  C   UNL     1       2.196   8.634  17.696  0.00  0.00    +0.000 A 
ATOM      6  C   UNL     1       1.741   8.800  18.994  0.00  0.00    +0.000 A 
ATOM      7  C   UNL     1       1.040   9.964  19.321  0.00  0.00    +0.000 A 
ATOM      8  C   UNL     1       0.498  10.117  20.590  0.00  0.00    +0.000 A 
ATOM      9  C   UNL     1       0.720   9.138  21.554  0.00  0.00    +0.000 A 
ATOM     10  C   UNL     1       1.445   7.980  21.240  0.00  0.00    +0.000 A 
ATOM     11  C   UNL     1       1.934   7.770  19.937  0.00  0.00    +0.000 A 
ATOM     12  C   UNL     1       2.571   6.568  19.526  0.00  0.00    +0.000 A 
ENDBRANCH   1   3
BRANCH   1  15
ATOM     13  C   UNL     1       6.051   4.207  14.955  0.00  0.00    +0.000 A 
ATOM     14  C   UNL     1       5.066   4.030  15.934  0.00  0.00    +0.000 A 
ATOM     15  C   UNL     1       4.799   4.983  16.906  0.00  0.00    +0.000 A 
ATOM     16  C   UNL     1       5.771   5.967  17.086  0.00  0.00    +0.000 A 
ATOM     17  C   UNL     1       6.898   6.058  16.233  0.00  0.00    +0.000 A 
ATOM     18  C   UNL     1       7.023   5.200  15.117  0.00  0.00    +0.000 A 
BRANCH  13  20
ATOM     19  C   UNL     1       5.011   3.679  12.906  0.00  0.00    +0.000 C 
ATOM     20  O   UNL     1       6.037   3.372  13.863  0.00  0.00    +0.000 OA
ENDBRANCH  13  20
BRANCH  17  21
ATOM     21  O   UNL     1       7.747   7.068  16.623  0.00  0.00    +0.000 OA
ATOM     22  C   UNL     1       7.755   7.478  17.983  0.00  0.00    +0.000 C 
ENDBRANCH  17  21
BRANCH  18  23
ATOM     23  O   UNL     1       8.093   5.399  14.293  0.00  0.00    +0.000 OA
ATOM     24  C   UNL     1       7.913   5.583  12.897  0.00  0.00    +0.000 C 
ENDBRANCH  18  23
ENDBRANCH   1  15
BRANCH   2  25
ATOM     25  N   UNL     1       1.876   3.747  18.754  0.00  0.00    +0.000 N 
ATOM     26  C   UNL     1       1.727   3.185  19.999  0.00  0.00    +0.000 C 
ATOM     27  C   UNL     1       2.957   2.698  20.725  0.00  0.00    +0.000 C 
ATOM     28  O   UNL     1       0.612   3.119  20.518  0.00  0.00    +0.000 OA
ATOM     29  H   UNL     1       1.025   4.068  18.307  0.00  0.00    +0.000 HD
ENDBRANCH   2  25
TORSDOF 6
ENDMDL
MODEL 2
REMARK VINA RESULT:      -8.3      0.405      2.464
REMARK  Name = 
REMARK  10 active torsions:
REMARK  status: ('A' for Active; 'I' for Inactive)
REMARK    1  A    between atoms: C_1  and  O_2
REMARK    2  A    between atoms: O_2  and  C_3
REMARK    3  A    between atoms: C_5  and  C_6
REMARK    4  A    between atoms: C_6  and  C_12
REMARK    5  A    between atoms: N_7  and  N_8
REMARK    6  A    between atoms: C_9  and  C_10
REMARK    7  A    between atoms: C_23  and  O_24
REMARK    8  A    between atoms: O_24  and  C_25
REMARK    9  A    between atoms: C_26  and  O_27
REMARK   10  A    between atoms: O_27  and  C_28
REMARK                            x       y       z     vdW  Elec       q    Type
REMARK                         _______ _______ _______ _____ _____    ______ ____
ROOT
ATOM      1  C   UNL     1       3.396   5.363  17.822  0.00  0.00    +0.000 C 
ATOM      2  N   UNL     1       3.121   4.179  18.305  0.00  0.00    +0.000 NA
ENDROOT
BRANCH   1   3
ATOM      3  C   UNL     1       2.737   6.663  18.295  0.00  0.00    +0.000 A 
ATOM      4  C   UNL     1       2.410   7.698  17.417  0.00  0.00    +0.000 A 
ATOM      5  C   UNL     1       1.839   8.894  17.842  0.00  0.00    +0.000 A 
ATOM      6  C   UNL     1       1.429   9.033  19.157  0.00  0.00    +0.000 A 
ATOM      7  C   UNL     1       0.666  10.149  19.513  0.00  0.00    +0.000 A 
ATOM      8  C   UNL     1       0.168  10.270  20.803  0.00  0.00    +0.000 A 
ATOM      9  C   UNL     1       0.494   9.312  21.758  0.00  0.00    +0.000 A 
ATOM     10  C   UNL     1       1.280   8.203  21.414  0.00  0.00    +0.000 A 
ATOM     11  C   UNL     1       1.728   8.021  20.093  0.00  0.00    +0.000 A 
ATOM     12  C   UNL     1       2.426   6.863  19.656  0.00  0.00    +0.000 A 
ENDBRANCH   1   3
BRANCH   1  15
ATOM     13  C   UNL     1       6.784   6.227  16.228  0.00  0.00    +0.000 A 
ATOM     14  C   UNL     1       5.557   6.380  16.883  0.00  0.00    +0.000 A 
ATOM     15  C   UNL     1       4.559   5.417  16.837  0.00  0.00    +0.000 A 
ATOM     16  C   UNL     1       4.684   4.450  15.840  0.00  0.00    +0.000 A 
ATOM     17  C   UNL     1       5.831   4.385  15.012  0.00  0.00    +0.000 A 
ATOM     18  C   UNL     1       6.926   5.252  15.236  0.00  0.00    +0.000 A 
BRANCH  13  20
ATOM     19  C   UNL     1       7.502   7.955  17.661  0.00  0.00    +0.000 C 
ATOM     20  O   UNL     1       7.814   7.067  16.576  0.00  0.00    +0.000 OA
ENDBRANCH  13  20
BRANCH  17  21
ATOM     21  O   UNL     1       5.719   3.389  14.070  0.00  0.00    +0.000 OA
ATOM     22  C   UNL     1       5.171   3.700  12.797  0.00  0.00    +0.000 C 
ENDBRANCH  17  21
BRANCH  18  23
ATOM     23  O   UNL     1       8.030   5.077  14.452  0.00  0.00    +0.000 OA
ATOM     24  C   UNL     1       8.097   5.639  13.151  0.00  0.00    +0.000 C 
ENDBRANCH  18  23
ENDBRANCH   1  15
BRANCH   2  25
ATOM     25  N   UNL     1       2.040   4.007  19.107  0.00  0.00    +0.000 N 
ATOM     26  C   UNL     1       2.052   3.238  20.245  0.00  0.00    +0.000 C 
ATOM     27  C   UNL     1       3.349   2.595  20.671  0.00  0.00    +0.000 C 
ATOM     28  O   UNL     1       1.026   3.112  20.918  0.00  0.00    +0.000 OA
ATOM     29  H   UNL     1       1.149   4.426  18.863  0.00  0.00    +0.000 HD
ENDBRANCH   2  25
TORSDOF 6
ENDMDL
MODEL 3
REMARK VINA RESULT:      -8.2      2.929      7.222
REMARK  Name = 
REMARK  10 active torsions:
REMARK  status: ('A' for Active; 'I' for Inactive)
REMARK    1  A    between atoms: C_1  and  O_2
REMARK    2  A    between atoms: O_2  and  C_3
REMARK    3  A    between atoms: C_5  and  C_6
REMARK    4  A    between atoms: C_6  and  C_12
REMARK    5  A    between atoms: N_7  and  N_8
REMARK    6  A    between atoms: C_9  and  C_10
REMARK    7  A    between atoms: C_23  and  O_24
REMARK    8  A    between atoms: O_24  and  C_25
REMARK    9  A    between atoms: C_26  and  O_27
REMARK   10  A    between atoms: O_27  and  C_28
REMARK                            x       y       z     vdW  Elec       q    Type
REMARK                         _______ _______ _______ _____ _____    ______ ____
ROOT
ATOM      1  C   UNL     1       2.473   6.044  19.805  0.00  0.00    +0.000 C 
ATOM      2  N   UNL     1       1.653   5.127  20.249  0.00  0.00    +0.000 NA
ENDROOT
BRANCH   1   3
ATOM      3  C   UNL     1       3.755   5.748  19.020  0.00  0.00    +0.000 A 
ATOM      4  C   UNL     1       4.922   5.293  19.638  0.00  0.00    +0.000 A 
ATOM      5  C   UNL     1       6.100   5.051  18.936  0.00  0.00    +0.000 A 
ATOM      6  C   UNL     1       6.103   5.109  17.553  0.00  0.00    +0.000 A 
ATOM      7  C   UNL     1       7.229   4.653  16.860  0.00  0.00    +0.000 A 
ATOM      8  C   UNL     1       7.225   4.619  15.472  0.00  0.00    +0.000 A 
ATOM      9  C   UNL     1       6.124   5.107  14.776  0.00  0.00    +0.000 A 
ATOM     10  C   UNL     1       5.002   5.589  15.464  0.00  0.00    +0.000 A 
ATOM     11  C   UNL     1       4.954   5.559  16.870  0.00  0.00    +0.000 A 
ATOM     12  C   UNL     1       3.803   5.921  17.621  0.00  0.00    +0.000 A 
ENDBRANCH   1   3
BRANCH   1  15
ATOM     13  C   UNL     1       1.011   9.512  19.036  0.00  0.00    +0.000 A 
ATOM     14  C   UNL     1       1.766   8.342  18.909  0.00  0.00    +0.000 A 
ATOM     15  C   UNL     1       2.003   7.485  19.974  0.00  0.00    +0.000 A 
ATOM     16  C   UNL     1       1.754   8.001  21.245  0.00  0.00    +0.000 A 
ATOM     17  C   UNL     1       1.171   9.279  21.424  0.00  0.00    +0.000 A 
ATOM     18  C   UNL     1       0.743  10.033  20.307  0.00  0.00    +0.000 A 
BRANCH  13  20
ATOM     19  C   UNL     1      -0.848  10.027  17.680  0.00  0.00    +0.000 C 
ATOM     20  O   UNL     1       0.570  10.128  17.889  0.00  0.00    +0.000 OA
ENDBRANCH  13  20
BRANCH  17  21
ATOM     21  O   UNL     1       1.062   9.604  22.755  0.00  0.00    +0.000 OA
ATOM     22  C   UNL     1      -0.209   9.531  23.385  0.00  0.00    +0.000 C 
ENDBRANCH  17  21
BRANCH  18  23
ATOM     23  O   UNL     1       0.115  11.219  20.558  0.00  0.00    +0.000 OA
ATOM     24  C   UNL     1       0.856  12.421  20.690  0.00  0.00    +0.000 C 
ENDBRANCH  18  23
ENDBRANCH   1  15
BRANCH   2  25
ATOM     25  N   UNL     1       2.024   3.822  20.241  0.00  0.00    +0.000 N 
ATOM     26  C   UNL     1       1.759   2.962  19.203  0.00  0.00    +0.000 C 
ATOM     27  C   UNL     1       1.073   3.502  17.972  0.00  0.00    +0.000 C 
ATOM     28  O   UNL     1       2.111   1.783  19.272  0.00  0.00    +0.000 OA
ATOM     29  H   UNL     1       2.493   3.418  21.044  0.00  0.00    +0.000 HD
ENDBRANCH   2  25
TORSDOF 6
ENDMDL
MODEL 4
REMARK VINA RESULT:      -8.1      2.875      7.194
REMARK  Name = 
REMARK  10 active torsions:
REMARK  status: ('A' for Active; 'I' for Inactive)
REMARK    1  A    between atoms: C_1  and  O_2
REMARK    2  A    between atoms: O_2  and  C_3
REMARK    3  A    between atoms: C_5  and  C_6
REMARK    4  A    between atoms: C_6  and  C_12
REMARK    5  A    between atoms: N_7  and  N_8
REMARK    6  A    between atoms: C_9  and  C_10
REMARK    7  A    between atoms: C_23  and  O_24
REMARK    8  A    between atoms: O_24  and  C_25
REMARK    9  A    between atoms: C_26  and  O_27
REMARK   10  A    between atoms: O_27  and  C_28
REMARK                            x       y       z     vdW  Elec       q    Type
REMARK                         _______ _______ _______ _____ _____    ______ ____
ROOT
ATOM      1  C   UNL     1       2.551   5.804  19.795  0.00  0.00    +0.000 C 
ATOM      2  N   UNL     1       1.857   4.846  20.351  0.00  0.00    +0.000 NA
ENDROOT
BRANCH   1   3
ATOM      3  C   UNL     1       3.796   5.579  18.930  0.00  0.00    +0.000 A 
ATOM      4  C   UNL     1       5.085   5.564  19.465  0.00  0.00    +0.000 A 
ATOM      5  C   UNL     1       6.223   5.390  18.682  0.00  0.00    +0.000 A 
ATOM      6  C   UNL     1       6.095   5.066  17.342  0.00  0.00    +0.000 A 
ATOM      7  C   UNL     1       7.234   4.684  16.627  0.00  0.00    +0.000 A 
ATOM      8  C   UNL     1       7.122   4.270  15.307  0.00  0.00    +0.000 A 
ATOM      9  C   UNL     1       5.881   4.309  14.678  0.00  0.00    +0.000 A 
ATOM     10  C   UNL     1       4.738   4.716  15.382  0.00  0.00    +0.000 A 
ATOM     11  C   UNL     1       4.819   5.063  16.743  0.00  0.00    +0.000 A 
ATOM     12  C   UNL     1       3.682   5.368  17.540  0.00  0.00    +0.000 A 
ENDBRANCH   1   3
BRANCH   1  15
ATOM     13  C   UNL     1       1.419   9.372  18.928  0.00  0.00    +0.000 A 
ATOM     14  C   UNL     1       2.220   8.228  19.022  0.00  0.00    +0.000 A 
ATOM     15  C   UNL     1       1.958   7.204  19.920  0.00  0.00    +0.000 A 
ATOM     16  C   UNL     1       1.076   7.505  20.957  0.00  0.00    +0.000 A 
ATOM     17  C   UNL     1       0.391   8.744  21.009  0.00  0.00    +0.000 A 
ATOM     18  C   UNL     1       0.521   9.679  19.956  0.00  0.00    +0.000 A 
BRANCH  13  20
ATOM     19  C   UNL     1       2.328  11.367  18.061  0.00  0.00    +0.000 C 
ATOM     20  O   UNL     1       1.562  10.175  17.822  0.00  0.00    +0.000 OA
ENDBRANCH  13  20
BRANCH  17  21
ATOM     21  O   UNL     1      -0.385   8.846  22.139  0.00  0.00    +0.000 OA
ATOM     22  C   UNL     1       0.138   9.509  23.281  0.00  0.00    +0.000 C 
ENDBRANCH  17  21
BRANCH  18  23
ATOM     23  O   UNL     1      -0.232  10.815  20.034  0.00  0.00    +0.000 OA
ATOM     24  C   UNL     1      -1.430  10.948  19.286  0.00  0.00    +0.000 C 
ENDBRANCH  18  23
ENDBRANCH   1  15
BRANCH   2  25
ATOM     25  N   UNL     1       2.350   3.582  20.387  0.00  0.00    +0.000 N 
ATOM     26  C   UNL     1       1.922   2.574  19.558  0.00  0.00    +0.000 C 
ATOM     27  C   UNL     1       0.891   2.894  18.503  0.00  0.00    +0.000 C 
ATOM     28  O   UNL     1       2.404   1.444  19.657  0.00  0.00    +0.000 OA
ATOM     29  H   UNL     1       3.049   3.324  21.075  0.00  0.00    +0.000 HD
ENDBRANCH   2  25
TORSDOF 6
ENDMDL
MODEL 5
REMARK VINA RESULT:      -8.1      0.798      1.519
REMARK  Name = 
REMARK  10 active torsions:
REMARK  status: ('A' for Active; 'I' for Inactive)
REMARK    1  A    between atoms: C_1  and  O_2
REMARK    2  A    between atoms: O_2  and  C_3
REMARK    3  A    between atoms: C_5  and  C_6
REMARK    4  A    between atoms: C_6  and  C_12
REMARK    5  A    between atoms: N_7  and  N_8
REMARK    6  A    between atoms: C_9  and  C_10
REMARK    7  A    between atoms: C_23  and  O_24
REMARK    8  A    between atoms: O_24  and  C_25
REMARK    9  A    between atoms: C_26  and  O_27
REMARK   10  A    between atoms: O_27  and  C_28
REMARK                            x       y       z     vdW  Elec       q    Type
REMARK                         _______ _______ _______ _____ _____    ______ ____
ROOT
ATOM      1  C   UNL     1       3.277   4.634  17.391  0.00  0.00    +0.000 C 
ATOM      2  N   UNL     1       2.729   3.449  17.321  0.00  0.00    +0.000 NA
ENDROOT
BRANCH   1   3
ATOM      3  C   UNL     1       2.719   5.795  18.221  0.00  0.00    +0.000 A 
ATOM      4  C   UNL     1       2.616   5.739  19.612  0.00  0.00    +0.000 A 
ATOM      5  C   UNL     1       2.082   6.777  20.370  0.00  0.00    +0.000 A 
ATOM      6  C   UNL     1       1.772   7.984  19.766  0.00  0.00    +0.000 A 
ATOM      7  C   UNL     1       1.445   9.079  20.572  0.00  0.00    +0.000 A 
ATOM      8  C   UNL     1       1.215  10.322  19.998  0.00  0.00    +0.000 A 
ATOM      9  C   UNL     1       1.242  10.454  18.613  0.00  0.00    +0.000 A 
ATOM     10  C   UNL     1       1.544   9.354  17.797  0.00  0.00    +0.000 A 
ATOM     11  C   UNL     1       1.858   8.105  18.364  0.00  0.00    +0.000 A 
ATOM     12  C   UNL     1       2.287   6.986  17.600  0.00  0.00    +0.000 A 
ENDBRANCH   1   3
BRANCH   1  15
ATOM     13  C   UNL     1       6.164   4.186  14.895  0.00  0.00    +0.000 A 
ATOM     14  C   UNL     1       5.110   3.877  15.763  0.00  0.00    +0.000 A 
ATOM     15  C   UNL     1       4.635   4.773  16.710  0.00  0.00    +0.000 A 
ATOM     16  C   UNL     1       5.462   5.857  17.001  0.00  0.00    +0.000 A 
ATOM     17  C   UNL     1       6.654   6.093  16.273  0.00  0.00    +0.000 A 
ATOM     18  C   UNL     1       6.993   5.278  15.168  0.00  0.00    +0.000 A 
BRANCH  13  20
ATOM     19  C   UNL     1       5.371   3.538  12.771  0.00  0.00    +0.000 C 
ATOM     20  O   UNL     1       6.360   3.378  13.801  0.00  0.00    +0.000 OA
ENDBRANCH  13  20
BRANCH  17  21
ATOM     21  O   UNL     1       7.336   7.184  16.760  0.00  0.00    +0.000 OA
ATOM     22  C   UNL     1       7.822   7.157  18.094  0.00  0.00    +0.000 C 
ENDBRANCH  17  21
BRANCH  18  23
ATOM     23  O   UNL     1       8.113   5.615  14.464  0.00  0.00    +0.000 OA
ATOM     24  C   UNL     1       8.078   5.727  13.050  0.00  0.00    +0.000 C 
ENDBRANCH  18  23
ENDBRANCH   1  15
BRANCH   2  25
ATOM     25  N   UNL     1       1.476   3.249  17.803  0.00  0.00    +0.000 N 
ATOM     26  C   UNL     1       1.203   2.512  18.929  0.00  0.00    +0.000 C 
ATOM     27  C   UNL     1       2.356   1.939  19.716  0.00  0.00    +0.000 C 
ATOM     28  O   UNL     1       0.038   2.358  19.301  0.00  0.00    +0.000 OA
ATOM     29  H   UNL     1       0.672   3.622  17.310  0.00  0.00    +0.000 HD
ENDBRANCH   2  25
TORSDOF 6
ENDMDL
MODEL 6
REMARK VINA RESULT:      -8.1      0.701      2.846
REMARK  Name = 
REMARK  10 active torsions:
REMARK  status: ('A' for Active; 'I' for Inactive)
REMARK    1  A    between atoms: C_1  and  O_2
REMARK    2  A    between atoms: O_2  and  C_3
REMARK    3  A    between atoms: C_5  and  C_6
REMARK    4  A    between atoms: C_6  and  C_12
REMARK    5  A    between atoms: N_7  and  N_8
REMARK    6  A    between atoms: C_9  and  C_10
REMARK    7  A    between atoms: C_23  and  O_24
REMARK    8  A    between atoms: O_24  and  C_25
REMARK    9  A    between atoms: C_26  and  O_27
REMARK   10  A    between atoms: O_27  and  C_28
REMARK                            x       y       z     vdW  Elec       q    Type
REMARK                         _______ _______ _______ _____ _____    ______ ____
ROOT
ATOM      1  C   UNL     1       3.592   4.665  17.673  0.00  0.00    +0.000 C 
ATOM      2  N   UNL     1       3.366   3.402  17.928  0.00  0.00    +0.000 NA
ENDROOT
BRANCH   1   3
ATOM      3  C   UNL     1       2.912   5.828  18.403  0.00  0.00    +0.000 A 
ATOM      4  C   UNL     1       2.721   5.832  19.786  0.00  0.00    +0.000 A 
ATOM      5  C   UNL     1       2.077   6.871  20.453  0.00  0.00    +0.000 A 
ATOM      6  C   UNL     1       1.738   8.026  19.769  0.00  0.00    +0.000 A 
ATOM      7  C   UNL     1       1.294   9.136  20.493  0.00  0.00    +0.000 A 
ATOM      8  C   UNL     1       1.031  10.333  19.842  0.00  0.00    +0.000 A 
ATOM      9  C   UNL     1       1.142  10.400  18.456  0.00  0.00    +0.000 A 
ATOM     10  C   UNL     1       1.562   9.283  17.720  0.00  0.00    +0.000 A 
ATOM     11  C   UNL     1       1.910   8.084  18.370  0.00  0.00    +0.000 A 
ATOM     12  C   UNL     1       2.454   6.958  17.695  0.00  0.00    +0.000 A 
ENDBRANCH   1   3
BRANCH   1  15
ATOM     13  C   UNL     1       6.850   6.019  16.152  0.00  0.00    +0.000 A 
ATOM     14  C   UNL     1       5.631   5.979  16.839  0.00  0.00    +0.000 A 
ATOM     15  C   UNL     1       4.720   4.944  16.686  0.00  0.00    +0.000 A 
ATOM     16  C   UNL     1       4.904   4.123  15.574  0.00  0.00    +0.000 A 
ATOM     17  C   UNL     1       6.031   4.264  14.728  0.00  0.00    +0.000 A 
ATOM     18  C   UNL     1       7.051   5.191  15.043  0.00  0.00    +0.000 A 
BRANCH  13  20
ATOM     19  C   UNL     1       7.330   7.871  17.530  0.00  0.00    +0.000 C 
ATOM     20  O   UNL     1       7.811   6.899  16.588  0.00  0.00    +0.000 OA
ENDBRANCH  13  20
BRANCH  17  21
ATOM     21  O   UNL     1       5.982   3.387  13.671  0.00  0.00    +0.000 OA
ATOM     22  C   UNL     1       5.102   3.655  12.589  0.00  0.00    +0.000 C 
ENDBRANCH  17  21
BRANCH  18  23
ATOM     23  O   UNL     1       8.146   5.215  14.229  0.00  0.00    +0.000 OA
ATOM     24  C   UNL     1       8.065   5.741  12.914  0.00  0.00    +0.000 C 
ENDBRANCH  18  23
ENDBRANCH   1  15
BRANCH   2  25
ATOM     25  N   UNL     1       2.316   3.044  18.711  0.00  0.00    +0.000 N 
ATOM     26  C   UNL     1       2.454   2.492  19.961  0.00  0.00    +0.000 C 
ATOM     27  C   UNL     1       3.841   2.327  20.531  0.00  0.00    +0.000 C 
ATOM     28  O   UNL     1       1.455   2.175  20.610  0.00  0.00    +0.000 OA
ATOM     29  H   UNL     1       1.366   3.144  18.371  0.00  0.00    +0.000 HD
ENDBRANCH   2  25
TORSDOF 6
ENDMDL
MODEL 7
REMARK VINA RESULT:      -8.1      3.102      7.091
REMARK  Name = 
REMARK  10 active torsions:
REMARK  status: ('A' for Active; 'I' for Inactive)
REMARK    1  A    between atoms: C_1  and  O_2
REMARK    2  A    between atoms: O_2  and  C_3
REMARK    3  A    between atoms: C_5  and  C_6
REMARK    4  A    between atoms: C_6  and  C_12
REMARK    5  A    between atoms: N_7  and  N_8
REMARK    6  A    between atoms: C_9  and  C_10
REMARK    7  A    between atoms: C_23  and  O_24
REMARK    8  A    between atoms: O_24  and  C_25
REMARK    9  A    between atoms: C_26  and  O_27
REMARK   10  A    between atoms: O_27  and  C_28
REMARK                            x       y       z     vdW  Elec       q    Type
REMARK                         _______ _______ _______ _____ _____    ______ ____
ROOT
ATOM      1  C   UNL     1       2.265   5.995  20.220  0.00  0.00    +0.000 C 
ATOM      2  N   UNL     1       1.751   5.289  21.193  0.00  0.00    +0.000 NA
ENDROOT
BRANCH   1   3
ATOM      3  C   UNL     1       3.183   5.428  19.132  0.00  0.00    +0.000 A 
ATOM      4  C   UNL     1       2.689   4.905  17.935  0.00  0.00    +0.000 A 
ATOM      5  C   UNL     1       3.514   4.360  16.956  0.00  0.00    +0.000 A 
ATOM      6  C   UNL     1       4.890   4.462  17.076  0.00  0.00    +0.000 A 
ATOM      7  C   UNL     1       5.692   4.107  15.987  0.00  0.00    +0.000 A 
ATOM      8  C   UNL     1       7.068   4.282  16.050  0.00  0.00    +0.000 A 
ATOM      9  C   UNL     1       7.648   4.745  17.226  0.00  0.00    +0.000 A 
ATOM     10  C   UNL     1       6.852   5.079  18.331  0.00  0.00    +0.000 A 
ATOM     11  C   UNL     1       5.449   4.983  18.260  0.00  0.00    +0.000 A 
ATOM     12  C   UNL     1       4.583   5.418  19.300  0.00  0.00    +0.000 A 
ENDBRANCH   1   3
BRANCH   1  15
ATOM     13  C   UNL     1       1.449   9.478  18.817  0.00  0.00    +0.000 A 
ATOM     14  C   UNL     1       2.157   8.308  19.114  0.00  0.00    +0.000 A 
ATOM     15  C   UNL     1       1.768   7.434  20.119  0.00  0.00    +0.000 A 
ATOM     16  C   UNL     1       0.851   7.929  21.044  0.00  0.00    +0.000 A 
ATOM     17  C   UNL     1       0.256   9.205  20.886  0.00  0.00    +0.000 A 
ATOM     18  C   UNL     1       0.516   9.978  19.731  0.00  0.00    +0.000 A 
BRANCH  13  20
ATOM     19  C   UNL     1       2.481  11.321  17.769  0.00  0.00    +0.000 C 
ATOM     20  O   UNL     1       1.716  10.113  17.627  0.00  0.00    +0.000 OA
ENDBRANCH  13  20
BRANCH  17  21
ATOM     21  O   UNL     1      -0.577   9.509  21.937  0.00  0.00    +0.000 OA
ATOM     22  C   UNL     1      -0.017   9.718  23.226  0.00  0.00    +0.000 C 
ENDBRANCH  17  21
BRANCH  18  23
ATOM     23  O   UNL     1      -0.155  11.161  19.607  0.00  0.00    +0.000 OA
ATOM     24  C   UNL     1      -1.395  11.226  18.921  0.00  0.00    +0.000 C 
ENDBRANCH  18  23
ENDBRANCH   1  15
BRANCH   2  25
ATOM     25  N   UNL     1       2.203   4.032  21.432  0.00  0.00    +0.000 N 
ATOM     26  C   UNL     1       1.647   2.904  20.879  0.00  0.00    +0.000 C 
ATOM     27  C   UNL     1       0.510   3.064  19.899  0.00  0.00    +0.000 C 
ATOM     28  O   UNL     1       2.101   1.792  21.154  0.00  0.00    +0.000 OA
ATOM     29  H   UNL     1       2.970   3.878  22.078  0.00  0.00    +0.000 HD
ENDBRANCH   2  25
TORSDOF 6
ENDMDL
MODEL 8
REMARK VINA RESULT:      -8.0      3.241      7.130
REMARK  Name = 
REMARK  10 active torsions:
REMARK  status: ('A' for Active; 'I' for Inactive)
REMARK    1  A    between atoms: C_1  and  O_2
REMARK    2  A    between atoms: O_2  and  C_3
REMARK    3  A    between atoms: C_5  and  C_6
REMARK    4  A    between atoms: C_6  and  C_12
REMARK    5  A    between atoms: N_7  and  N_8
REMARK    6  A    between atoms: C_9  and  C_10
REMARK    7  A    between atoms: C_23  and  O_24
REMARK    8  A    between atoms: O_24  and  C_25
REMARK    9  A    between atoms: C_26  and  O_27
REMARK   10  A    between atoms: O_27  and  C_28
REMARK                            x       y       z     vdW  Elec       q    Type
REMARK                         _______ _______ _______ _____ _____    ______ ____
ROOT
ATOM      1  C   UNL     1       2.319   6.102  20.264  0.00  0.00    +0.000 C 
ATOM      2  N   UNL     1       1.777   5.380  21.210  0.00  0.00    +0.000 NA
ENDROOT
BRANCH   1   3
ATOM      3  C   UNL     1       3.215   5.540  19.156  0.00  0.00    +0.000 A 
ATOM      4  C   UNL     1       2.704   5.091  17.936  0.00  0.00    +0.000 A 
ATOM      5  C   UNL     1       3.508   4.550  16.937  0.00  0.00    +0.000 A 
ATOM      6  C   UNL     1       4.887   4.586  17.065  0.00  0.00    +0.000 A 
ATOM      7  C   UNL     1       5.678   4.241  15.965  0.00  0.00    +0.000 A 
ATOM      8  C   UNL     1       7.059   4.351  16.039  0.00  0.00    +0.000 A 
ATOM      9  C   UNL     1       7.655   4.737  17.236  0.00  0.00    +0.000 A 
ATOM     10  C   UNL     1       6.869   5.060  18.351  0.00  0.00    +0.000 A 
ATOM     11  C   UNL     1       5.464   5.031  18.272  0.00  0.00    +0.000 A 
ATOM     12  C   UNL     1       4.613   5.460  19.327  0.00  0.00    +0.000 A 
ENDBRANCH   1   3
BRANCH   1  15
ATOM     13  C   UNL     1       0.987   9.465  18.968  0.00  0.00    +0.000 A 
ATOM     14  C   UNL     1       1.717   8.273  19.036  0.00  0.00    +0.000 A 
ATOM     15  C   UNL     1       1.878   7.561  20.216  0.00  0.00    +0.000 A 
ATOM     16  C   UNL     1       1.579   8.246  21.393  0.00  0.00    +0.000 A 
ATOM     17  C   UNL     1       1.020   9.548  21.370  0.00  0.00    +0.000 A 
ATOM     18  C   UNL     1       0.669  10.154  20.142  0.00  0.00    +0.000 A 
BRANCH  13  20
ATOM     19  C   UNL     1      -0.793   9.869  17.474  0.00  0.00    +0.000 C 
ATOM     20  O   UNL     1       0.620   9.931  17.728  0.00  0.00    +0.000 OA
ENDBRANCH  13  20
BRANCH  17  21
ATOM     21  O   UNL     1       0.854  10.049  22.639  0.00  0.00    +0.000 OA
ATOM     22  C   UNL     1      -0.326   9.727  23.361  0.00  0.00    +0.000 C 
ENDBRANCH  17  21
BRANCH  18  23
ATOM     23  O   UNL     1       0.060  11.375  20.201  0.00  0.00    +0.000 OA
ATOM     24  C   UNL     1       0.823  12.563  20.342  0.00  0.00    +0.000 C 
ENDBRANCH  18  23
ENDBRANCH   1  15
BRANCH   2  25
ATOM     25  N   UNL     1       2.181   4.099  21.404  0.00  0.00    +0.000 N 
ATOM     26  C   UNL     1       1.548   3.010  20.854  0.00  0.00    +0.000 C 
ATOM     27  C   UNL     1       0.377   3.244  19.931  0.00  0.00    +0.000 C 
ATOM     28  O   UNL     1       1.961   1.873  21.086  0.00  0.00    +0.000 OA
ATOM     29  H   UNL     1       2.968   3.896  22.010  0.00  0.00    +0.000 HD
ENDBRANCH   2  25
TORSDOF 6
ENDMDL
MODEL 9
REMARK VINA RESULT:      -7.8      2.846      7.277
REMARK  Name = 
REMARK  10 active torsions:
REMARK  status: ('A' for Active; 'I' for Inactive)
REMARK    1  A    between atoms: C_1  and  O_2
REMARK    2  A    between atoms: O_2  and  C_3
REMARK    3  A    between atoms: C_5  and  C_6
REMARK    4  A    between atoms: C_6  and  C_12
REMARK    5  A    between atoms: N_7  and  N_8
REMARK    6  A    between atoms: C_9  and  C_10
REMARK    7  A    between atoms: C_23  and  O_24
REMARK    8  A    between atoms: O_24  and  C_25
REMARK    9  A    between atoms: C_26  and  O_27
REMARK   10  A    between atoms: O_27  and  C_28
REMARK                            x       y       z     vdW  Elec       q    Type
REMARK                         _______ _______ _______ _____ _____    ______ ____
ROOT
ATOM      1  C   UNL     1       2.440   5.941  19.842  0.00  0.00    +0.000 C 
ATOM      2  N   UNL     1       1.685   4.973  20.293  0.00  0.00    +0.000 NA
ENDROOT
BRANCH   1   3
ATOM      3  C   UNL     1       3.732   5.729  19.046  0.00  0.00    +0.000 A 
ATOM      4  C   UNL     1       4.950   5.439  19.663  0.00  0.00    +0.000 A 
ATOM      5  C   UNL     1       6.134   5.276  18.950  0.00  0.00    +0.000 A 
ATOM      6  C   UNL     1       6.108   5.243  17.566  0.00  0.00    +0.000 A 
ATOM      7  C   UNL     1       7.263   4.862  16.876  0.00  0.00    +0.000 A 
ATOM      8  C   UNL     1       7.239   4.737  15.494  0.00  0.00    +0.000 A 
ATOM      9  C   UNL     1       6.080   5.061  14.795  0.00  0.00    +0.000 A 
ATOM     10  C   UNL     1       4.926   5.468  15.478  0.00  0.00    +0.000 A 
ATOM     11  C   UNL     1       4.906   5.526  16.884  0.00  0.00    +0.000 A 
ATOM     12  C   UNL     1       3.737   5.814  17.638  0.00  0.00    +0.000 A 
ENDBRANCH   1   3
BRANCH   1  15
ATOM     13  C   UNL     1       1.178   9.188  21.463  0.00  0.00    +0.000 A 
ATOM     14  C   UNL     1       1.358   7.824  21.209  0.00  0.00    +0.000 A 
ATOM     15  C   UNL     1       1.876   7.348  20.013  0.00  0.00    +0.000 A 
ATOM     16  C   UNL     1       1.891   8.248  18.948  0.00  0.00    +0.000 A 
ATOM     17  C   UNL     1       1.519   9.603  19.120  0.00  0.00    +0.000 A 
ATOM     18  C   UNL     1       1.204  10.102  20.405  0.00  0.00    +0.000 A 
BRANCH  13  20
ATOM     19  C   UNL     1      -0.421   9.546  23.158  0.00  0.00    +0.000 C 
ATOM     20  O   UNL     1       0.959   9.582  22.761  0.00  0.00    +0.000 OA
ENDBRANCH  13  20
BRANCH  17  21
ATOM     21  O   UNL     1       1.561  10.294  17.932  0.00  0.00    +0.000 OA
ATOM     22  C   UNL     1       2.456  11.388  17.798  0.00  0.00    +0.000 C 
ENDBRANCH  17  21
BRANCH  18  23
ATOM     23  O   UNL     1       0.935  11.437  20.508  0.00  0.00    +0.000 OA
ATOM     24  C   UNL     1      -0.382  11.930  20.324  0.00  0.00    +0.000 C 
ENDBRANCH  18  23
ENDBRANCH   1  15
BRANCH   2  25
ATOM     25  N   UNL     1       2.141   3.695  20.283  0.00  0.00    +0.000 N 
ATOM     26  C   UNL     1       1.872   2.799  19.277  0.00  0.00    +0.000 C 
ATOM     27  C   UNL     1       1.080   3.268  18.082  0.00  0.00    +0.000 C 
ATOM     28  O   UNL     1       2.307   1.647  19.343  0.00  0.00    +0.000 OA
ATOM     29  H   UNL     1       2.683   3.338  21.063  0.00  0.00    +0.000 HD
ENDBRANCH   2  25
TORSDOF 6
ENDMDL
