MODEL 1
REMARK VINA RESULT:      -7.0      0.000      0.000
REMARK  Name = 
REMARK  12 active torsions:
REMARK  status: ('A' for Active; 'I' for Inactive)
REMARK    1  A    between atoms: C_1  and  C_2
REMARK    2  A    between atoms: C_2  and  C_4
REMARK    3  A    between atoms: N_6  and  C_7
REMARK    4  A    between atoms: C_7  and  C_8
REMARK    5  A    between atoms: C_8  and  C_9
REMARK    6  A    between atoms: C_9  and  C_10
REMARK    7  A    between atoms: C_9  and  C_11
REMARK    8  A    between atoms: C_14  and  C_15
REMARK    9  A    between atoms: C_22  and  N_23
REMARK   10  A    between atoms: N_23  and  S_24
REMARK   11  A    between atoms: S_24  and  C_25
REMARK   12  A    between atoms: C_32  and  O_33
REMARK                            x       y       z     vdW  Elec       q    Type
REMARK                         _______ _______ _______ _____ _____    ______ ____
ROOT
ATOM      1  C   UNL     1       1.300   8.013  19.788  0.00  0.00    +0.000 C 
ATOM      2  N   UNL     1       1.467   8.069  21.090  0.00  0.00    +0.000 NA
ATOM      3  S   UNL     1       0.788   9.272  21.905  0.00  0.00    +0.000 S 
ATOM      4  O   UNL     1      -0.618   9.017  22.092  0.00  0.00    +0.000 OA
ATOM      5  O   UNL     1       1.640   9.587  23.025  0.00  0.00    +0.000 OA
ATOM      6  C   UNL     1       0.944  10.561  20.749  0.00  0.00    +0.000 A 
ATOM      7  C   UNL     1       1.593  11.757  20.967  0.00  0.00    +0.000 A 
ATOM      8  C   UNL     1       1.292  12.787  20.097  0.00  0.00    +0.000 A 
ATOM      9  C   UNL     1       0.303  12.610  19.119  0.00  0.00    +0.000 A 
ATOM     10  C   UNL     1      -0.145  11.313  18.799  0.00  0.00    +0.000 A 
ATOM     11  C   UNL     1       0.308  10.243  19.559  0.00  0.00    +0.000 A 
ATOM     12  N   UNL     1       0.438   8.901  19.116  0.00  0.00    +0.000 N 
ATOM     13  H   UNL     1      -0.254   8.549  18.462  0.00  0.00    +0.000 HD
ENDROOT
BRANCH   1  19
ATOM     14  C   UNL     1       3.269   4.748  19.156  0.00  0.00    +0.000 A 
ATOM     15  C   UNL     1       4.175   5.121  18.246  0.00  0.00    +0.000 A 
ATOM     16  N   UNL     1       4.183   6.388  17.688  0.00  0.00    +0.000 N 
ATOM     17  C   UNL     1       3.278   7.388  18.088  0.00  0.00    +0.000 A 
ATOM     18  O   UNL     1       3.295   8.534  17.642  0.00  0.00    +0.000 OA
ATOM     19  C   UNL     1       2.251   6.998  19.128  0.00  0.00    +0.000 A 
ATOM     20  C   UNL     1       2.305   5.727  19.616  0.00  0.00    +0.000 A 
BRANCH  14  22
ATOM     21  C   UNL     1       3.642   2.210  18.607  0.00  0.00    +0.000 C 
ATOM     22  C   UNL     1       3.362   3.310  19.600  0.00  0.00    +0.000 C 
ATOM     23  O   UNL     1       3.198   3.024  20.790  0.00  0.00    +0.000 OA
ENDBRANCH  14  22
BRANCH  20  24
ATOM     24  O   UNL     1       1.487   5.234  20.609  0.00  0.00    +0.000 OA
ATOM     25  H   UNL     1       1.936   5.347  21.473  0.00  0.00    +0.000 HD
ENDBRANCH  20  24
BRANCH  16  26
ATOM     26  C   UNL     1       5.207   6.657  16.663  0.00  0.00    +0.000 C 
BRANCH  26  27
ATOM     27  C   UNL     1       6.481   5.800  16.812  0.00  0.00    +0.000 C 
BRANCH  27  28
ATOM     28  C   UNL     1       7.647   6.480  17.553  0.00  0.00    +0.000 C 
ATOM     29  C   UNL     1       7.515   8.001  17.555  0.00  0.00    +0.000 C 
ATOM     30  C   UNL     1       7.712   5.967  18.996  0.00  0.00    +0.000 C 
ENDBRANCH  27  28
ENDBRANCH  26  27
ENDBRANCH  16  26
ENDBRANCH   1  19
BRANCH   8  31
ATOM     31  N   UNL     1       2.054  13.980  20.168  0.00  0.00    +0.000 N 
ATOM     32  H   UNL     1       2.955  14.027  19.693  0.00  0.00    +0.000 HD
BRANCH  31  33
ATOM     33  S   UNL     1       1.965  14.898  21.586  0.00  0.00    +0.000 S 
ATOM     34  C   UNL     1       2.139  16.561  20.975  0.00  0.00    +0.000 C 
ATOM     35  O   UNL     1       0.605  14.759  22.061  0.00  0.00    +0.000 OA
ATOM     36  O   UNL     1       3.098  14.602  22.436  0.00  0.00    +0.000 OA
ENDBRANCH  31  33
ENDBRANCH   8  31
TORSDOF 8
ENDMDL
MODEL 2
REMARK VINA RESULT:      -7.0      1.166      1.287
REMARK  Name = 
REMARK  12 active torsions:
REMARK  status: ('A' for Active; 'I' for Inactive)
REMARK    1  A    between atoms: C_1  and  C_2
REMARK    2  A    between atoms: C_2  and  C_4
REMARK    3  A    between atoms: N_6  and  C_7
REMARK    4  A    between atoms: C_7  and  C_8
REMARK    5  A    between atoms: C_8  and  C_9
REMARK    6  A    between atoms: C_9  and  C_10
REMARK    7  A    between atoms: C_9  and  C_11
REMARK    8  A    between atoms: C_14  and  C_15
REMARK    9  A    between atoms: C_22  and  N_23
REMARK   10  A    between atoms: N_23  and  S_24
REMARK   11  A    between atoms: S_24  and  C_25
REMARK   12  A    between atoms: C_32  and  O_33
REMARK                            x       y       z     vdW  Elec       q    Type
REMARK                         _______ _______ _______ _____ _____    ______ ____
ROOT
ATOM      1  C   UNL     1       1.234   8.021  19.776  0.00  0.00    +0.000 C 
ATOM      2  N   UNL     1       1.436   8.105  21.072  0.00  0.00    +0.000 NA
ATOM      3  S   UNL     1       0.714   9.280  21.891  0.00  0.00    +0.000 S 
ATOM      4  O   UNL     1      -0.669   8.948  22.123  0.00  0.00    +0.000 OA
ATOM      5  O   UNL     1       1.579   9.659  22.981  0.00  0.00    +0.000 OA
ATOM      6  C   UNL     1       0.763  10.559  20.714  0.00  0.00    +0.000 A 
ATOM      7  C   UNL     1       1.349  11.793  20.897  0.00  0.00    +0.000 A 
ATOM      8  C   UNL     1       0.964  12.791  20.023  0.00  0.00    +0.000 A 
ATOM      9  C   UNL     1      -0.042  12.544  19.078  0.00  0.00    +0.000 A 
ATOM     10  C   UNL     1      -0.424  11.219  18.789  0.00  0.00    +0.000 A 
ATOM     11  C   UNL     1       0.110  10.188  19.548  0.00  0.00    +0.000 A 
ATOM     12  N   UNL     1       0.303   8.849  19.119  0.00  0.00    +0.000 N 
ATOM     13  H   UNL     1      -0.386   8.449  18.490  0.00  0.00    +0.000 HD
ENDROOT
BRANCH   1  19
ATOM     14  C   UNL     1       3.313   4.837  19.088  0.00  0.00    +0.000 A 
ATOM     15  C   UNL     1       4.210   5.258  18.191  0.00  0.00    +0.000 A 
ATOM     16  N   UNL     1       4.179   6.535  17.659  0.00  0.00    +0.000 N 
ATOM     17  C   UNL     1       3.238   7.497  18.073  0.00  0.00    +0.000 A 
ATOM     18  O   UNL     1       3.220   8.651  17.651  0.00  0.00    +0.000 OA
ATOM     19  C   UNL     1       2.221   7.051  19.101  0.00  0.00    +0.000 A 
ATOM     20  C   UNL     1       2.316   5.773  19.563  0.00  0.00    +0.000 A 
BRANCH  14  22
ATOM     21  C   UNL     1       3.704   2.314  18.482  0.00  0.00    +0.000 C 
ATOM     22  C   UNL     1       3.452   3.394  19.504  0.00  0.00    +0.000 C 
ATOM     23  O   UNL     1       3.351   3.087  20.697  0.00  0.00    +0.000 OA
ENDBRANCH  14  22
BRANCH  20  24
ATOM     24  O   UNL     1       1.510   5.234  20.542  0.00  0.00    +0.000 OA
ATOM     25  H   UNL     1       1.815   4.322  20.736  0.00  0.00    +0.000 HD
ENDBRANCH  20  24
BRANCH  16  26
ATOM     26  C   UNL     1       5.197   6.858  16.643  0.00  0.00    +0.000 C 
BRANCH  26  27
ATOM     27  C   UNL     1       6.477   6.004  16.748  0.00  0.00    +0.000 C 
BRANCH  27  28
ATOM     28  C   UNL     1       7.650   6.665  17.494  0.00  0.00    +0.000 C 
ATOM     29  C   UNL     1       7.487   8.180  17.590  0.00  0.00    +0.000 C 
ATOM     30  C   UNL     1       7.769   6.070  18.902  0.00  0.00    +0.000 C 
ENDBRANCH  27  28
ENDBRANCH  26  27
ENDBRANCH  16  26
ENDBRANCH   1  19
BRANCH   8  31
ATOM     31  N   UNL     1       1.659  14.026  20.055  0.00  0.00    +0.000 N 
ATOM     32  H   UNL     1       1.134  14.893  20.163  0.00  0.00    +0.000 HD
BRANCH  31  33
ATOM     33  S   UNL     1       3.063  14.172  19.123  0.00  0.00    +0.000 S 
ATOM     34  C   UNL     1       2.766  15.679  18.222  0.00  0.00    +0.000 C 
ATOM     35  O   UNL     1       4.132  14.441  20.059  0.00  0.00    +0.000 OA
ATOM     36  O   UNL     1       3.141  13.081  18.176  0.00  0.00    +0.000 OA
ENDBRANCH  31  33
ENDBRANCH   8  31
TORSDOF 8
ENDMDL
MODEL 3
REMARK VINA RESULT:      -6.9      3.243      8.176
REMARK  Name = 
REMARK  12 active torsions:
REMARK  status: ('A' for Active; 'I' for Inactive)
REMARK    1  A    between atoms: C_1  and  C_2
REMARK    2  A    between atoms: C_2  and  C_4
REMARK    3  A    between atoms: N_6  and  C_7
REMARK    4  A    between atoms: C_7  and  C_8
REMARK    5  A    between atoms: C_8  and  C_9
REMARK    6  A    between atoms: C_9  and  C_10
REMARK    7  A    between atoms: C_9  and  C_11
REMARK    8  A    between atoms: C_14  and  C_15
REMARK    9  A    between atoms: C_22  and  N_23
REMARK   10  A    between atoms: N_23  and  S_24
REMARK   11  A    between atoms: S_24  and  C_25
REMARK   12  A    between atoms: C_32  and  O_33
REMARK                            x       y       z     vdW  Elec       q    Type
REMARK                         _______ _______ _______ _____ _____    ______ ____
ROOT
ATOM      1  C   UNL     1       2.386   6.351  19.828  0.00  0.00    +0.000 C 
ATOM      2  N   UNL     1       1.426   5.572  19.384  0.00  0.00    +0.000 NA
ATOM      3  S   UNL     1       1.784   4.065  18.971  0.00  0.00    +0.000 S 
ATOM      4  O   UNL     1       1.912   3.242  20.148  0.00  0.00    +0.000 OA
ATOM      5  O   UNL     1       0.910   3.680  17.890  0.00  0.00    +0.000 OA
ATOM      6  C   UNL     1       3.374   4.290  18.305  0.00  0.00    +0.000 A 
ATOM      7  C   UNL     1       3.762   3.952  17.027  0.00  0.00    +0.000 A 
ATOM      8  C   UNL     1       5.121   3.849  16.804  0.00  0.00    +0.000 A 
ATOM      9  C   UNL     1       6.018   3.993  17.873  0.00  0.00    +0.000 A 
ATOM     10  C   UNL     1       5.581   4.564  19.084  0.00  0.00    +0.000 A 
ATOM     11  C   UNL     1       4.231   4.847  19.242  0.00  0.00    +0.000 A 
ATOM     12  N   UNL     1       3.683   5.858  20.073  0.00  0.00    +0.000 N 
ATOM     13  H   UNL     1       4.147   6.050  20.956  0.00  0.00    +0.000 HD
ENDROOT
BRANCH   1  19
ATOM     14  C   UNL     1       0.723   9.609  21.074  0.00  0.00    +0.000 A 
ATOM     15  C   UNL     1       0.800  10.408  20.004  0.00  0.00    +0.000 A 
ATOM     16  N   UNL     1       1.459  10.031  18.847  0.00  0.00    +0.000 N 
ATOM     17  C   UNL     1       2.038   8.757  18.696  0.00  0.00    +0.000 A 
ATOM     18  O   UNL     1       2.586   8.382  17.662  0.00  0.00    +0.000 OA
ATOM     19  C   UNL     1       1.950   7.827  19.886  0.00  0.00    +0.000 A 
ATOM     20  C   UNL     1       1.295   8.282  20.990  0.00  0.00    +0.000 A 
BRANCH  14  22
ATOM     21  C   UNL     1      -1.019  11.277  22.107  0.00  0.00    +0.000 C 
ATOM     22  C   UNL     1       0.033  10.210  22.273  0.00  0.00    +0.000 C 
ATOM     23  O   UNL     1       0.336   9.831  23.409  0.00  0.00    +0.000 OA
ENDBRANCH  14  22
BRANCH  20  24
ATOM     24  O   UNL     1       1.073   7.539  22.130  0.00  0.00    +0.000 OA
ATOM     25  H   UNL     1       0.233   7.045  22.027  0.00  0.00    +0.000 HD
ENDBRANCH  20  24
BRANCH  16  26
ATOM     26  C   UNL     1       1.510  11.022  17.758  0.00  0.00    +0.000 C 
BRANCH  26  27
ATOM     27  C   UNL     1       2.566  12.127  17.968  0.00  0.00    +0.000 C 
BRANCH  27  28
ATOM     28  C   UNL     1       2.016  13.476  18.468  0.00  0.00    +0.000 C 
ATOM     29  C   UNL     1       0.491  13.528  18.412  0.00  0.00    +0.000 C 
ATOM     30  C   UNL     1       2.487  13.726  19.905  0.00  0.00    +0.000 C 
ENDBRANCH  27  28
ENDBRANCH  26  27
ENDBRANCH  16  26
ENDBRANCH   1  19
BRANCH   8  31
ATOM     31  N   UNL     1       5.580   3.675  15.474  0.00  0.00    +0.000 N 
ATOM     32  H   UNL     1       5.843   2.744  15.153  0.00  0.00    +0.000 HD
BRANCH  31  33
ATOM     33  S   UNL     1       6.465   4.932  14.768  0.00  0.00    +0.000 S 
ATOM     34  C   UNL     1       6.607   4.393  13.077  0.00  0.00    +0.000 C 
ATOM     35  O   UNL     1       5.589   6.083  14.775  0.00  0.00    +0.000 OA
ATOM     36  O   UNL     1       7.791   4.985  15.344  0.00  0.00    +0.000 OA
ENDBRANCH  31  33
ENDBRANCH   8  31
TORSDOF 8
ENDMDL
MODEL 4
REMARK VINA RESULT:      -6.9      3.381      8.496
REMARK  Name = 
REMARK  12 active torsions:
REMARK  status: ('A' for Active; 'I' for Inactive)
REMARK    1  A    between atoms: C_1  and  C_2
REMARK    2  A    between atoms: C_2  and  C_4
REMARK    3  A    between atoms: N_6  and  C_7
REMARK    4  A    between atoms: C_7  and  C_8
REMARK    5  A    between atoms: C_8  and  C_9
REMARK    6  A    between atoms: C_9  and  C_10
REMARK    7  A    between atoms: C_9  and  C_11
REMARK    8  A    between atoms: C_14  and  C_15
REMARK    9  A    between atoms: C_22  and  N_23
REMARK   10  A    between atoms: N_23  and  S_24
REMARK   11  A    between atoms: S_24  and  C_25
REMARK   12  A    between atoms: C_32  and  O_33
REMARK                            x       y       z     vdW  Elec       q    Type
REMARK                         _______ _______ _______ _____ _____    ______ ____
ROOT
ATOM      1  C   UNL     1       2.384   6.454  20.057  0.00  0.00    +0.000 C 
ATOM      2  N   UNL     1       1.548   5.458  19.866  0.00  0.00    +0.000 NA
ATOM      3  S   UNL     1       2.142   3.995  19.586  0.00  0.00    +0.000 S 
ATOM      4  O   UNL     1       2.585   3.392  20.818  0.00  0.00    +0.000 OA
ATOM      5  O   UNL     1       1.229   3.304  18.710  0.00  0.00    +0.000 OA
ATOM      6  C   UNL     1       3.555   4.402  18.657  0.00  0.00    +0.000 A 
ATOM      7  C   UNL     1       3.831   3.953  17.383  0.00  0.00    +0.000 A 
ATOM      8  C   UNL     1       5.143   4.064  16.964  0.00  0.00    +0.000 A 
ATOM      9  C   UNL     1       6.125   4.523  17.853  0.00  0.00    +0.000 A 
ATOM     10  C   UNL     1       5.745   5.179  19.041  0.00  0.00    +0.000 A 
ATOM     11  C   UNL     1       4.399   5.236  19.373  0.00  0.00    +0.000 A 
ATOM     12  N   UNL     1       3.774   6.243  20.153  0.00  0.00    +0.000 N 
ATOM     13  H   UNL     1       4.302   6.644  20.922  0.00  0.00    +0.000 HD
ENDROOT
BRANCH   1  19
ATOM     14  C   UNL     1       0.473   9.609  21.209  0.00  0.00    +0.000 A 
ATOM     15  C   UNL     1       0.076  10.152  20.053  0.00  0.00    +0.000 A 
ATOM     16  N   UNL     1       0.452   9.633  18.826  0.00  0.00    +0.000 N 
ATOM     17  C   UNL     1       1.226   8.464  18.712  0.00  0.00    +0.000 A 
ATOM     18  O   UNL     1       1.532   7.958  17.634  0.00  0.00    +0.000 OA
ATOM     19  C   UNL     1       1.675   7.820  20.005  0.00  0.00    +0.000 A 
ATOM     20  C   UNL     1       1.271   8.402  21.169  0.00  0.00    +0.000 A 
BRANCH  14  22
ATOM     21  C   UNL     1      -0.770  11.620  22.346  0.00  0.00    +0.000 C 
ATOM     22  C   UNL     1       0.031  10.347  22.447  0.00  0.00    +0.000 C 
ATOM     23  O   UNL     1       0.335   9.910  23.562  0.00  0.00    +0.000 OA
ENDBRANCH  14  22
BRANCH  20  24
ATOM     24  O   UNL     1       1.540   7.906  22.426  0.00  0.00    +0.000 OA
ATOM     25  H   UNL     1       1.986   8.603  22.952  0.00  0.00    +0.000 HD
ENDBRANCH  20  24
BRANCH  16  26
ATOM     26  C   UNL     1      -0.017  10.353  17.628  0.00  0.00    +0.000 C 
BRANCH  26  27
ATOM     27  C   UNL     1      -1.455  10.898  17.748  0.00  0.00    +0.000 C 
BRANCH  27  28
ATOM     28  C   UNL     1      -2.557   9.968  17.209  0.00  0.00    +0.000 C 
ATOM     29  C   UNL     1      -3.936  10.346  17.745  0.00  0.00    +0.000 C 
ATOM     30  C   UNL     1      -2.570  10.014  15.677  0.00  0.00    +0.000 C 
ENDBRANCH  27  28
ENDBRANCH  26  27
ENDBRANCH  16  26
ENDBRANCH   1  19
BRANCH   8  31
ATOM     31  N   UNL     1       5.448   3.780  15.609  0.00  0.00    +0.000 N 
ATOM     32  H   UNL     1       5.550   2.811  15.311  0.00  0.00    +0.000 HD
BRANCH  31  33
ATOM     33  S   UNL     1       6.428   4.874  14.770  0.00  0.00    +0.000 S 
ATOM     34  C   UNL     1       6.448   4.185  13.128  0.00  0.00    +0.000 C 
ATOM     35  O   UNL     1       5.675   6.108  14.704  0.00  0.00    +0.000 OA
ATOM     36  O   UNL     1       7.775   4.835  15.298  0.00  0.00    +0.000 OA
ENDBRANCH  31  33
ENDBRANCH   8  31
TORSDOF 8
ENDMDL
MODEL 5
REMARK VINA RESULT:      -6.9      0.883      1.310
REMARK  Name = 
REMARK  12 active torsions:
REMARK  status: ('A' for Active; 'I' for Inactive)
REMARK    1  A    between atoms: C_1  and  C_2
REMARK    2  A    between atoms: C_2  and  C_4
REMARK    3  A    between atoms: N_6  and  C_7
REMARK    4  A    between atoms: C_7  and  C_8
REMARK    5  A    between atoms: C_8  and  C_9
REMARK    6  A    between atoms: C_9  and  C_10
REMARK    7  A    between atoms: C_9  and  C_11
REMARK    8  A    between atoms: C_14  and  C_15
REMARK    9  A    between atoms: C_22  and  N_23
REMARK   10  A    between atoms: N_23  and  S_24
REMARK   11  A    between atoms: S_24  and  C_25
REMARK   12  A    between atoms: C_32  and  O_33
REMARK                            x       y       z     vdW  Elec       q    Type
REMARK                         _______ _______ _______ _____ _____    ______ ____
ROOT
ATOM      1  C   UNL     1       1.337   7.984  19.793  0.00  0.00    +0.000 C 
ATOM      2  N   UNL     1       1.471   8.058  21.098  0.00  0.00    +0.000 NA
ATOM      3  S   UNL     1       0.778   9.276  21.878  0.00  0.00    +0.000 S 
ATOM      4  O   UNL     1      -0.634   9.031  22.033  0.00  0.00    +0.000 OA
ATOM      5  O   UNL     1       1.603   9.604  23.014  0.00  0.00    +0.000 OA
ATOM      6  C   UNL     1       0.970  10.548  20.707  0.00  0.00    +0.000 A 
ATOM      7  C   UNL     1       1.620  11.744  20.924  0.00  0.00    +0.000 A 
ATOM      8  C   UNL     1       1.346  12.762  20.032  0.00  0.00    +0.000 A 
ATOM      9  C   UNL     1       0.381  12.575  19.032  0.00  0.00    +0.000 A 
ATOM     10  C   UNL     1      -0.065  11.276  18.720  0.00  0.00    +0.000 A 
ATOM     11  C   UNL     1       0.362  10.215  19.506  0.00  0.00    +0.000 A 
ATOM     12  N   UNL     1       0.496   8.866  19.086  0.00  0.00    +0.000 N 
ATOM     13  H   UNL     1      -0.181   8.507  18.420  0.00  0.00    +0.000 HD
ENDROOT
BRANCH   1  19
ATOM     14  C   UNL     1       3.286   4.692  19.245  0.00  0.00    +0.000 A 
ATOM     15  C   UNL     1       4.230   5.050  18.368  0.00  0.00    +0.000 A 
ATOM     16  N   UNL     1       4.275   6.315  17.807  0.00  0.00    +0.000 N 
ATOM     17  C   UNL     1       3.368   7.328  18.169  0.00  0.00    +0.000 A 
ATOM     18  O   UNL     1       3.416   8.471  17.721  0.00  0.00    +0.000 OA
ATOM     19  C   UNL     1       2.299   6.954  19.173  0.00  0.00    +0.000 A 
ATOM     20  C   UNL     1       2.319   5.684  19.666  0.00  0.00    +0.000 A 
BRANCH  14  22
ATOM     21  C   UNL     1       3.578   2.141  18.709  0.00  0.00    +0.000 C 
ATOM     22  C   UNL     1       3.344   3.255  19.698  0.00  0.00    +0.000 C 
ATOM     23  O   UNL     1       3.191   2.981  20.892  0.00  0.00    +0.000 OA
ENDBRANCH  14  22
BRANCH  20  24
ATOM     24  O   UNL     1       1.458   5.206  20.630  0.00  0.00    +0.000 OA
ATOM     25  H   UNL     1       1.810   4.359  20.976  0.00  0.00    +0.000 HD
ENDBRANCH  20  24
BRANCH  16  26
ATOM     26  C   UNL     1       5.339   6.566  16.819  0.00  0.00    +0.000 C 
BRANCH  26  27
ATOM     27  C   UNL     1       5.152   5.804  15.491  0.00  0.00    +0.000 C 
BRANCH  27  28
ATOM     28  C   UNL     1       5.859   4.439  15.411  0.00  0.00    +0.000 C 
ATOM     29  C   UNL     1       6.142   4.025  13.968  0.00  0.00    +0.000 C 
ATOM     30  C   UNL     1       7.172   4.489  16.200  0.00  0.00    +0.000 C 
ENDBRANCH  27  28
ENDBRANCH  26  27
ENDBRANCH  16  26
ENDBRANCH   1  19
BRANCH   8  31
ATOM     31  N   UNL     1       2.113  13.952  20.104  0.00  0.00    +0.000 N 
ATOM     32  H   UNL     1       3.017  13.994  19.636  0.00  0.00    +0.000 HD
BRANCH  31  33
ATOM     33  S   UNL     1       2.018  14.874  21.520  0.00  0.00    +0.000 S 
ATOM     34  C   UNL     1       2.282  16.528  20.914  0.00  0.00    +0.000 C 
ATOM     35  O   UNL     1       0.639  14.794  21.950  0.00  0.00    +0.000 OA
ATOM     36  O   UNL     1       3.110  14.531  22.405  0.00  0.00    +0.000 OA
ENDBRANCH  31  33
ENDBRANCH   8  31
TORSDOF 8
ENDMDL
MODEL 6
REMARK VINA RESULT:      -6.8      2.372      4.066
REMARK  Name = 
REMARK  12 active torsions:
REMARK  status: ('A' for Active; 'I' for Inactive)
REMARK    1  A    between atoms: C_1  and  C_2
REMARK    2  A    between atoms: C_2  and  C_4
REMARK    3  A    between atoms: N_6  and  C_7
REMARK    4  A    between atoms: C_7  and  C_8
REMARK    5  A    between atoms: C_8  and  C_9
REMARK    6  A    between atoms: C_9  and  C_10
REMARK    7  A    between atoms: C_9  and  C_11
REMARK    8  A    between atoms: C_14  and  C_15
REMARK    9  A    between atoms: C_22  and  N_23
REMARK   10  A    between atoms: N_23  and  S_24
REMARK   11  A    between atoms: S_24  and  C_25
REMARK   12  A    between atoms: C_32  and  O_33
REMARK                            x       y       z     vdW  Elec       q    Type
REMARK                         _______ _______ _______ _____ _____    ______ ____
ROOT
ATOM      1  C   UNL     1       1.505   9.672  18.697  0.00  0.00    +0.000 C 
ATOM      2  N   UNL     1       0.410   9.804  19.412  0.00  0.00    +0.000 NA
ATOM      3  S   UNL     1      -0.227  11.266  19.587  0.00  0.00    +0.000 S 
ATOM      4  O   UNL     1      -0.952  11.639  18.398  0.00  0.00    +0.000 OA
ATOM      5  O   UNL     1      -0.850  11.327  20.886  0.00  0.00    +0.000 OA
ATOM      6  C   UNL     1       1.218  12.232  19.652  0.00  0.00    +0.000 A 
ATOM      7  C   UNL     1       1.574  13.068  20.687  0.00  0.00    +0.000 A 
ATOM      8  C   UNL     1       2.533  14.022  20.404  0.00  0.00    +0.000 A 
ATOM      9  C   UNL     1       3.019  14.159  19.096  0.00  0.00    +0.000 A 
ATOM     10  C   UNL     1       2.795  13.135  18.153  0.00  0.00    +0.000 A 
ATOM     11  C   UNL     1       1.977  12.070  18.504  0.00  0.00    +0.000 A 
ATOM     12  N   UNL     1       2.052  10.754  17.979  0.00  0.00    +0.000 N 
ATOM     13  H   UNL     1       2.302  10.646  17.001  0.00  0.00    +0.000 HD
ENDROOT
BRANCH   1  19
ATOM     14  C   UNL     1       3.486   6.448  17.916  0.00  0.00    +0.000 A 
ATOM     15  C   UNL     1       3.132   5.634  18.917  0.00  0.00    +0.000 A 
ATOM     16  N   UNL     1       2.327   6.055  19.961  0.00  0.00    +0.000 N 
ATOM     17  C   UNL     1       1.777   7.349  20.009  0.00  0.00    +0.000 A 
ATOM     18  O   UNL     1       1.022   7.731  20.901  0.00  0.00    +0.000 OA
ATOM     19  C   UNL     1       2.148   8.286  18.880  0.00  0.00    +0.000 A 
ATOM     20  C   UNL     1       2.955   7.795  17.898  0.00  0.00    +0.000 A 
BRANCH  14  22
ATOM     21  C   UNL     1       4.623   4.353  16.820  0.00  0.00    +0.000 C 
ATOM     22  C   UNL     1       4.427   5.845  16.903  0.00  0.00    +0.000 C 
ATOM     23  O   UNL     1       5.054   6.582  16.134  0.00  0.00    +0.000 OA
ENDBRANCH  14  22
BRANCH  20  24
ATOM     24  O   UNL     1       3.333   8.496  16.773  0.00  0.00    +0.000 OA
ATOM     25  H   UNL     1       4.004   9.164  17.028  0.00  0.00    +0.000 HD
ENDBRANCH  20  24
BRANCH  16  26
ATOM     26  C   UNL     1       2.050   5.072  21.024  0.00  0.00    +0.000 C 
BRANCH  26  27
ATOM     27  C   UNL     1       1.024   3.992  20.625  0.00  0.00    +0.000 C 
BRANCH  27  28
ATOM     28  C   UNL     1       1.551   2.546  20.640  0.00  0.00    +0.000 C 
ATOM     29  C   UNL     1       1.889   2.046  19.237  0.00  0.00    +0.000 C 
ATOM     30  C   UNL     1       2.795   2.458  21.532  0.00  0.00    +0.000 C 
ENDBRANCH  27  28
ENDBRANCH  26  27
ENDBRANCH  16  26
ENDBRANCH   1  19
BRANCH   8  31
ATOM     31  N   UNL     1       3.061  14.792  21.471  0.00  0.00    +0.000 N 
ATOM     32  H   UNL     1       2.718  15.740  21.621  0.00  0.00    +0.000 HD
BRANCH  31  33
ATOM     33  S   UNL     1       4.684  14.562  21.890  0.00  0.00    +0.000 S 
ATOM     34  C   UNL     1       4.884  15.680  23.261  0.00  0.00    +0.000 C 
ATOM     35  O   UNL     1       4.767  13.219  22.421  0.00  0.00    +0.000 OA
ATOM     36  O   UNL     1       5.538  15.005  20.810  0.00  0.00    +0.000 OA
ENDBRANCH  31  33
ENDBRANCH   8  31
TORSDOF 8
ENDMDL
MODEL 7
REMARK VINA RESULT:      -6.8      2.166      3.847
REMARK  Name = 
REMARK  12 active torsions:
REMARK  status: ('A' for Active; 'I' for Inactive)
REMARK    1  A    between atoms: C_1  and  C_2
REMARK    2  A    between atoms: C_2  and  C_4
REMARK    3  A    between atoms: N_6  and  C_7
REMARK    4  A    between atoms: C_7  and  C_8
REMARK    5  A    between atoms: C_8  and  C_9
REMARK    6  A    between atoms: C_9  and  C_10
REMARK    7  A    between atoms: C_9  and  C_11
REMARK    8  A    between atoms: C_14  and  C_15
REMARK    9  A    between atoms: C_22  and  N_23
REMARK   10  A    between atoms: N_23  and  S_24
REMARK   11  A    between atoms: S_24  and  C_25
REMARK   12  A    between atoms: C_32  and  O_33
REMARK                            x       y       z     vdW  Elec       q    Type
REMARK                         _______ _______ _______ _____ _____    ______ ____
ROOT
ATOM      1  C   UNL     1       1.494   9.516  18.696  0.00  0.00    +0.000 C 
ATOM      2  N   UNL     1       0.396   9.611  19.413  0.00  0.00    +0.000 NA
ATOM      3  S   UNL     1      -0.292  11.049  19.584  0.00  0.00    +0.000 S 
ATOM      4  O   UNL     1      -1.034  11.392  18.397  0.00  0.00    +0.000 OA
ATOM      5  O   UNL     1      -0.914  11.092  20.885  0.00  0.00    +0.000 OA
ATOM      6  C   UNL     1       1.116  12.067  19.643  0.00  0.00    +0.000 A 
ATOM      7  C   UNL     1       1.445  12.919  20.675  0.00  0.00    +0.000 A 
ATOM      8  C   UNL     1       2.367  13.906  20.385  0.00  0.00    +0.000 A 
ATOM      9  C   UNL     1       2.845  14.056  19.075  0.00  0.00    +0.000 A 
ATOM     10  C   UNL     1       2.656  13.022  18.137  0.00  0.00    +0.000 A 
ATOM     11  C   UNL     1       1.878  11.929  18.493  0.00  0.00    +0.000 A 
ATOM     12  N   UNL     1       2.000  10.615  17.973  0.00  0.00    +0.000 N 
ATOM     13  H   UNL     1       2.251  10.513  16.994  0.00  0.00    +0.000 HD
ENDROOT
BRANCH   1  19
ATOM     14  C   UNL     1       3.572   6.354  17.913  0.00  0.00    +0.000 A 
ATOM     15  C   UNL     1       3.263   5.539  18.927  0.00  0.00    +0.000 A 
ATOM     16  N   UNL     1       2.462   5.943  19.981  0.00  0.00    +0.000 N 
ATOM     17  C   UNL     1       1.868   7.218  20.025  0.00  0.00    +0.000 A 
ATOM     18  O   UNL     1       1.115   7.583  20.926  0.00  0.00    +0.000 OA
ATOM     19  C   UNL     1       2.188   8.155  18.881  0.00  0.00    +0.000 A 
ATOM     20  C   UNL     1       2.995   7.682  17.891  0.00  0.00    +0.000 A 
BRANCH  14  22
ATOM     21  C   UNL     1       4.638   4.282  16.708  0.00  0.00    +0.000 C 
ATOM     22  C   UNL     1       4.516   5.773  16.890  0.00  0.00    +0.000 C 
ATOM     23  O   UNL     1       5.207   6.527  16.196  0.00  0.00    +0.000 OA
ENDBRANCH  14  22
BRANCH  20  24
ATOM     24  O   UNL     1       3.330   8.383  16.753  0.00  0.00    +0.000 OA
ATOM     25  H   UNL     1       2.847   7.999  15.991  0.00  0.00    +0.000 HD
ENDBRANCH  20  24
BRANCH  16  26
ATOM     26  C   UNL     1       2.236   4.962  21.058  0.00  0.00    +0.000 C 
BRANCH  26  27
ATOM     27  C   UNL     1       1.126   3.937  20.748  0.00  0.00    +0.000 C 
BRANCH  27  28
ATOM     28  C   UNL     1       1.619   2.559  20.270  0.00  0.00    +0.000 C 
ATOM     29  C   UNL     1       1.278   2.307  18.803  0.00  0.00    +0.000 C 
ATOM     30  C   UNL     1       3.134   2.452  20.472  0.00  0.00    +0.000 C 
ENDBRANCH  27  28
ENDBRANCH  26  27
ENDBRANCH  16  26
ENDBRANCH   1  19
BRANCH   8  31
ATOM     31  N   UNL     1       2.870  14.698  21.449  0.00  0.00    +0.000 N 
ATOM     32  H   UNL     1       3.394  14.252  22.200  0.00  0.00    +0.000 HD
BRANCH  31  33
ATOM     33  S   UNL     1       1.966  16.044  21.933  0.00  0.00    +0.000 S 
ATOM     34  C   UNL     1       3.156  17.363  21.814  0.00  0.00    +0.000 C 
ATOM     35  O   UNL     1       0.988  16.259  20.889  0.00  0.00    +0.000 OA
ATOM     36  O   UNL     1       1.577  15.903  23.319  0.00  0.00    +0.000 OA
ENDBRANCH  31  33
ENDBRANCH   8  31
TORSDOF 8
ENDMDL
MODEL 8
REMARK VINA RESULT:      -6.8      3.508      8.243
REMARK  Name = 
REMARK  12 active torsions:
REMARK  status: ('A' for Active; 'I' for Inactive)
REMARK    1  A    between atoms: C_1  and  C_2
REMARK    2  A    between atoms: C_2  and  C_4
REMARK    3  A    between atoms: N_6  and  C_7
REMARK    4  A    between atoms: C_7  and  C_8
REMARK    5  A    between atoms: C_8  and  C_9
REMARK    6  A    between atoms: C_9  and  C_10
REMARK    7  A    between atoms: C_9  and  C_11
REMARK    8  A    between atoms: C_14  and  C_15
REMARK    9  A    between atoms: C_22  and  N_23
REMARK   10  A    between atoms: N_23  and  S_24
REMARK   11  A    between atoms: S_24  and  C_25
REMARK   12  A    between atoms: C_32  and  O_33
REMARK                            x       y       z     vdW  Elec       q    Type
REMARK                         _______ _______ _______ _____ _____    ______ ____
ROOT
ATOM      1  C   UNL     1       3.005   6.055  19.367  0.00  0.00    +0.000 C 
ATOM      2  N   UNL     1       2.327   5.239  18.592  0.00  0.00    +0.000 NA
ATOM      3  S   UNL     1       3.031   3.888  18.090  0.00  0.00    +0.000 S 
ATOM      4  O   UNL     1       3.025   2.902  19.141  0.00  0.00    +0.000 OA
ATOM      5  O   UNL     1       2.516   3.578  16.779  0.00  0.00    +0.000 OA
ATOM      6  C   UNL     1       4.668   4.442  17.892  0.00  0.00    +0.000 A 
ATOM      7  C   UNL     1       5.396   4.385  16.723  0.00  0.00    +0.000 A 
ATOM      8  C   UNL     1       6.767   4.509  16.847  0.00  0.00    +0.000 A 
ATOM      9  C   UNL     1       7.350   4.591  18.120  0.00  0.00    +0.000 A 
ATOM     10  C   UNL     1       6.549   4.880  19.242  0.00  0.00    +0.000 A 
ATOM     11  C   UNL     1       5.171   4.943  19.083  0.00  0.00    +0.000 A 
ATOM     12  N   UNL     1       4.275   5.710  19.871  0.00  0.00    +0.000 N 
ATOM     13  H   UNL     1       4.479   5.810  20.860  0.00  0.00    +0.000 HD
ENDROOT
BRANCH   1  19
ATOM     14  C   UNL     1       0.696   8.849  20.708  0.00  0.00    +0.000 A 
ATOM     15  C   UNL     1       0.726   9.754  19.723  0.00  0.00    +0.000 A 
ATOM     16  N   UNL     1       1.538   9.610  18.612  0.00  0.00    +0.000 N 
ATOM     17  C   UNL     1       2.342   8.472  18.414  0.00  0.00    +0.000 A 
ATOM     18  O   UNL     1       3.036   8.300  17.414  0.00  0.00    +0.000 OA
ATOM     19  C   UNL     1       2.315   7.424  19.505  0.00  0.00    +0.000 A 
ATOM     20  C   UNL     1       1.496   7.650  20.571  0.00  0.00    +0.000 A 
BRANCH  14  22
ATOM     21  C   UNL     1      -0.321  10.629  22.345  0.00  0.00    +0.000 C 
ATOM     22  C   UNL     1      -0.190   9.202  21.875  0.00  0.00    +0.000 C 
ATOM     23  O   UNL     1      -0.813   8.312  22.464  0.00  0.00    +0.000 OA
ENDBRANCH  14  22
BRANCH  20  24
ATOM     24  O   UNL     1       1.309   6.769  21.614  0.00  0.00    +0.000 OA
ATOM     25  H   UNL     1       0.575   7.095  22.175  0.00  0.00    +0.000 HD
ENDBRANCH  20  24
BRANCH  16  26
ATOM     26  C   UNL     1       1.511  10.702  17.623  0.00  0.00    +0.000 C 
BRANCH  26  27
ATOM     27  C   UNL     1       2.508  11.840  17.919  0.00  0.00    +0.000 C 
BRANCH  27  28
ATOM     28  C   UNL     1       1.938  13.021  18.727  0.00  0.00    +0.000 C 
ATOM     29  C   UNL     1       2.659  14.330  18.413  0.00  0.00    +0.000 C 
ATOM     30  C   UNL     1       0.441  13.174  18.433  0.00  0.00    +0.000 C 
ENDBRANCH  27  28
ENDBRANCH  26  27
ENDBRANCH  16  26
ENDBRANCH   1  19
BRANCH   8  31
ATOM     31  N   UNL     1       7.546   4.631  15.669  0.00  0.00    +0.000 N 
ATOM     32  H   UNL     1       8.533   4.869  15.745  0.00  0.00    +0.000 HD
BRANCH  31  33
ATOM     33  S   UNL     1       6.791   5.223  14.275  0.00  0.00    +0.000 S 
ATOM     34  C   UNL     1       6.006   3.765  13.621  0.00  0.00    +0.000 C 
ATOM     35  O   UNL     1       5.739   6.101  14.738  0.00  0.00    +0.000 OA
ATOM     36  O   UNL     1       7.789   5.669  13.327  0.00  0.00    +0.000 OA
ENDBRANCH  31  33
ENDBRANCH   8  31
TORSDOF 8
ENDMDL
MODEL 9
REMARK VINA RESULT:      -6.8      1.411      1.788
REMARK  Name = 
REMARK  12 active torsions:
REMARK  status: ('A' for Active; 'I' for Inactive)
REMARK    1  A    between atoms: C_1  and  C_2
REMARK    2  A    between atoms: C_2  and  C_4
REMARK    3  A    between atoms: N_6  and  C_7
REMARK    4  A    between atoms: C_7  and  C_8
REMARK    5  A    between atoms: C_8  and  C_9
REMARK    6  A    between atoms: C_9  and  C_10
REMARK    7  A    between atoms: C_9  and  C_11
REMARK    8  A    between atoms: C_14  and  C_15
REMARK    9  A    between atoms: C_22  and  N_23
REMARK   10  A    between atoms: N_23  and  S_24
REMARK   11  A    between atoms: S_24  and  C_25
REMARK   12  A    between atoms: C_32  and  O_33
REMARK                            x       y       z     vdW  Elec       q    Type
REMARK                         _______ _______ _______ _____ _____    ______ ____
ROOT
ATOM      1  C   UNL     1       1.122   8.115  19.995  0.00  0.00    +0.000 C 
ATOM      2  N   UNL     1       1.366   8.233  21.280  0.00  0.00    +0.000 NA
ATOM      3  S   UNL     1       0.680   9.436  22.089  0.00  0.00    +0.000 S 
ATOM      4  O   UNL     1      -0.698   9.123  22.375  0.00  0.00    +0.000 OA
ATOM      5  O   UNL     1       1.582   9.838  23.140  0.00  0.00    +0.000 OA
ATOM      6  C   UNL     1       0.699  10.682  20.876  0.00  0.00    +0.000 A 
ATOM      7  C   UNL     1       1.300  11.915  21.005  0.00  0.00    +0.000 A 
ATOM      8  C   UNL     1       0.894  12.892  20.117  0.00  0.00    +0.000 A 
ATOM      9  C   UNL     1      -0.143  12.627  19.211  0.00  0.00    +0.000 A 
ATOM     10  C   UNL     1      -0.544  11.298  18.972  0.00  0.00    +0.000 A 
ATOM     11  C   UNL     1       0.007  10.284  19.743  0.00  0.00    +0.000 A 
ATOM     12  N   UNL     1       0.176   8.932  19.345  0.00  0.00    +0.000 N 
ATOM     13  H   UNL     1      -0.536   8.520  18.750  0.00  0.00    +0.000 HD
ENDROOT
BRANCH   1  19
ATOM     14  C   UNL     1       3.177   4.907  19.345  0.00  0.00    +0.000 A 
ATOM     15  C   UNL     1       4.030   5.291  18.390  0.00  0.00    +0.000 A 
ATOM     16  N   UNL     1       3.970   6.545  17.807  0.00  0.00    +0.000 N 
ATOM     17  C   UNL     1       3.047   7.522  18.224  0.00  0.00    +0.000 A 
ATOM     18  O   UNL     1       3.005   8.658  17.755  0.00  0.00    +0.000 OA
ATOM     19  C   UNL     1       2.080   7.119  19.316  0.00  0.00    +0.000 A 
ATOM     20  C   UNL     1       2.199   5.861  19.826  0.00  0.00    +0.000 A 
BRANCH  14  22
ATOM     21  C   UNL     1       4.659   2.767  19.673  0.00  0.00    +0.000 C 
ATOM     22  C   UNL     1       3.339   3.483  19.814  0.00  0.00    +0.000 C 
ATOM     23  O   UNL     1       2.378   2.888  20.313  0.00  0.00    +0.000 OA
ENDBRANCH  14  22
BRANCH  20  24
ATOM     24  O   UNL     1       1.441   5.363  20.863  0.00  0.00    +0.000 OA
ATOM     25  H   UNL     1       2.041   5.069  21.581  0.00  0.00    +0.000 HD
ENDBRANCH  20  24
BRANCH  16  26
ATOM     26  C   UNL     1       4.939   6.826  16.733  0.00  0.00    +0.000 C 
BRANCH  26  27
ATOM     27  C   UNL     1       5.124   5.663  15.737  0.00  0.00    +0.000 C 
BRANCH  27  28
ATOM     28  C   UNL     1       6.581   5.226  15.499  0.00  0.00    +0.000 C 
ATOM     29  C   UNL     1       7.187   4.556  16.730  0.00  0.00    +0.000 C 
ATOM     30  C   UNL     1       6.645   4.265  14.306  0.00  0.00    +0.000 C 
ENDBRANCH  27  28
ENDBRANCH  26  27
ENDBRANCH  16  26
ENDBRANCH   1  19
BRANCH   8  31
ATOM     31  N   UNL     1       1.600  14.122  20.092  0.00  0.00    +0.000 N 
ATOM     32  H   UNL     1       1.079  14.997  20.112  0.00  0.00    +0.000 HD
BRANCH  31  33
ATOM     33  S   UNL     1       3.047  14.191  19.218  0.00  0.00    +0.000 S 
ATOM     34  C   UNL     1       2.912  15.758  18.383  0.00  0.00    +0.000 C 
ATOM     35  O   UNL     1       4.097  14.324  20.204  0.00  0.00    +0.000 OA
ATOM     36  O   UNL     1       3.071  13.142  18.222  0.00  0.00    +0.000 OA
ENDBRANCH  31  33
ENDBRANCH   8  31
TORSDOF 8
ENDMDL
