MODEL 1
REMARK VINA RESULT:      -8.6      0.000      0.000
REMARK  Name = 
REMARK  7 active torsions:
REMARK  status: ('A' for Active; 'I' for Inactive)
REMARK    1  A    between atoms: C_1  and  C_2
REMARK    2  A    between atoms: C_5  and  C_6
REMARK    3  A    between atoms: C_12  and  C_13
REMARK    4  A    between atoms: C_13  and  C_14
REMARK    5  A    between atoms: C_14  and  C_15
REMARK    6  A    between atoms: N_17  and  C_18
REMARK    7  A    between atoms: C_18  and  C_19
REMARK                            x       y       z     vdW  Elec       q    Type
REMARK                         _______ _______ _______ _____ _____    ______ ____
ROOT
ATOM      1  C   UNL     1       4.710   3.970  17.872  0.00  0.00    +0.000 C 
ATOM      2  O   UNL     1       4.965   3.031  17.114  0.00  0.00    +0.000 OA
ATOM      3  N   UNL     1       3.655   3.931  18.786  0.00  0.00    +0.000 N 
ATOM      4  C   UNL     1       2.884   2.694  18.895  0.00  0.00    +0.000 C 
ATOM      5  C   UNL     1       1.390   2.983  18.794  0.00  0.00    +0.000 C 
ATOM      6  C   UNL     1       0.957   4.043  19.809  0.00  0.00    +0.000 C 
ATOM      7  C   UNL     1       1.831   5.313  19.718  0.00  0.00    +0.000 C 
ATOM      8  C   UNL     1       3.316   4.921  19.811  0.00  0.00    +0.000 C 
ENDROOT
BRANCH   1  13
ATOM      9  C   UNL     1       8.152   8.545  17.584  0.00  0.00    +0.000 C 
ATOM     10  C   UNL     1       7.292   7.324  17.678  0.00  0.00    +0.000 A 
ATOM     11  C   UNL     1       7.620   6.268  18.523  0.00  0.00    +0.000 A 
ATOM     12  C   UNL     1       6.772   5.163  18.581  0.00  0.00    +0.000 A 
ATOM     13  C   UNL     1       5.622   5.134  17.791  0.00  0.00    +0.000 A 
ATOM     14  C   UNL     1       5.430   6.187  16.913  0.00  0.00    +0.000 A 
ATOM     15  N   UNL     1       6.204   7.298  16.870  0.00  0.00    +0.000 NA
ENDBRANCH   1  13
BRANCH   7  16
ATOM     16  C   UNL     1       1.427   6.310  20.820  0.00  0.00    +0.000 C 
BRANCH  16  17
ATOM     17  C   UNL     1       1.850   7.761  20.554  0.00  0.00    +0.000 C 
BRANCH  17  18
ATOM     18  C   UNL     1       0.706   8.728  20.808  0.00  0.00    +0.000 C 
ATOM     19  O   UNL     1      -0.208   8.488  21.578  0.00  0.00    +0.000 OA
ATOM     20  N   UNL     1       0.810   9.903  20.099  0.00  0.00    +0.000 N 
ATOM     21  H   UNL     1       1.565  10.027  19.436  0.00  0.00    +0.000 HD
BRANCH  20  22
ATOM     22  C   UNL     1      -0.196  10.934  20.203  0.00  0.00    +0.000 C 
BRANCH  22  23
ATOM     23  C   UNL     1      -1.206  10.845  19.088  0.00  0.00    +0.000 A 
ATOM     24  C   UNL     1      -0.964  10.051  17.954  0.00  0.00    +0.000 A 
ATOM     25  C   UNL     1      -1.927   9.942  16.945  0.00  0.00    +0.000 A 
ATOM     26  C   UNL     1      -3.128  10.634  17.060  0.00  0.00    +0.000 A 
ATOM     27  F   UNL     1      -4.051  10.514  16.097  0.00  0.00    +0.000 F 
ATOM     28  C   UNL     1      -3.370  11.438  18.167  0.00  0.00    +0.000 A 
ATOM     29  F   UNL     1      -4.527  12.105  18.275  0.00  0.00    +0.000 F 
ATOM     30  C   UNL     1      -2.416  11.553  19.176  0.00  0.00    +0.000 A 
ENDBRANCH  22  23
ENDBRANCH  20  22
ENDBRANCH  17  18
ENDBRANCH  16  17
ENDBRANCH   7  16
TORSDOF 6
ENDMDL
MODEL 2
REMARK VINA RESULT:      -8.2      5.756      9.966
REMARK  Name = 
REMARK  7 active torsions:
REMARK  status: ('A' for Active; 'I' for Inactive)
REMARK    1  A    between atoms: C_1  and  C_2
REMARK    2  A    between atoms: C_5  and  C_6
REMARK    3  A    between atoms: C_12  and  C_13
REMARK    4  A    between atoms: C_13  and  C_14
REMARK    5  A    between atoms: C_14  and  C_15
REMARK    6  A    between atoms: N_17  and  C_18
REMARK    7  A    between atoms: C_18  and  C_19
REMARK                            x       y       z     vdW  Elec       q    Type
REMARK                         _______ _______ _______ _____ _____    ______ ____
ROOT
ATOM      1  C   UNL     1       8.983  14.906  19.375  0.00  0.00    +0.000 C 
ATOM      2  O   UNL     1       9.559  15.996  19.356  0.00  0.00    +0.000 OA
ATOM      3  N   UNL     1       9.661  13.702  19.578  0.00  0.00    +0.000 N 
ATOM      4  C   UNL     1      11.094  13.758  19.860  0.00  0.00    +0.000 C 
ATOM      5  C   UNL     1      11.859  12.811  18.942  0.00  0.00    +0.000 C 
ATOM      6  C   UNL     1      11.296  11.390  19.014  0.00  0.00    +0.000 C 
ATOM      7  C   UNL     1       9.770  11.366  18.779  0.00  0.00    +0.000 C 
ATOM      8  C   UNL     1       9.089  12.362  19.734  0.00  0.00    +0.000 C 
ENDROOT
BRANCH   1  13
ATOM      9  C   UNL     1       3.286  15.169  18.793  0.00  0.00    +0.000 C 
ATOM     10  C   UNL     1       4.775  15.074  18.902  0.00  0.00    +0.000 A 
ATOM     11  C   UNL     1       5.567  14.786  17.795  0.00  0.00    +0.000 A 
ATOM     12  C   UNL     1       6.952  14.726  17.954  0.00  0.00    +0.000 A 
ATOM     13  C   UNL     1       7.511  14.947  19.213  0.00  0.00    +0.000 A 
ATOM     14  C   UNL     1       6.638  15.131  20.271  0.00  0.00    +0.000 A 
ATOM     15  N   UNL     1       5.294  15.248  20.142  0.00  0.00    +0.000 NA
ENDBRANCH   1  13
BRANCH   7  16
ATOM     16  C   UNL     1       9.232   9.935  18.959  0.00  0.00    +0.000 C 
BRANCH  16  17
ATOM     17  C   UNL     1       8.248   9.481  17.872  0.00  0.00    +0.000 C 
BRANCH  17  18
ATOM     18  C   UNL     1       7.980   7.988  17.954  0.00  0.00    +0.000 C 
ATOM     19  O   UNL     1       8.448   7.276  18.826  0.00  0.00    +0.000 OA
ATOM     20  N   UNL     1       7.148   7.522  16.962  0.00  0.00    +0.000 N 
ATOM     21  H   UNL     1       6.830   8.149  16.235  0.00  0.00    +0.000 HD
BRANCH  20  22
ATOM     22  C   UNL     1       6.796   6.124  16.873  0.00  0.00    +0.000 C 
BRANCH  22  23
ATOM     23  C   UNL     1       5.513   5.822  17.607  0.00  0.00    +0.000 A 
ATOM     24  C   UNL     1       4.373   6.626  17.432  0.00  0.00    +0.000 A 
ATOM     25  C   UNL     1       3.177   6.312  18.086  0.00  0.00    +0.000 A 
ATOM     26  C   UNL     1       3.120   5.202  18.924  0.00  0.00    +0.000 A 
ATOM     27  F   UNL     1       1.966   4.900  19.535  0.00  0.00    +0.000 F 
ATOM     28  C   UNL     1       4.246   4.413  19.119  0.00  0.00    +0.000 A 
ATOM     29  F   UNL     1       4.188   3.346  19.927  0.00  0.00    +0.000 F 
ATOM     30  C   UNL     1       5.441   4.719  18.472  0.00  0.00    +0.000 A 
ENDBRANCH  22  23
ENDBRANCH  20  22
ENDBRANCH  17  18
ENDBRANCH  16  17
ENDBRANCH   7  16
TORSDOF 6
ENDMDL
MODEL 3
REMARK VINA RESULT:      -8.2      4.146     10.107
REMARK  Name = 
REMARK  7 active torsions:
REMARK  status: ('A' for Active; 'I' for Inactive)
REMARK    1  A    between atoms: C_1  and  C_2
REMARK    2  A    between atoms: C_5  and  C_6
REMARK    3  A    between atoms: C_12  and  C_13
REMARK    4  A    between atoms: C_13  and  C_14
REMARK    5  A    between atoms: C_14  and  C_15
REMARK    6  A    between atoms: N_17  and  C_18
REMARK    7  A    between atoms: C_18  and  C_19
REMARK                            x       y       z     vdW  Elec       q    Type
REMARK                         _______ _______ _______ _____ _____    ______ ____
ROOT
ATOM      1  C   UNL     1      -4.971  11.715  17.816  0.00  0.00    +0.000 C 
ATOM      2  O   UNL     1      -5.736  11.764  16.850  0.00  0.00    +0.000 OA
ATOM      3  N   UNL     1      -3.615  11.405  17.683  0.00  0.00    +0.000 N 
ATOM      4  C   UNL     1      -3.081  11.215  16.336  0.00  0.00    +0.000 C 
ATOM      5  C   UNL     1      -2.302   9.907  16.248  0.00  0.00    +0.000 C 
ATOM      6  C   UNL     1      -1.224   9.826  17.331  0.00  0.00    +0.000 C 
ATOM      7  C   UNL     1      -1.802  10.098  18.736  0.00  0.00    +0.000 C 
ATOM      8  C   UNL     1      -2.583  11.424  18.722  0.00  0.00    +0.000 C 
ENDROOT
BRANCH   1  13
ATOM      9  C   UNL     1      -7.211  12.927  22.951  0.00  0.00    +0.000 C 
ATOM     10  C   UNL     1      -6.622  12.660  21.601  0.00  0.00    +0.000 A 
ATOM     11  C   UNL     1      -5.872  13.623  20.934  0.00  0.00    +0.000 A 
ATOM     12  C   UNL     1      -5.334  13.312  19.685  0.00  0.00    +0.000 A 
ATOM     13  C   UNL     1      -5.563  12.051  19.131  0.00  0.00    +0.000 A 
ATOM     14  C   UNL     1      -6.399  11.196  19.826  0.00  0.00    +0.000 A 
ATOM     15  N   UNL     1      -6.893  11.447  21.063  0.00  0.00    +0.000 NA
ENDBRANCH   1  13
BRANCH   7  16
ATOM     16  C   UNL     1      -0.670  10.106  19.779  0.00  0.00    +0.000 C 
BRANCH  16  17
ATOM     17  C   UNL     1       0.741   9.955  19.192  0.00  0.00    +0.000 C 
BRANCH  17  18
ATOM     18  C   UNL     1       1.505   8.827  19.865  0.00  0.00    +0.000 C 
ATOM     19  O   UNL     1       1.521   8.665  21.074  0.00  0.00    +0.000 OA
ATOM     20  N   UNL     1       2.159   8.000  18.982  0.00  0.00    +0.000 N 
ATOM     21  H   UNL     1       2.151   8.212  17.992  0.00  0.00    +0.000 HD
BRANCH  20  22
ATOM     22  C   UNL     1       2.949   6.883  19.444  0.00  0.00    +0.000 C 
BRANCH  22  23
ATOM     23  C   UNL     1       2.252   5.568  19.205  0.00  0.00    +0.000 A 
ATOM     24  C   UNL     1       2.181   5.009  17.918  0.00  0.00    +0.000 A 
ATOM     25  C   UNL     1       1.568   3.768  17.715  0.00  0.00    +0.000 A 
ATOM     26  C   UNL     1       1.015   3.087  18.796  0.00  0.00    +0.000 A 
ATOM     27  F   UNL     1       0.443   1.893  18.596  0.00  0.00    +0.000 F 
ATOM     28  C   UNL     1       1.062   3.639  20.069  0.00  0.00    +0.000 A 
ATOM     29  F   UNL     1       0.529   2.982  21.108  0.00  0.00    +0.000 F 
ATOM     30  C   UNL     1       1.670   4.875  20.280  0.00  0.00    +0.000 A 
ENDBRANCH  22  23
ENDBRANCH  20  22
ENDBRANCH  17  18
ENDBRANCH  16  17
ENDBRANCH   7  16
TORSDOF 6
ENDMDL
MODEL 4
REMARK VINA RESULT:      -8.2      1.661      2.148
REMARK  Name = 
REMARK  7 active torsions:
REMARK  status: ('A' for Active; 'I' for Inactive)
REMARK    1  A    between atoms: C_1  and  C_2
REMARK    2  A    between atoms: C_5  and  C_6
REMARK    3  A    between atoms: C_12  and  C_13
REMARK    4  A    between atoms: C_13  and  C_14
REMARK    5  A    between atoms: C_14  and  C_15
REMARK    6  A    between atoms: N_17  and  C_18
REMARK    7  A    between atoms: C_18  and  C_19
REMARK                            x       y       z     vdW  Elec       q    Type
REMARK                         _______ _______ _______ _____ _____    ______ ____
ROOT
ATOM      1  C   UNL     1       4.108   3.181  18.611  0.00  0.00    +0.000 C 
ATOM      2  O   UNL     1       4.051   1.953  18.695  0.00  0.00    +0.000 OA
ATOM      3  N   UNL     1       3.435   4.026  19.496  0.00  0.00    +0.000 N 
ATOM      4  C   UNL     1       2.707   3.418  20.608  0.00  0.00    +0.000 C 
ATOM      5  C   UNL     1       1.281   3.956  20.674  0.00  0.00    +0.000 C 
ATOM      6  C   UNL     1       1.265   5.486  20.720  0.00  0.00    +0.000 C 
ATOM      7  C   UNL     1       2.096   6.102  19.574  0.00  0.00    +0.000 C 
ATOM      8  C   UNL     1       3.507   5.487  19.576  0.00  0.00    +0.000 C 
ENDROOT
BRANCH   1  13
ATOM      9  C   UNL     1       7.383   5.336  14.428  0.00  0.00    +0.000 C 
ATOM     10  C   UNL     1       6.569   4.765  15.547  0.00  0.00    +0.000 A 
ATOM     11  C   UNL     1       7.071   4.689  16.843  0.00  0.00    +0.000 A 
ATOM     12  C   UNL     1       6.261   4.162  17.849  0.00  0.00    +0.000 A 
ATOM     13  C   UNL     1       4.975   3.718  17.536  0.00  0.00    +0.000 A 
ATOM     14  C   UNL     1       4.601   3.747  16.204  0.00  0.00    +0.000 A 
ATOM     15  N   UNL     1       5.341   4.301  15.214  0.00  0.00    +0.000 NA
ENDBRANCH   1  13
BRANCH   7  16
ATOM     16  C   UNL     1       2.134   7.634  19.716  0.00  0.00    +0.000 C 
BRANCH  16  17
ATOM     17  C   UNL     1       1.371   8.182  20.930  0.00  0.00    +0.000 C 
BRANCH  17  18
ATOM     18  C   UNL     1       0.762   9.543  20.635  0.00  0.00    +0.000 C 
ATOM     19  O   UNL     1       0.238  10.235  21.490  0.00  0.00    +0.000 OA
ATOM     20  N   UNL     1       0.875   9.923  19.317  0.00  0.00    +0.000 N 
ATOM     21  H   UNL     1       1.276   9.286  18.641  0.00  0.00    +0.000 HD
BRANCH  20  22
ATOM     22  C   UNL     1       0.340  11.181  18.850  0.00  0.00    +0.000 C 
BRANCH  22  23
ATOM     23  C   UNL     1      -1.107  11.056  18.443  0.00  0.00    +0.000 A 
ATOM     24  C   UNL     1      -2.100  11.845  19.048  0.00  0.00    +0.000 A 
ATOM     25  C   UNL     1      -3.432  11.751  18.633  0.00  0.00    +0.000 A 
ATOM     26  C   UNL     1      -3.778  10.861  17.620  0.00  0.00    +0.000 A 
ATOM     27  F   UNL     1      -5.054  10.787  17.219  0.00  0.00    +0.000 F 
ATOM     28  C   UNL     1      -2.808  10.062  17.029  0.00  0.00    +0.000 A 
ATOM     29  F   UNL     1      -3.144   9.205  16.056  0.00  0.00    +0.000 F 
ATOM     30  C   UNL     1      -1.479  10.149  17.437  0.00  0.00    +0.000 A 
ENDBRANCH  22  23
ENDBRANCH  20  22
ENDBRANCH  17  18
ENDBRANCH  16  17
ENDBRANCH   7  16
TORSDOF 6
ENDMDL
MODEL 5
REMARK VINA RESULT:      -8.1      1.574      1.903
REMARK  Name = 
REMARK  7 active torsions:
REMARK  status: ('A' for Active; 'I' for Inactive)
REMARK    1  A    between atoms: C_1  and  C_2
REMARK    2  A    between atoms: C_5  and  C_6
REMARK    3  A    between atoms: C_12  and  C_13
REMARK    4  A    between atoms: C_13  and  C_14
REMARK    5  A    between atoms: C_14  and  C_15
REMARK    6  A    between atoms: N_17  and  C_18
REMARK    7  A    between atoms: C_18  and  C_19
REMARK                            x       y       z     vdW  Elec       q    Type
REMARK                         _______ _______ _______ _____ _____    ______ ____
ROOT
ATOM      1  C   UNL     1       4.206   3.259  18.636  0.00  0.00    +0.000 C 
ATOM      2  O   UNL     1       4.216   2.032  18.761  0.00  0.00    +0.000 OA
ATOM      3  N   UNL     1       3.501   4.095  19.504  0.00  0.00    +0.000 N 
ATOM      4  C   UNL     1       2.822   3.487  20.647  0.00  0.00    +0.000 C 
ATOM      5  C   UNL     1       1.371   3.951  20.718  0.00  0.00    +0.000 C 
ATOM      6  C   UNL     1       1.273   5.477  20.715  0.00  0.00    +0.000 C 
ATOM      7  C   UNL     1       2.054   6.099  19.536  0.00  0.00    +0.000 C 
ATOM      8  C   UNL     1       3.496   5.560  19.537  0.00  0.00    +0.000 C 
ENDROOT
BRANCH   1  13
ATOM      9  C   UNL     1       7.458   5.291  14.376  0.00  0.00    +0.000 C 
ATOM     10  C   UNL     1       6.568   4.775  15.463  0.00  0.00    +0.000 A 
ATOM     11  C   UNL     1       5.230   4.479  15.225  0.00  0.00    +0.000 A 
ATOM     12  C   UNL     1       4.452   3.985  16.273  0.00  0.00    +0.000 A 
ATOM     13  C   UNL     1       5.027   3.805  17.532  0.00  0.00    +0.000 A 
ATOM     14  C   UNL     1       6.338   4.217  17.694  0.00  0.00    +0.000 A 
ATOM     15  N   UNL     1       7.135   4.650  16.687  0.00  0.00    +0.000 NA
ENDBRANCH   1  13
BRANCH   7  16
ATOM     16  C   UNL     1       2.012   7.634  19.628  0.00  0.00    +0.000 C 
BRANCH  16  17
ATOM     17  C   UNL     1       1.769   8.184  21.041  0.00  0.00    +0.000 C 
BRANCH  17  18
ATOM     18  C   UNL     1       0.546   9.085  21.084  0.00  0.00    +0.000 C 
ATOM     19  O   UNL     1      -0.444   8.830  21.749  0.00  0.00    +0.000 OA
ATOM     20  N   UNL     1       0.670  10.219  20.316  0.00  0.00    +0.000 N 
ATOM     21  H   UNL     1       1.495  10.354  19.745  0.00  0.00    +0.000 HD
BRANCH  20  22
ATOM     22  C   UNL     1      -0.400  11.185  20.223  0.00  0.00    +0.000 C 
BRANCH  22  23
ATOM     23  C   UNL     1      -1.270  10.942  19.016  0.00  0.00    +0.000 A 
ATOM     24  C   UNL     1      -0.868  10.058  18.000  0.00  0.00    +0.000 A 
ATOM     25  C   UNL     1      -1.702   9.808  16.905  0.00  0.00    +0.000 A 
ATOM     26  C   UNL     1      -2.934  10.448  16.817  0.00  0.00    +0.000 A 
ATOM     27  F   UNL     1      -3.734  10.193  15.772  0.00  0.00    +0.000 F 
ATOM     28  C   UNL     1      -3.333  11.340  17.805  0.00  0.00    +0.000 A 
ATOM     29  F   UNL     1      -4.519  11.956  17.717  0.00  0.00    +0.000 F 
ATOM     30  C   UNL     1      -2.508  11.594  18.898  0.00  0.00    +0.000 A 
ENDBRANCH  22  23
ENDBRANCH  20  22
ENDBRANCH  17  18
ENDBRANCH  16  17
ENDBRANCH   7  16
TORSDOF 6
ENDMDL
MODEL 6
REMARK VINA RESULT:      -8.1      1.597      2.152
REMARK  Name = 
REMARK  7 active torsions:
REMARK  status: ('A' for Active; 'I' for Inactive)
REMARK    1  A    between atoms: C_1  and  C_2
REMARK    2  A    between atoms: C_5  and  C_6
REMARK    3  A    between atoms: C_12  and  C_13
REMARK    4  A    between atoms: C_13  and  C_14
REMARK    5  A    between atoms: C_14  and  C_15
REMARK    6  A    between atoms: N_17  and  C_18
REMARK    7  A    between atoms: C_18  and  C_19
REMARK                            x       y       z     vdW  Elec       q    Type
REMARK                         _______ _______ _______ _____ _____    ______ ____
ROOT
ATOM      1  C   UNL     1       6.477   4.934  17.962  0.00  0.00    +0.000 C 
ATOM      2  O   UNL     1       7.220   3.987  17.698  0.00  0.00    +0.000 OA
ATOM      3  N   UNL     1       5.119   4.767  18.245  0.00  0.00    +0.000 N 
ATOM      4  C   UNL     1       4.592   3.405  18.307  0.00  0.00    +0.000 C 
ATOM      5  C   UNL     1       3.343   3.273  17.442  0.00  0.00    +0.000 C 
ATOM      6  C   UNL     1       2.299   4.331  17.805  0.00  0.00    +0.000 C 
ATOM      7  C   UNL     1       2.898   5.754  17.798  0.00  0.00    +0.000 C 
ATOM      8  C   UNL     1       4.159   5.784  18.680  0.00  0.00    +0.000 C 
ENDROOT
BRANCH   1  13
ATOM      9  C   UNL     1       8.858  10.145  18.150  0.00  0.00    +0.000 C 
ATOM     10  C   UNL     1       8.275   8.767  18.127  0.00  0.00    +0.000 A 
ATOM     11  C   UNL     1       8.659   7.802  19.054  0.00  0.00    +0.000 A 
ATOM     12  C   UNL     1       8.069   6.539  18.994  0.00  0.00    +0.000 A 
ATOM     13  C   UNL     1       7.118   6.268  18.009  0.00  0.00    +0.000 A 
ATOM     14  C   UNL     1       6.874   7.260  17.075  0.00  0.00    +0.000 A 
ATOM     15  N   UNL     1       7.387   8.512  17.136  0.00  0.00    +0.000 NA
ENDBRANCH   1  13
BRANCH   7  16
ATOM     16  C   UNL     1       1.843   6.772  18.265  0.00  0.00    +0.000 C 
BRANCH  16  17
ATOM     17  C   UNL     1       2.197   8.238  17.976  0.00  0.00    +0.000 C 
BRANCH  17  18
ATOM     18  C   UNL     1       1.386   9.186  18.841  0.00  0.00    +0.000 C 
ATOM     19  O   UNL     1       1.297   9.070  20.052  0.00  0.00    +0.000 OA
ATOM     20  N   UNL     1       0.777  10.196  18.132  0.00  0.00    +0.000 N 
ATOM     21  H   UNL     1       0.844  10.215  17.122  0.00  0.00    +0.000 HD
BRANCH  20  22
ATOM     22  C   UNL     1      -0.048  11.183  18.789  0.00  0.00    +0.000 C 
BRANCH  22  23
ATOM     23  C   UNL     1      -1.487  11.094  18.345  0.00  0.00    +0.000 A 
ATOM     24  C   UNL     1      -2.490  11.839  18.988  0.00  0.00    +0.000 A 
ATOM     25  C   UNL     1      -3.814  11.782  18.541  0.00  0.00    +0.000 A 
ATOM     26  C   UNL     1      -4.141  10.971  17.458  0.00  0.00    +0.000 A 
ATOM     27  F   UNL     1      -5.409  10.932  17.027  0.00  0.00    +0.000 F 
ATOM     28  C   UNL     1      -3.162  10.215  16.828  0.00  0.00    +0.000 A 
ATOM     29  F   UNL     1      -3.480   9.435  15.786  0.00  0.00    +0.000 F 
ATOM     30  C   UNL     1      -1.841  10.266  17.267  0.00  0.00    +0.000 A 
ENDBRANCH  22  23
ENDBRANCH  20  22
ENDBRANCH  17  18
ENDBRANCH  16  17
ENDBRANCH   7  16
TORSDOF 6
ENDMDL
MODEL 7
REMARK VINA RESULT:      -8.1      4.125      9.908
REMARK  Name = 
REMARK  7 active torsions:
REMARK  status: ('A' for Active; 'I' for Inactive)
REMARK    1  A    between atoms: C_1  and  C_2
REMARK    2  A    between atoms: C_5  and  C_6
REMARK    3  A    between atoms: C_12  and  C_13
REMARK    4  A    between atoms: C_13  and  C_14
REMARK    5  A    between atoms: C_14  and  C_15
REMARK    6  A    between atoms: N_17  and  C_18
REMARK    7  A    between atoms: C_18  and  C_19
REMARK                            x       y       z     vdW  Elec       q    Type
REMARK                         _______ _______ _______ _____ _____    ______ ____
ROOT
ATOM      1  C   UNL     1      -4.394  12.460  19.826  0.00  0.00    +0.000 C 
ATOM      2  O   UNL     1      -5.596  12.381  19.563  0.00  0.00    +0.000 OA
ATOM      3  N   UNL     1      -3.407  11.924  18.996  0.00  0.00    +0.000 N 
ATOM      4  C   UNL     1      -3.825  11.323  17.730  0.00  0.00    +0.000 C 
ATOM      5  C   UNL     1      -3.221   9.932  17.572  0.00  0.00    +0.000 C 
ATOM      6  C   UNL     1      -1.700   9.962  17.741  0.00  0.00    +0.000 C 
ATOM      7  C   UNL     1      -1.284  10.662  19.053  0.00  0.00    +0.000 C 
ATOM      8  C   UNL     1      -1.954  12.045  19.131  0.00  0.00    +0.000 C 
ENDROOT
BRANCH   1  13
ATOM      9  C   UNL     1      -2.959  15.267  24.614  0.00  0.00    +0.000 C 
ATOM     10  C   UNL     1      -3.353  14.577  23.345  0.00  0.00    +0.000 A 
ATOM     11  C   UNL     1      -3.593  15.291  22.176  0.00  0.00    +0.000 A 
ATOM     12  C   UNL     1      -3.941  14.592  21.019  0.00  0.00    +0.000 A 
ATOM     13  C   UNL     1      -4.047  13.201  21.061  0.00  0.00    +0.000 A 
ATOM     14  C   UNL     1      -3.883  12.589  22.291  0.00  0.00    +0.000 A 
ATOM     15  N   UNL     1      -3.493  13.231  23.418  0.00  0.00    +0.000 NA
ENDBRANCH   1  13
BRANCH   7  16
ATOM     16  C   UNL     1       0.250  10.758  19.134  0.00  0.00    +0.000 C 
BRANCH  16  17
ATOM     17  C   UNL     1       1.002   9.733  18.273  0.00  0.00    +0.000 C 
BRANCH  17  18
ATOM     18  C   UNL     1       1.653   8.660  19.130  0.00  0.00    +0.000 C 
ATOM     19  O   UNL     1       1.448   8.551  20.327  0.00  0.00    +0.000 OA
ATOM     20  N   UNL     1       2.480   7.818  18.423  0.00  0.00    +0.000 N 
ATOM     21  H   UNL     1       2.651   7.986  17.440  0.00  0.00    +0.000 HD
BRANCH  20  22
ATOM     22  C   UNL     1       3.196   6.747  19.076  0.00  0.00    +0.000 C 
BRANCH  22  23
ATOM     23  C   UNL     1       2.452   5.438  18.985  0.00  0.00    +0.000 A 
ATOM     24  C   UNL     1       2.317   4.767  17.757  0.00  0.00    +0.000 A 
ATOM     25  C   UNL     1       1.661   3.533  17.691  0.00  0.00    +0.000 A 
ATOM     26  C   UNL     1       1.130   2.972  18.849  0.00  0.00    +0.000 A 
ATOM     27  F   UNL     1       0.516   1.783  18.780  0.00  0.00    +0.000 F 
ATOM     28  C   UNL     1       1.240   3.636  20.063  0.00  0.00    +0.000 A 
ATOM     29  F   UNL     1       0.727   3.095  21.176  0.00  0.00    +0.000 F 
ATOM     30  C   UNL     1       1.891   4.866  20.138  0.00  0.00    +0.000 A 
ENDBRANCH  22  23
ENDBRANCH  20  22
ENDBRANCH  17  18
ENDBRANCH  16  17
ENDBRANCH   7  16
TORSDOF 6
ENDMDL
MODEL 8
REMARK VINA RESULT:      -8.1      2.903      3.860
REMARK  Name = 
REMARK  7 active torsions:
REMARK  status: ('A' for Active; 'I' for Inactive)
REMARK    1  A    between atoms: C_1  and  C_2
REMARK    2  A    between atoms: C_5  and  C_6
REMARK    3  A    between atoms: C_12  and  C_13
REMARK    4  A    between atoms: C_13  and  C_14
REMARK    5  A    between atoms: C_14  and  C_15
REMARK    6  A    between atoms: N_17  and  C_18
REMARK    7  A    between atoms: C_18  and  C_19
REMARK                            x       y       z     vdW  Elec       q    Type
REMARK                         _______ _______ _______ _____ _____    ______ ____
ROOT
ATOM      1  C   UNL     1       5.118   4.429  18.107  0.00  0.00    +0.000 C 
ATOM      2  O   UNL     1       5.415   3.399  18.716  0.00  0.00    +0.000 OA
ATOM      3  N   UNL     1       4.273   5.402  18.644  0.00  0.00    +0.000 N 
ATOM      4  C   UNL     1       3.797   5.220  20.015  0.00  0.00    +0.000 C 
ATOM      5  C   UNL     1       2.282   5.381  20.082  0.00  0.00    +0.000 C 
ATOM      6  C   UNL     1       1.835   6.711  19.471  0.00  0.00    +0.000 C 
ATOM      7  C   UNL     1       2.407   6.909  18.050  0.00  0.00    +0.000 C 
ATOM      8  C   UNL     1       3.933   6.710  18.080  0.00  0.00    +0.000 C 
ENDROOT
BRANCH   1  13
ATOM      9  C   UNL     1       7.649   5.037  12.999  0.00  0.00    +0.000 C 
ATOM     10  C   UNL     1       6.944   4.874  14.309  0.00  0.00    +0.000 A 
ATOM     11  C   UNL     1       5.683   4.292  14.387  0.00  0.00    +0.000 A 
ATOM     12  C   UNL     1       5.081   4.151  15.638  0.00  0.00    +0.000 A 
ATOM     13  C   UNL     1       5.749   4.601  16.778  0.00  0.00    +0.000 A 
ATOM     14  C   UNL     1       6.956   5.251  16.590  0.00  0.00    +0.000 A 
ATOM     15  N   UNL     1       7.591   5.356  15.398  0.00  0.00    +0.000 NA
ENDBRANCH   1  13
BRANCH   7  16
ATOM     16  C   UNL     1       2.017   8.298  17.515  0.00  0.00    +0.000 C 
BRANCH  16  17
ATOM     17  C   UNL     1       2.005   9.411  18.573  0.00  0.00    +0.000 C 
BRANCH  17  18
ATOM     18  C   UNL     1       0.726  10.228  18.505  0.00  0.00    +0.000 C 
ATOM     19  O   UNL     1      -0.273   9.851  17.916  0.00  0.00    +0.000 OA
ATOM     20  N   UNL     1       0.798  11.422  19.185  0.00  0.00    +0.000 N 
ATOM     21  H   UNL     1       1.669  11.706  19.615  0.00  0.00    +0.000 HD
BRANCH  20  22
ATOM     22  C   UNL     1      -0.320  12.336  19.217  0.00  0.00    +0.000 C 
BRANCH  22  23
ATOM     23  C   UNL     1      -1.079  12.248  20.517  0.00  0.00    +0.000 A 
ATOM     24  C   UNL     1      -2.248  12.999  20.725  0.00  0.00    +0.000 A 
ATOM     25  C   UNL     1      -2.967  12.877  21.919  0.00  0.00    +0.000 A 
ATOM     26  C   UNL     1      -2.514  12.013  22.911  0.00  0.00    +0.000 A 
ATOM     27  F   UNL     1      -3.216  11.891  24.046  0.00  0.00    +0.000 F 
ATOM     28  C   UNL     1      -1.348  11.282  22.725  0.00  0.00    +0.000 A 
ATOM     29  F   UNL     1      -0.914  10.452  23.682  0.00  0.00    +0.000 F 
ATOM     30  C   UNL     1      -0.626  11.398  21.539  0.00  0.00    +0.000 A 
ENDBRANCH  22  23
ENDBRANCH  20  22
ENDBRANCH  17  18
ENDBRANCH  16  17
ENDBRANCH   7  16
TORSDOF 6
ENDMDL
MODEL 9
REMARK VINA RESULT:      -8.0      4.271     10.214
REMARK  Name = 
REMARK  7 active torsions:
REMARK  status: ('A' for Active; 'I' for Inactive)
REMARK    1  A    between atoms: C_1  and  C_2
REMARK    2  A    between atoms: C_5  and  C_6
REMARK    3  A    between atoms: C_12  and  C_13
REMARK    4  A    between atoms: C_13  and  C_14
REMARK    5  A    between atoms: C_14  and  C_15
REMARK    6  A    between atoms: N_17  and  C_18
REMARK    7  A    between atoms: C_18  and  C_19
REMARK                            x       y       z     vdW  Elec       q    Type
REMARK                         _______ _______ _______ _____ _____    ______ ____
ROOT
ATOM      1  C   UNL     1      -5.084  11.718  18.506  0.00  0.00    +0.000 C 
ATOM      2  O   UNL     1      -6.140  11.542  17.893  0.00  0.00    +0.000 OA
ATOM      3  N   UNL     1      -3.835  11.446  17.943  0.00  0.00    +0.000 N 
ATOM      4  C   UNL     1      -3.788  11.015  16.547  0.00  0.00    +0.000 C 
ATOM      5  C   UNL     1      -2.949   9.750  16.404  0.00  0.00    +0.000 C 
ATOM      6  C   UNL     1      -1.558   9.932  17.016  0.00  0.00    +0.000 C 
ATOM      7  C   UNL     1      -1.635  10.452  18.468  0.00  0.00    +0.000 C 
ATOM      8  C   UNL     1      -2.514  11.714  18.514  0.00  0.00    +0.000 C 
ENDROOT
BRANCH   1  13
ATOM      9  C   UNL     1      -5.556  13.803  23.824  0.00  0.00    +0.000 C 
ATOM     10  C   UNL     1      -5.414  13.303  22.421  0.00  0.00    +0.000 A 
ATOM     11  C   UNL     1      -4.533  13.899  21.524  0.00  0.00    +0.000 A 
ATOM     12  C   UNL     1      -4.430  13.379  20.234  0.00  0.00    +0.000 A 
ATOM     13  C   UNL     1      -5.212  12.283  19.869  0.00  0.00    +0.000 A 
ATOM     14  C   UNL     1      -6.127  11.820  20.798  0.00  0.00    +0.000 A 
ATOM     15  N   UNL     1      -6.214  12.266  22.074  0.00  0.00    +0.000 NA
ENDBRANCH   1  13
BRANCH   7  16
ATOM     16  C   UNL     1      -0.218  10.715  19.008  0.00  0.00    +0.000 C 
BRANCH  16  17
ATOM     17  C   UNL     1       0.537   9.457  19.462  0.00  0.00    +0.000 C 
BRANCH  17  18
ATOM     18  C   UNL     1       1.641   9.089  18.485  0.00  0.00    +0.000 C 
ATOM     19  O   UNL     1       2.009   9.829  17.589  0.00  0.00    +0.000 OA
ATOM     20  N   UNL     1       2.193   7.851  18.719  0.00  0.00    +0.000 N 
ATOM     21  H   UNL     1       1.814   7.258  19.447  0.00  0.00    +0.000 HD
BRANCH  20  22
ATOM     22  C   UNL     1       3.246   7.328  17.880  0.00  0.00    +0.000 C 
BRANCH  22  23
ATOM     23  C   UNL     1       3.166   5.827  17.752  0.00  0.00    +0.000 A 
ATOM     24  C   UNL     1       4.279   5.076  17.338  0.00  0.00    +0.000 A 
ATOM     25  C   UNL     1       4.206   3.681  17.263  0.00  0.00    +0.000 A 
ATOM     26  C   UNL     1       3.018   3.034  17.591  0.00  0.00    +0.000 A 
ATOM     27  F   UNL     1       2.960   1.697  17.531  0.00  0.00    +0.000 F 
ATOM     28  C   UNL     1       1.906   3.768  17.982  0.00  0.00    +0.000 A 
ATOM     29  F   UNL     1       0.763   3.144  18.296  0.00  0.00    +0.000 F 
ATOM     30  C   UNL     1       1.970   5.158  18.058  0.00  0.00    +0.000 A 
ENDBRANCH  22  23
ENDBRANCH  20  22
ENDBRANCH  17  18
ENDBRANCH  16  17
ENDBRANCH   7  16
TORSDOF 6
ENDMDL
