MODEL 1
REMARK VINA RESULT:      -7.6      0.000      0.000
REMARK  Name = 
REMARK  11 active torsions:
REMARK  status: ('A' for Active; 'I' for Inactive)
REMARK    1  A    between atoms: N_4  and  C_5
REMARK    2  A    between atoms: C_5  and  C_6
REMARK    3  A    between atoms: C_6  and  C_7
REMARK    4  A    between atoms: C_7  and  C_8
REMARK    5  A    between atoms: C_8  and  N_9
REMARK    6  A    between atoms: C_8  and  C_24
REMARK    7  A    between atoms: C_10  and  C_12
REMARK    8  A    between atoms: C_12  and  N_13
REMARK    9  A    between atoms: C_14  and  C_16
REMARK   10  A    between atoms: C_16  and  N_17
REMARK   11  A    between atoms: C_16  and  C_18
REMARK                            x       y       z     vdW  Elec       q    Type
REMARK                         _______ _______ _______ _____ _____    ______ ____
ROOT
ATOM      1  N   UNL     1       6.446   6.841  17.647  0.00  0.00    +0.000 N 
ATOM      2  C   UNL     1       5.631   6.017  16.923  0.00  0.00    +0.000 C 
ATOM      3  O   UNL     1       4.584   6.491  16.477  0.00  0.00    +0.000 OA
ATOM      4  H   UNL     1       6.083   7.782  17.723  0.00  0.00    +0.000 HD
ENDROOT
BRANCH   1   5
ATOM      5  C   UNL     1       7.710   6.495  18.296  0.00  0.00    +0.000 C 
BRANCH   5   6
ATOM      6  C   UNL     1       7.420   5.661  19.552  0.00  0.00    +0.000 C 
ATOM      7  N   UNL     1       8.481   5.270  20.313  0.00  0.00    +0.000 N 
ATOM      8  O   UNL     1       6.279   5.316  19.854  0.00  0.00    +0.000 OA
ATOM      9  H   UNL     1       9.405   5.667  20.224  0.00  0.00    +0.000 HD
ATOM     10  H   UNL     1       8.264   4.769  21.166  0.00  0.00    +0.000 HD
ENDBRANCH   5   6
BRANCH   5  11
ATOM     11  C   UNL     1       8.519   7.765  18.567  0.00  0.00    +0.000 C 
BRANCH  11  12
ATOM     12  C   UNL     1       8.106   8.924  17.653  0.00  0.00    +0.000 C 
BRANCH  12  13
ATOM     13  C   UNL     1       8.799  10.216  18.082  0.00  0.00    +0.000 C 
BRANCH  13  17
ATOM     14  N   UNL     1       9.334  12.538  19.693  0.00  0.00    +0.000 NA
ATOM     15  C   UNL     1       9.348  11.357  20.191  0.00  0.00    +0.000 C 
ATOM     16  N   UNL     1       9.615  11.102  21.484  0.00  0.00    +0.000 N 
ATOM     17  N   UNL     1       9.071  10.225  19.507  0.00  0.00    +0.000 N 
ATOM     18  H   UNL     1       9.582  13.216  20.416  0.00  0.00    +0.000 HD
ATOM     19  H   UNL     1       9.549  11.908  22.095  0.00  0.00    +0.000 HD
ATOM     20  H   UNL     1       9.070  10.331  21.856  0.00  0.00    +0.000 HD
ATOM     21  H   UNL     1       9.544   9.397  19.850  0.00  0.00    +0.000 HD
ENDBRANCH  13  17
ENDBRANCH  12  13
ENDBRANCH  11  12
ENDBRANCH   5  11
ENDBRANCH   1   5
BRANCH   2  22
ATOM     22  C   UNL     1       6.028   4.547  16.739  0.00  0.00    +0.000 C 
BRANCH  22  23
ATOM     23  N   UNL     1       5.362   3.683  17.699  0.00  0.00    +0.000 N 
ATOM     24  C   UNL     1       4.094   3.208  17.443  0.00  0.00    +0.000 C 
ATOM     25  O   UNL     1       3.481   3.500  16.417  0.00  0.00    +0.000 OA
ATOM     26  H   UNL     1       5.776   3.526  18.612  0.00  0.00    +0.000 HD
BRANCH  24  27
ATOM     27  C   UNL     1       3.502   2.300  18.559  0.00  0.00    +0.000 C 
BRANCH  27  28
ATOM     28  C   UNL     1       3.571   3.003  19.946  0.00  0.00    +0.000 C 
ATOM     29  C   UNL     1       3.299   4.523  19.842  0.00  0.00    +0.000 C 
ATOM     30  C   UNL     1       1.834   4.857  19.561  0.00  0.00    +0.000 C 
ATOM     31  C   UNL     1       0.894   4.204  20.569  0.00  0.00    +0.000 C 
ATOM     32  C   UNL     1       1.149   2.707  20.708  0.00  0.00    +0.000 C 
ATOM     33  C   UNL     1       2.616   2.414  21.004  0.00  0.00    +0.000 C 
ENDBRANCH  27  28
BRANCH  27  34
ATOM     34  N   UNL     1       4.255   1.026  18.559  0.00  0.00    +0.000 NA
ATOM     35  H   UNL     1       5.247   1.237  18.683  0.00  0.00    +0.000 HD
ATOM     36  H   UNL     1       4.172   0.562  17.657  0.00  0.00    +0.000 HD
ENDBRANCH  27  34
ENDBRANCH  24  27
ENDBRANCH  22  23
ENDBRANCH   2  22
TORSDOF 11
ENDMDL
MODEL 2
REMARK VINA RESULT:      -7.5      1.841      2.557
REMARK  Name = 
REMARK  11 active torsions:
REMARK  status: ('A' for Active; 'I' for Inactive)
REMARK    1  A    between atoms: N_4  and  C_5
REMARK    2  A    between atoms: C_5  and  C_6
REMARK    3  A    between atoms: C_6  and  C_7
REMARK    4  A    between atoms: C_7  and  C_8
REMARK    5  A    between atoms: C_8  and  N_9
REMARK    6  A    between atoms: C_8  and  C_24
REMARK    7  A    between atoms: C_10  and  C_12
REMARK    8  A    between atoms: C_12  and  N_13
REMARK    9  A    between atoms: C_14  and  C_16
REMARK   10  A    between atoms: C_16  and  N_17
REMARK   11  A    between atoms: C_16  and  C_18
REMARK                            x       y       z     vdW  Elec       q    Type
REMARK                         _______ _______ _______ _____ _____    ______ ____
ROOT
ATOM      1  N   UNL     1       7.072   5.867  16.326  0.00  0.00    +0.000 N 
ATOM      2  C   UNL     1       5.761   6.096  16.018  0.00  0.00    +0.000 C 
ATOM      3  O   UNL     1       5.330   5.635  14.959  0.00  0.00    +0.000 OA
ATOM      4  H   UNL     1       7.548   5.314  15.626  0.00  0.00    +0.000 HD
ENDROOT
BRANCH   1   5
ATOM      5  C   UNL     1       7.805   6.339  17.501  0.00  0.00    +0.000 C 
BRANCH   5   6
ATOM      6  C   UNL     1       7.495   5.419  18.690  0.00  0.00    +0.000 C 
ATOM      7  N   UNL     1       8.158   5.647  19.859  0.00  0.00    +0.000 N 
ATOM      8  O   UNL     1       6.706   4.480  18.598  0.00  0.00    +0.000 OA
ATOM      9  H   UNL     1       8.669   6.496  20.051  0.00  0.00    +0.000 HD
ATOM     10  H   UNL     1       7.899   5.064  20.646  0.00  0.00    +0.000 HD
ENDBRANCH   5   6
BRANCH   5  11
ATOM     11  C   UNL     1       7.485   7.812  17.756  0.00  0.00    +0.000 C 
BRANCH  11  12
ATOM     12  C   UNL     1       8.617   8.535  18.494  0.00  0.00    +0.000 C 
BRANCH  12  13
ATOM     13  C   UNL     1       8.603  10.027  18.165  0.00  0.00    +0.000 C 
BRANCH  13  17
ATOM     14  N   UNL     1      10.975  11.508  17.490  0.00  0.00    +0.000 NA
ATOM     15  C   UNL     1      10.554  11.426  18.699  0.00  0.00    +0.000 C 
ATOM     16  N   UNL     1      11.177  12.007  19.740  0.00  0.00    +0.000 N 
ATOM     17  N   UNL     1       9.432  10.781  19.086  0.00  0.00    +0.000 N 
ATOM     18  H   UNL     1      11.843  12.044  17.467  0.00  0.00    +0.000 HD
ATOM     19  H   UNL     1      11.844  12.725  19.484  0.00  0.00    +0.000 HD
ATOM     20  H   UNL     1      10.532  12.358  20.440  0.00  0.00    +0.000 HD
ATOM     21  H   UNL     1       9.463  10.406  20.027  0.00  0.00    +0.000 HD
ENDBRANCH  13  17
ENDBRANCH  12  13
ENDBRANCH  11  12
ENDBRANCH   5  11
ENDBRANCH   1   5
BRANCH   2  22
ATOM     22  C   UNL     1       4.907   6.944  16.968  0.00  0.00    +0.000 C 
BRANCH  22  23
ATOM     23  N   UNL     1       4.310   6.140  18.021  0.00  0.00    +0.000 N 
ATOM     24  C   UNL     1       3.065   6.458  18.518  0.00  0.00    +0.000 C 
ATOM     25  O   UNL     1       2.425   7.425  18.107  0.00  0.00    +0.000 OA
ATOM     26  H   UNL     1       4.856   5.417  18.478  0.00  0.00    +0.000 HD
BRANCH  24  27
ATOM     27  C   UNL     1       2.554   5.515  19.645  0.00  0.00    +0.000 C 
BRANCH  27  28
ATOM     28  C   UNL     1       1.325   4.687  19.166  0.00  0.00    +0.000 C 
ATOM     29  C   UNL     1       1.565   4.037  17.783  0.00  0.00    +0.000 C 
ATOM     30  C   UNL     1       2.546   2.865  17.827  0.00  0.00    +0.000 C 
ATOM     31  C   UNL     1       2.139   1.817  18.858  0.00  0.00    +0.000 C 
ATOM     32  C   UNL     1       1.878   2.429  20.229  0.00  0.00    +0.000 C 
ATOM     33  C   UNL     1       0.883   3.583  20.148  0.00  0.00    +0.000 C 
ENDBRANCH  27  28
BRANCH  27  34
ATOM     34  N   UNL     1       2.221   6.347  20.823  0.00  0.00    +0.000 NA
ATOM     35  H   UNL     1       1.263   6.686  20.718  0.00  0.00    +0.000 HD
ATOM     36  H   UNL     1       2.814   7.173  20.854  0.00  0.00    +0.000 HD
ENDBRANCH  27  34
ENDBRANCH  24  27
ENDBRANCH  22  23
ENDBRANCH   2  22
TORSDOF 11
ENDMDL
MODEL 3
REMARK VINA RESULT:      -7.4      1.549      2.150
REMARK  Name = 
REMARK  11 active torsions:
REMARK  status: ('A' for Active; 'I' for Inactive)
REMARK    1  A    between atoms: N_4  and  C_5
REMARK    2  A    between atoms: C_5  and  C_6
REMARK    3  A    between atoms: C_6  and  C_7
REMARK    4  A    between atoms: C_7  and  C_8
REMARK    5  A    between atoms: C_8  and  N_9
REMARK    6  A    between atoms: C_8  and  C_24
REMARK    7  A    between atoms: C_10  and  C_12
REMARK    8  A    between atoms: C_12  and  N_13
REMARK    9  A    between atoms: C_14  and  C_16
REMARK   10  A    between atoms: C_16  and  N_17
REMARK   11  A    between atoms: C_16  and  C_18
REMARK                            x       y       z     vdW  Elec       q    Type
REMARK                         _______ _______ _______ _____ _____    ______ ____
ROOT
ATOM      1  N   UNL     1       6.204   7.178  17.767  0.00  0.00    +0.000 N 
ATOM      2  C   UNL     1       5.176   6.607  17.071  0.00  0.00    +0.000 C 
ATOM      3  O   UNL     1       4.054   7.102  17.191  0.00  0.00    +0.000 OA
ATOM      4  H   UNL     1       5.910   7.979  18.310  0.00  0.00    +0.000 HD
ENDROOT
BRANCH   1   5
ATOM      5  C   UNL     1       7.601   6.747  17.805  0.00  0.00    +0.000 C 
BRANCH   5   6
ATOM      6  C   UNL     1       7.682   5.358  18.451  0.00  0.00    +0.000 C 
ATOM      7  N   UNL     1       7.283   5.237  19.749  0.00  0.00    +0.000 N 
ATOM      8  O   UNL     1       8.125   4.383  17.846  0.00  0.00    +0.000 OA
ATOM      9  H   UNL     1       6.748   5.943  20.233  0.00  0.00    +0.000 HD
ATOM     10  H   UNL     1       7.292   4.302  20.139  0.00  0.00    +0.000 HD
ENDBRANCH   5   6
BRANCH   5  11
ATOM     11  C   UNL     1       8.453   7.808  18.503  0.00  0.00    +0.000 C 
BRANCH  11  12
ATOM     12  C   UNL     1       8.213   9.212  17.938  0.00  0.00    +0.000 C 
BRANCH  12  13
ATOM     13  C   UNL     1       9.035  10.246  18.706  0.00  0.00    +0.000 C 
BRANCH  13  17
ATOM     14  N   UNL     1      11.227  11.702  17.546  0.00  0.00    +0.000 NA
ATOM     15  C   UNL     1      10.042  12.191  17.588  0.00  0.00    +0.000 C 
ATOM     16  N   UNL     1       9.726  13.408  17.110  0.00  0.00    +0.000 N 
ATOM     17  N   UNL     1       8.958  11.553  18.083  0.00  0.00    +0.000 N 
ATOM     18  H   UNL     1      11.862  12.384  17.130  0.00  0.00    +0.000 HD
ATOM     19  H   UNL     1      10.416  13.807  16.484  0.00  0.00    +0.000 HD
ATOM     20  H   UNL     1       8.805  13.439  16.686  0.00  0.00    +0.000 HD
ATOM     21  H   UNL     1       8.250  12.164  18.471  0.00  0.00    +0.000 HD
ENDBRANCH  13  17
ENDBRANCH  12  13
ENDBRANCH  11  12
ENDBRANCH   5  11
ENDBRANCH   1   5
BRANCH   2  22
ATOM     22  C   UNL     1       5.453   5.362  16.218  0.00  0.00    +0.000 C 
BRANCH  22  23
ATOM     23  N   UNL     1       4.450   4.332  16.424  0.00  0.00    +0.000 N 
ATOM     24  C   UNL     1       4.300   3.745  17.662  0.00  0.00    +0.000 C 
ATOM     25  O   UNL     1       5.003   4.056  18.622  0.00  0.00    +0.000 OA
ATOM     26  H   UNL     1       3.941   3.954  15.631  0.00  0.00    +0.000 HD
BRANCH  24  27
ATOM     27  C   UNL     1       3.193   2.654  17.735  0.00  0.00    +0.000 C 
BRANCH  27  28
ATOM     28  C   UNL     1       1.776   3.298  17.781  0.00  0.00    +0.000 C 
ATOM     29  C   UNL     1       0.821   2.536  18.730  0.00  0.00    +0.000 C 
ATOM     30  C   UNL     1       1.146   2.745  20.210  0.00  0.00    +0.000 C 
ATOM     31  C   UNL     1       1.213   4.223  20.579  0.00  0.00    +0.000 C 
ATOM     32  C   UNL     1       2.133   5.007  19.649  0.00  0.00    +0.000 C 
ATOM     33  C   UNL     1       1.770   4.787  18.184  0.00  0.00    +0.000 C 
ENDBRANCH  27  28
BRANCH  27  34
ATOM     34  N   UNL     1       3.449   1.821  18.931  0.00  0.00    +0.000 NA
ATOM     35  H   UNL     1       4.397   2.013  19.261  0.00  0.00    +0.000 HD
ATOM     36  H   UNL     1       3.426   0.833  18.688  0.00  0.00    +0.000 HD
ENDBRANCH  27  34
ENDBRANCH  24  27
ENDBRANCH  22  23
ENDBRANCH   2  22
TORSDOF 11
ENDMDL
MODEL 4
REMARK VINA RESULT:      -7.3      5.426      8.407
REMARK  Name = 
REMARK  11 active torsions:
REMARK  status: ('A' for Active; 'I' for Inactive)
REMARK    1  A    between atoms: N_4  and  C_5
REMARK    2  A    between atoms: C_5  and  C_6
REMARK    3  A    between atoms: C_6  and  C_7
REMARK    4  A    between atoms: C_7  and  C_8
REMARK    5  A    between atoms: C_8  and  N_9
REMARK    6  A    between atoms: C_8  and  C_24
REMARK    7  A    between atoms: C_10  and  C_12
REMARK    8  A    between atoms: C_12  and  N_13
REMARK    9  A    between atoms: C_14  and  C_16
REMARK   10  A    between atoms: C_16  and  N_17
REMARK   11  A    between atoms: C_16  and  C_18
REMARK                            x       y       z     vdW  Elec       q    Type
REMARK                         _______ _______ _______ _____ _____    ______ ____
ROOT
ATOM      1  N   UNL     1       2.669   7.074  17.921  0.00  0.00    +0.000 N 
ATOM      2  C   UNL     1       2.150   8.112  18.641  0.00  0.00    +0.000 C 
ATOM      3  O   UNL     1       1.923   9.168  18.047  0.00  0.00    +0.000 OA
ATOM      4  H   UNL     1       2.799   7.302  16.944  0.00  0.00    +0.000 HD
ENDROOT
BRANCH   1   5
ATOM      5  C   UNL     1       3.045   5.749  18.414  0.00  0.00    +0.000 C 
BRANCH   5   6
ATOM      6  C   UNL     1       4.410   5.362  17.828  0.00  0.00    +0.000 C 
ATOM      7  N   UNL     1       4.858   6.063  16.748  0.00  0.00    +0.000 N 
ATOM      8  O   UNL     1       5.073   4.430  18.281  0.00  0.00    +0.000 OA
ATOM      9  H   UNL     1       4.458   6.940  16.450  0.00  0.00    +0.000 HD
ATOM     10  H   UNL     1       5.785   5.829  16.411  0.00  0.00    +0.000 HD
ENDBRANCH   5   6
BRANCH   5  11
ATOM     11  C   UNL     1       1.932   4.745  18.109  0.00  0.00    +0.000 C 
BRANCH  11  12
ATOM     12  C   UNL     1       1.320   4.150  19.382  0.00  0.00    +0.000 C 
BRANCH  12  13
ATOM     13  C   UNL     1       1.698   2.676  19.518  0.00  0.00    +0.000 C 
BRANCH  13  17
ATOM     14  N   UNL     1       3.947   1.446  18.213  0.00  0.00    +0.000 NA
ATOM     15  C   UNL     1       4.029   1.898  19.411  0.00  0.00    +0.000 C 
ATOM     16  N   UNL     1       5.149   1.832  20.152  0.00  0.00    +0.000 N 
ATOM     17  N   UNL     1       3.029   2.519  20.074  0.00  0.00    +0.000 N 
ATOM     18  H   UNL     1       4.836   1.020  17.949  0.00  0.00    +0.000 HD
ATOM     19  H   UNL     1       5.993   1.643  19.624  0.00  0.00    +0.000 HD
ATOM     20  H   UNL     1       5.279   2.645  20.745  0.00  0.00    +0.000 HD
ATOM     21  H   UNL     1       3.054   2.405  21.080  0.00  0.00    +0.000 HD
ENDBRANCH  13  17
ENDBRANCH  12  13
ENDBRANCH  11  12
ENDBRANCH   5  11
ENDBRANCH   1   5
BRANCH   2  22
ATOM     22  C   UNL     1       1.918   7.934  20.147  0.00  0.00    +0.000 C 
BRANCH  22  23
ATOM     23  N   UNL     1       0.785   8.713  20.615  0.00  0.00    +0.000 N 
ATOM     24  C   UNL     1       0.862   9.409  21.802  0.00  0.00    +0.000 C 
ATOM     25  O   UNL     1       1.871   9.390  22.506  0.00  0.00    +0.000 OA
ATOM     26  H   UNL     1      -0.107   8.650  20.135  0.00  0.00    +0.000 HD
BRANCH  24  27
ATOM     27  C   UNL     1      -0.427  10.194  22.181  0.00  0.00    +0.000 C 
BRANCH  27  28
ATOM     28  C   UNL     1      -0.249  11.719  21.924  0.00  0.00    +0.000 C 
ATOM     29  C   UNL     1      -0.427  12.081  20.430  0.00  0.00    +0.000 C 
ATOM     30  C   UNL     1      -1.880  12.002  19.958  0.00  0.00    +0.000 C 
ATOM     31  C   UNL     1      -2.812  12.832  20.833  0.00  0.00    +0.000 C 
ATOM     32  C   UNL     1      -2.648  12.511  22.315  0.00  0.00    +0.000 C 
ATOM     33  C   UNL     1      -1.190  12.616  22.753  0.00  0.00    +0.000 C 
ENDBRANCH  27  28
BRANCH  27  34
ATOM     34  N   UNL     1      -0.730   9.915  23.603  0.00  0.00    +0.000 NA
ATOM     35  H   UNL     1      -0.597  10.777  24.136  0.00  0.00    +0.000 HD
ATOM     36  H   UNL     1      -0.071   9.240  23.983  0.00  0.00    +0.000 HD
ENDBRANCH  27  34
ENDBRANCH  24  27
ENDBRANCH  22  23
ENDBRANCH   2  22
TORSDOF 11
ENDMDL
MODEL 5
REMARK VINA RESULT:      -7.3      3.910      7.475
REMARK  Name = 
REMARK  11 active torsions:
REMARK  status: ('A' for Active; 'I' for Inactive)
REMARK    1  A    between atoms: N_4  and  C_5
REMARK    2  A    between atoms: C_5  and  C_6
REMARK    3  A    between atoms: C_6  and  C_7
REMARK    4  A    between atoms: C_7  and  C_8
REMARK    5  A    between atoms: C_8  and  N_9
REMARK    6  A    between atoms: C_8  and  C_24
REMARK    7  A    between atoms: C_10  and  C_12
REMARK    8  A    between atoms: C_12  and  N_13
REMARK    9  A    between atoms: C_14  and  C_16
REMARK   10  A    between atoms: C_16  and  N_17
REMARK   11  A    between atoms: C_16  and  C_18
REMARK                            x       y       z     vdW  Elec       q    Type
REMARK                         _______ _______ _______ _____ _____    ______ ____
ROOT
ATOM      1  N   UNL     1       4.172   5.403  19.148  0.00  0.00    +0.000 N 
ATOM      2  C   UNL     1       5.515   5.340  18.905  0.00  0.00    +0.000 C 
ATOM      3  O   UNL     1       6.244   4.917  19.804  0.00  0.00    +0.000 OA
ATOM      4  H   UNL     1       3.926   5.070  20.071  0.00  0.00    +0.000 HD
ENDROOT
BRANCH   1   5
ATOM      5  C   UNL     1       3.127   5.896  18.251  0.00  0.00    +0.000 C 
BRANCH   5   6
ATOM      6  C   UNL     1       2.521   7.178  18.840  0.00  0.00    +0.000 C 
ATOM      7  N   UNL     1       2.288   7.211  20.182  0.00  0.00    +0.000 N 
ATOM      8  O   UNL     1       2.216   8.137  18.134  0.00  0.00    +0.000 OA
ATOM      9  H   UNL     1       2.679   6.543  20.830  0.00  0.00    +0.000 HD
ATOM     10  H   UNL     1       1.941   8.085  20.559  0.00  0.00    +0.000 HD
ENDBRANCH   5   6
BRANCH   5  11
ATOM     11  C   UNL     1       2.104   4.790  17.988  0.00  0.00    +0.000 C 
BRANCH  11  12
ATOM     12  C   UNL     1       2.690   3.639  17.162  0.00  0.00    +0.000 C 
BRANCH  12  13
ATOM     13  C   UNL     1       2.526   2.313  17.902  0.00  0.00    +0.000 C 
BRANCH  13  17
ATOM     14  N   UNL     1       3.165   2.687  20.681  0.00  0.00    +0.000 NA
ATOM     15  C   UNL     1       4.000   2.156  19.865  0.00  0.00    +0.000 C 
ATOM     16  N   UNL     1       5.227   1.743  20.227  0.00  0.00    +0.000 N 
ATOM     17  N   UNL     1       3.758   1.916  18.557  0.00  0.00    +0.000 N 
ATOM     18  H   UNL     1       3.593   2.762  21.605  0.00  0.00    +0.000 HD
ATOM     19  H   UNL     1       5.358   1.634  21.225  0.00  0.00    +0.000 HD
ATOM     20  H   UNL     1       5.520   0.902  19.739  0.00  0.00    +0.000 HD
ATOM     21  H   UNL     1       4.578   1.943  17.964  0.00  0.00    +0.000 HD
ENDBRANCH  13  17
ENDBRANCH  12  13
ENDBRANCH  11  12
ENDBRANCH   5  11
ENDBRANCH   1   5
BRANCH   2  22
ATOM     22  C   UNL     1       6.053   5.836  17.556  0.00  0.00    +0.000 C 
BRANCH  22  23
ATOM     23  N   UNL     1       5.959   4.814  16.528  0.00  0.00    +0.000 N 
ATOM     24  C   UNL     1       6.749   4.886  15.401  0.00  0.00    +0.000 C 
ATOM     25  O   UNL     1       7.542   5.808  15.218  0.00  0.00    +0.000 OA
ATOM     26  H   UNL     1       5.228   4.111  16.577  0.00  0.00    +0.000 HD
BRANCH  24  27
ATOM     27  C   UNL     1       6.538   3.728  14.384  0.00  0.00    +0.000 C 
BRANCH  27  28
ATOM     28  C   UNL     1       6.173   4.282  12.976  0.00  0.00    +0.000 C 
ATOM     29  C   UNL     1       7.394   4.306  12.025  0.00  0.00    +0.000 C 
ATOM     30  C   UNL     1       7.818   2.915  11.551  0.00  0.00    +0.000 C 
ATOM     31  C   UNL     1       6.659   2.144  10.928  0.00  0.00    +0.000 C 
ATOM     32  C   UNL     1       5.433   2.118  11.833  0.00  0.00    +0.000 C 
ATOM     33  C   UNL     1       5.029   3.522  12.273  0.00  0.00    +0.000 C 
ENDBRANCH  27  28
BRANCH  27  34
ATOM     34  N   UNL     1       5.476   2.843  14.911  0.00  0.00    +0.000 NA
ATOM     35  H   UNL     1       5.690   1.883  14.637  0.00  0.00    +0.000 HD
ATOM     36  H   UNL     1       4.580   3.069  14.485  0.00  0.00    +0.000 HD
ENDBRANCH  27  34
ENDBRANCH  24  27
ENDBRANCH  22  23
ENDBRANCH   2  22
TORSDOF 11
ENDMDL
MODEL 6
REMARK VINA RESULT:      -7.3      3.461      7.559
REMARK  Name = 
REMARK  11 active torsions:
REMARK  status: ('A' for Active; 'I' for Inactive)
REMARK    1  A    between atoms: N_4  and  C_5
REMARK    2  A    between atoms: C_5  and  C_6
REMARK    3  A    between atoms: C_6  and  C_7
REMARK    4  A    between atoms: C_7  and  C_8
REMARK    5  A    between atoms: C_8  and  N_9
REMARK    6  A    between atoms: C_8  and  C_24
REMARK    7  A    between atoms: C_10  and  C_12
REMARK    8  A    between atoms: C_12  and  N_13
REMARK    9  A    between atoms: C_14  and  C_16
REMARK   10  A    between atoms: C_16  and  N_17
REMARK   11  A    between atoms: C_16  and  C_18
REMARK                            x       y       z     vdW  Elec       q    Type
REMARK                         _______ _______ _______ _____ _____    ______ ____
ROOT
ATOM      1  N   UNL     1       5.982   4.785  19.273  0.00  0.00    +0.000 N 
ATOM      2  C   UNL     1       7.147   5.394  18.904  0.00  0.00    +0.000 C 
ATOM      3  O   UNL     1       8.041   5.486  19.748  0.00  0.00    +0.000 OA
ATOM      4  H   UNL     1       5.997   4.459  20.230  0.00  0.00    +0.000 HD
ENDROOT
BRANCH   1   5
ATOM      5  C   UNL     1       4.781   4.592  18.459  0.00  0.00    +0.000 C 
BRANCH   5   6
ATOM      6  C   UNL     1       3.783   5.719  18.758  0.00  0.00    +0.000 C 
ATOM      7  N   UNL     1       3.322   5.835  20.035  0.00  0.00    +0.000 N 
ATOM      8  O   UNL     1       3.374   6.476  17.879  0.00  0.00    +0.000 OA
ATOM      9  H   UNL     1       3.749   5.373  20.824  0.00  0.00    +0.000 HD
ATOM     10  H   UNL     1       2.707   6.619  20.223  0.00  0.00    +0.000 HD
ENDBRANCH   5   6
BRANCH   5  11
ATOM     11  C   UNL     1       4.220   3.188  18.687  0.00  0.00    +0.000 C 
BRANCH  11  12
ATOM     12  C   UNL     1       3.166   2.805  17.643  0.00  0.00    +0.000 C 
BRANCH  12  13
ATOM     13  C   UNL     1       1.832   2.493  18.319  0.00  0.00    +0.000 C 
BRANCH  13  17
ATOM     14  N   UNL     1       0.596   3.948  20.470  0.00  0.00    +0.000 NA
ATOM     15  C   UNL     1       1.413   2.985  20.692  0.00  0.00    +0.000 C 
ATOM     16  N   UNL     1       1.765   2.582  21.926  0.00  0.00    +0.000 N 
ATOM     17  N   UNL     1       2.003   2.234  19.735  0.00  0.00    +0.000 N 
ATOM     18  H   UNL     1       0.298   4.353  21.359  0.00  0.00    +0.000 HD
ATOM     19  H   UNL     1       1.153   2.906  22.665  0.00  0.00    +0.000 HD
ATOM     20  H   UNL     1       1.896   1.578  21.991  0.00  0.00    +0.000 HD
ATOM     21  H   UNL     1       2.912   1.864  19.989  0.00  0.00    +0.000 HD
ENDBRANCH  13  17
ENDBRANCH  12  13
ENDBRANCH  11  12
ENDBRANCH   5  11
ENDBRANCH   1   5
BRANCH   2  22
ATOM     22  C   UNL     1       7.273   5.969  17.487  0.00  0.00    +0.000 C 
BRANCH  22  23
ATOM     23  N   UNL     1       7.229   4.928  16.475  0.00  0.00    +0.000 N 
ATOM     24  C   UNL     1       6.480   5.101  15.331  0.00  0.00    +0.000 C 
ATOM     25  O   UNL     1       5.822   6.120  15.130  0.00  0.00    +0.000 OA
ATOM     26  H   UNL     1       7.649   4.023  16.661  0.00  0.00    +0.000 HD
BRANCH  24  27
ATOM     27  C   UNL     1       6.521   3.903  14.340  0.00  0.00    +0.000 C 
BRANCH  27  28
ATOM     28  C   UNL     1       6.133   4.355  12.902  0.00  0.00    +0.000 C 
ATOM     29  C   UNL     1       7.356   4.399  11.955  0.00  0.00    +0.000 C 
ATOM     30  C   UNL     1       7.866   3.013  11.560  0.00  0.00    +0.000 C 
ATOM     31  C   UNL     1       6.759   2.140  10.977  0.00  0.00    +0.000 C 
ATOM     32  C   UNL     1       5.530   2.090  11.879  0.00  0.00    +0.000 C 
ATOM     33  C   UNL     1       5.041   3.490  12.238  0.00  0.00    +0.000 C 
ENDBRANCH  27  28
BRANCH  27  34
ATOM     34  N   UNL     1       5.604   2.858  14.846  0.00  0.00    +0.000 NA
ATOM     35  H   UNL     1       6.164   2.087  15.213  0.00  0.00    +0.000 HD
ATOM     36  H   UNL     1       5.049   2.472  14.086  0.00  0.00    +0.000 HD
ENDBRANCH  27  34
ENDBRANCH  24  27
ENDBRANCH  22  23
ENDBRANCH   2  22
TORSDOF 11
ENDMDL
MODEL 7
REMARK VINA RESULT:      -7.3      4.524      7.626
REMARK  Name = 
REMARK  11 active torsions:
REMARK  status: ('A' for Active; 'I' for Inactive)
REMARK    1  A    between atoms: N_4  and  C_5
REMARK    2  A    between atoms: C_5  and  C_6
REMARK    3  A    between atoms: C_6  and  C_7
REMARK    4  A    between atoms: C_7  and  C_8
REMARK    5  A    between atoms: C_8  and  N_9
REMARK    6  A    between atoms: C_8  and  C_24
REMARK    7  A    between atoms: C_10  and  C_12
REMARK    8  A    between atoms: C_12  and  N_13
REMARK    9  A    between atoms: C_14  and  C_16
REMARK   10  A    between atoms: C_16  and  N_17
REMARK   11  A    between atoms: C_16  and  C_18
REMARK                            x       y       z     vdW  Elec       q    Type
REMARK                         _______ _______ _______ _____ _____    ______ ____
ROOT
ATOM      1  N   UNL     1       4.401   5.957  17.561  0.00  0.00    +0.000 N 
ATOM      2  C   UNL     1       3.526   6.979  17.800  0.00  0.00    +0.000 C 
ATOM      3  O   UNL     1       3.433   7.868  16.951  0.00  0.00    +0.000 OA
ATOM      4  H   UNL     1       4.878   6.051  16.674  0.00  0.00    +0.000 HD
ENDROOT
BRANCH   1   5
ATOM      5  C   UNL     1       4.700   4.820  18.431  0.00  0.00    +0.000 C 
BRANCH   5   6
ATOM      6  C   UNL     1       6.185   4.860  18.818  0.00  0.00    +0.000 C 
ATOM      7  N   UNL     1       7.074   4.245  17.990  0.00  0.00    +0.000 N 
ATOM      8  O   UNL     1       6.572   5.393  19.858  0.00  0.00    +0.000 OA
ATOM      9  H   UNL     1       6.848   3.957  17.049  0.00  0.00    +0.000 HD
ATOM     10  H   UNL     1       8.053   4.330  18.234  0.00  0.00    +0.000 HD
ENDBRANCH   5   6
BRANCH   5  11
ATOM     11  C   UNL     1       4.270   3.519  17.752  0.00  0.00    +0.000 C 
BRANCH  11  12
ATOM     12  C   UNL     1       2.751   3.433  17.569  0.00  0.00    +0.000 C 
BRANCH  12  13
ATOM     13  C   UNL     1       2.186   2.241  18.341  0.00  0.00    +0.000 C 
BRANCH  13  17
ATOM     14  N   UNL     1       0.533   3.401  20.388  0.00  0.00    +0.000 NA
ATOM     15  C   UNL     1       1.690   2.916  20.653  0.00  0.00    +0.000 C 
ATOM     16  N   UNL     1       2.228   2.913  21.886  0.00  0.00    +0.000 N 
ATOM     17  N   UNL     1       2.506   2.324  19.753  0.00  0.00    +0.000 N 
ATOM     18  H   UNL     1       0.126   3.793  21.239  0.00  0.00    +0.000 HD
ATOM     19  H   UNL     1       1.565   3.077  22.635  0.00  0.00    +0.000 HD
ATOM     20  H   UNL     1       2.776   2.081  22.076  0.00  0.00    +0.000 HD
ATOM     21  H   UNL     1       3.495   2.413  19.956  0.00  0.00    +0.000 HD
ENDBRANCH  13  17
ENDBRANCH  12  13
ENDBRANCH  11  12
ENDBRANCH   5  11
ENDBRANCH   1   5
BRANCH   2  22
ATOM     22  C   UNL     1       2.743   6.999  19.118  0.00  0.00    +0.000 C 
BRANCH  22  23
ATOM     23  N   UNL     1       2.030   8.251  19.305  0.00  0.00    +0.000 N 
ATOM     24  C   UNL     1       1.219   8.432  20.405  0.00  0.00    +0.000 C 
ATOM     25  O   UNL     1       1.059   7.553  21.250  0.00  0.00    +0.000 OA
ATOM     26  H   UNL     1       2.029   8.948  18.568  0.00  0.00    +0.000 HD
BRANCH  24  27
ATOM     27  C   UNL     1       0.514   9.817  20.471  0.00  0.00    +0.000 C 
BRANCH  27  28
ATOM     28  C   UNL     1       0.631  10.570  19.114  0.00  0.00    +0.000 C 
ATOM     29  C   UNL     1      -0.257   9.934  18.018  0.00  0.00    +0.000 C 
ATOM     30  C   UNL     1      -1.750  10.195  18.223  0.00  0.00    +0.000 C 
ATOM     31  C   UNL     1      -2.056  11.681  18.376  0.00  0.00    +0.000 C 
ATOM     32  C   UNL     1      -1.183  12.342  19.437  0.00  0.00    +0.000 C 
ATOM     33  C   UNL     1       0.299  12.074  19.191  0.00  0.00    +0.000 C 
ENDBRANCH  27  28
BRANCH  27  34
ATOM     34  N   UNL     1       1.127  10.590  21.574  0.00  0.00    +0.000 NA
ATOM     35  H   UNL     1       1.906  10.049  21.953  0.00  0.00    +0.000 HD
ATOM     36  H   UNL     1       0.465  10.710  22.337  0.00  0.00    +0.000 HD
ENDBRANCH  27  34
ENDBRANCH  24  27
ENDBRANCH  22  23
ENDBRANCH   2  22
TORSDOF 11
ENDMDL
MODEL 8
REMARK VINA RESULT:      -7.3      4.441      6.969
REMARK  Name = 
REMARK  11 active torsions:
REMARK  status: ('A' for Active; 'I' for Inactive)
REMARK    1  A    between atoms: N_4  and  C_5
REMARK    2  A    between atoms: C_5  and  C_6
REMARK    3  A    between atoms: C_6  and  C_7
REMARK    4  A    between atoms: C_7  and  C_8
REMARK    5  A    between atoms: C_8  and  N_9
REMARK    6  A    between atoms: C_8  and  C_24
REMARK    7  A    between atoms: C_10  and  C_12
REMARK    8  A    between atoms: C_12  and  N_13
REMARK    9  A    between atoms: C_14  and  C_16
REMARK   10  A    between atoms: C_16  and  N_17
REMARK   11  A    between atoms: C_16  and  C_18
REMARK                            x       y       z     vdW  Elec       q    Type
REMARK                         _______ _______ _______ _____ _____    ______ ____
ROOT
ATOM      1  N   UNL     1       2.985   4.575  19.818  0.00  0.00    +0.000 N 
ATOM      2  C   UNL     1       2.304   5.751  19.959  0.00  0.00    +0.000 C 
ATOM      3  O   UNL     1       1.430   5.809  20.826  0.00  0.00    +0.000 OA
ATOM      4  H   UNL     1       2.686   3.869  20.476  0.00  0.00    +0.000 HD
ENDROOT
BRANCH   1   5
ATOM      5  C   UNL     1       4.033   4.265  18.844  0.00  0.00    +0.000 C 
BRANCH   5   6
ATOM      6  C   UNL     1       3.952   2.778  18.475  0.00  0.00    +0.000 C 
ATOM      7  N   UNL     1       4.472   2.392  17.276  0.00  0.00    +0.000 N 
ATOM      8  O   UNL     1       3.405   1.954  19.207  0.00  0.00    +0.000 OA
ATOM      9  H   UNL     1       5.086   2.974  16.724  0.00  0.00    +0.000 HD
ATOM     10  H   UNL     1       4.459   1.399  17.076  0.00  0.00    +0.000 HD
ENDBRANCH   5   6
BRANCH   5  11
ATOM     11  C   UNL     1       5.394   4.697  19.392  0.00  0.00    +0.000 C 
BRANCH  11  12
ATOM     12  C   UNL     1       6.186   5.540  18.386  0.00  0.00    +0.000 C 
BRANCH  12  13
ATOM     13  C   UNL     1       7.252   4.690  17.698  0.00  0.00    +0.000 C 
BRANCH  13  17
ATOM     14  N   UNL     1       6.116   3.806  15.208  0.00  0.00    +0.000 NA
ATOM     15  C   UNL     1       7.020   4.715  15.250  0.00  0.00    +0.000 C 
ATOM     16  N   UNL     1       7.513   5.318  14.154  0.00  0.00    +0.000 N 
ATOM     17  N   UNL     1       7.573   5.205  16.381  0.00  0.00    +0.000 N 
ATOM     18  H   UNL     1       5.872   3.613  14.236  0.00  0.00    +0.000 HD
ATOM     19  H   UNL     1       6.950   5.204  13.320  0.00  0.00    +0.000 HD
ATOM     20  H   UNL     1       7.725   6.300  14.305  0.00  0.00    +0.000 HD
ATOM     21  H   UNL     1       8.526   5.533  16.278  0.00  0.00    +0.000 HD
ENDBRANCH  13  17
ENDBRANCH  12  13
ENDBRANCH  11  12
ENDBRANCH   5  11
ENDBRANCH   1   5
BRANCH   2  22
ATOM     22  C   UNL     1       2.623   6.917  19.015  0.00  0.00    +0.000 C 
BRANCH  22  23
ATOM     23  N   UNL     1       2.060   8.169  19.492  0.00  0.00    +0.000 N 
ATOM     24  C   UNL     1       1.592   9.107  18.598  0.00  0.00    +0.000 C 
ATOM     25  O   UNL     1       1.641   8.931  17.382  0.00  0.00    +0.000 OA
ATOM     26  H   UNL     1       2.121   8.409  20.477  0.00  0.00    +0.000 HD
BRANCH  24  27
ATOM     27  C   UNL     1       1.023  10.400  19.250  0.00  0.00    +0.000 C 
BRANCH  27  28
ATOM     28  C   UNL     1      -0.431  10.176  19.758  0.00  0.00    +0.000 C 
ATOM     29  C   UNL     1      -0.472   9.323  21.048  0.00  0.00    +0.000 C 
ATOM     30  C   UNL     1       0.021  10.074  22.286  0.00  0.00    +0.000 C 
ATOM     31  C   UNL     1      -0.714  11.395  22.485  0.00  0.00    +0.000 C 
ATOM     32  C   UNL     1      -0.707  12.253  21.224  0.00  0.00    +0.000 C 
ATOM     33  C   UNL     1      -1.220  11.476  20.015  0.00  0.00    +0.000 C 
ENDBRANCH  27  28
BRANCH  27  34
ATOM     34  N   UNL     1       1.086  11.485  18.245  0.00  0.00    +0.000 NA
ATOM     35  H   UNL     1       0.289  11.386  17.613  0.00  0.00    +0.000 HD
ATOM     36  H   UNL     1       1.920  11.390  17.670  0.00  0.00    +0.000 HD
ENDBRANCH  27  34
ENDBRANCH  24  27
ENDBRANCH  22  23
ENDBRANCH   2  22
TORSDOF 11
ENDMDL
MODEL 9
REMARK VINA RESULT:      -7.2      1.980      3.149
REMARK  Name = 
REMARK  11 active torsions:
REMARK  status: ('A' for Active; 'I' for Inactive)
REMARK    1  A    between atoms: N_4  and  C_5
REMARK    2  A    between atoms: C_5  and  C_6
REMARK    3  A    between atoms: C_6  and  C_7
REMARK    4  A    between atoms: C_7  and  C_8
REMARK    5  A    between atoms: C_8  and  N_9
REMARK    6  A    between atoms: C_8  and  C_24
REMARK    7  A    between atoms: C_10  and  C_12
REMARK    8  A    between atoms: C_12  and  N_13
REMARK    9  A    between atoms: C_14  and  C_16
REMARK   10  A    between atoms: C_16  and  N_17
REMARK   11  A    between atoms: C_16  and  C_18
REMARK                            x       y       z     vdW  Elec       q    Type
REMARK                         _______ _______ _______ _____ _____    ______ ____
ROOT
ATOM      1  N   UNL     1       7.772   6.833  18.583  0.00  0.00    +0.000 N 
ATOM      2  C   UNL     1       7.522   5.550  18.981  0.00  0.00    +0.000 C 
ATOM      3  O   UNL     1       8.295   5.038  19.793  0.00  0.00    +0.000 OA
ATOM      4  H   UNL     1       8.587   7.229  19.031  0.00  0.00    +0.000 HD
ENDROOT
BRANCH   1   5
ATOM      5  C   UNL     1       7.017   7.627  17.613  0.00  0.00    +0.000 C 
BRANCH   5   6
ATOM      6  C   UNL     1       6.880   6.830  16.309  0.00  0.00    +0.000 C 
ATOM      7  N   UNL     1       5.657   6.801  15.708  0.00  0.00    +0.000 N 
ATOM      8  O   UNL     1       7.822   6.202  15.828  0.00  0.00    +0.000 OA
ATOM      9  H   UNL     1       4.906   7.432  15.946  0.00  0.00    +0.000 HD
ATOM     10  H   UNL     1       5.602   6.316  14.820  0.00  0.00    +0.000 HD
ENDBRANCH   5   6
BRANCH   5  11
ATOM     11  C   UNL     1       7.675   8.996  17.439  0.00  0.00    +0.000 C 
BRANCH  11  12
ATOM     12  C   UNL     1       8.788   9.242  18.464  0.00  0.00    +0.000 C 
BRANCH  12  13
ATOM     13  C   UNL     1       9.067  10.738  18.603  0.00  0.00    +0.000 C 
BRANCH  13  17
ATOM     14  N   UNL     1      11.435  12.051  19.571  0.00  0.00    +0.000 NA
ATOM     15  C   UNL     1      11.274  11.786  18.326  0.00  0.00    +0.000 C 
ATOM     16  N   UNL     1      12.176  12.100  17.380  0.00  0.00    +0.000 N 
ATOM     17  N   UNL     1      10.207  11.141  17.803  0.00  0.00    +0.000 N 
ATOM     18  H   UNL     1      12.319  12.546  19.702  0.00  0.00    +0.000 HD
ATOM     19  H   UNL     1      13.100  12.319  17.734  0.00  0.00    +0.000 HD
ATOM     20  H   UNL     1      12.237  11.402  16.645  0.00  0.00    +0.000 HD
ATOM     21  H   UNL     1       9.984  11.399  16.850  0.00  0.00    +0.000 HD
ENDBRANCH  13  17
ENDBRANCH  12  13
ENDBRANCH  11  12
ENDBRANCH   5  11
ENDBRANCH   1   5
BRANCH   2  22
ATOM     22  C   UNL     1       6.333   4.797  18.371  0.00  0.00    +0.000 C 
BRANCH  22  23
ATOM     23  N   UNL     1       5.174   4.817  19.247  0.00  0.00    +0.000 N 
ATOM     24  C   UNL     1       4.027   5.481  18.869  0.00  0.00    +0.000 C 
ATOM     25  O   UNL     1       3.943   6.083  17.800  0.00  0.00    +0.000 OA
ATOM     26  H   UNL     1       5.245   4.447  20.190  0.00  0.00    +0.000 HD
BRANCH  24  27
ATOM     27  C   UNL     1       2.870   5.423  19.908  0.00  0.00    +0.000 C 
BRANCH  27  28
ATOM     28  C   UNL     1       1.598   4.773  19.291  0.00  0.00    +0.000 C 
ATOM     29  C   UNL     1       1.929   3.909  18.050  0.00  0.00    +0.000 C 
ATOM     30  C   UNL     1       2.633   2.597  18.398  0.00  0.00    +0.000 C 
ATOM     31  C   UNL     1       1.858   1.788  19.432  0.00  0.00    +0.000 C 
ATOM     32  C   UNL     1       1.500   2.616  20.661  0.00  0.00    +0.000 C 
ATOM     33  C   UNL     1       0.785   3.909  20.277  0.00  0.00    +0.000 C 
ENDBRANCH  27  28
BRANCH  27  34
ATOM     34  N   UNL     1       2.603   6.803  20.373  0.00  0.00    +0.000 NA
ATOM     35  H   UNL     1       3.419   7.379  20.159  0.00  0.00    +0.000 HD
ATOM     36  H   UNL     1       2.496   6.824  21.384  0.00  0.00    +0.000 HD
ENDBRANCH  27  34
ENDBRANCH  24  27
ENDBRANCH  22  23
ENDBRANCH   2  22
TORSDOF 11
ENDMDL
