MODEL 1
REMARK VINA RESULT:      -8.9      0.000      0.000
REMARK  Name = 
REMARK  6 active torsions:
REMARK  status: ('A' for Active; 'I' for Inactive)
REMARK    1  A    between atoms: C_1  and  C_2
REMARK    2  A    between atoms: C_3  and  C_4
REMARK    3  A    between atoms: C_12  and  C_13
REMARK    4  A    between atoms: C_16  and  C_17
REMARK    5  A    between atoms: C_20  and  O_21
REMARK    6  A    between atoms: O_21  and  C_22
REMARK                            x       y       z     vdW  Elec       q    Type
REMARK                         _______ _______ _______ _____ _____    ______ ____
ROOT
ATOM      1  C   UNL     1      -0.730  12.985  19.334  0.00  0.00    +0.000 C 
ATOM      2  O   UNL     1      -0.667  13.045  18.110  0.00  0.00    +0.000 OA
ATOM      3  N   UNL     1      -0.064  12.026  20.084  0.00  0.00    +0.000 N 
ATOM      4  C   UNL     1      -0.182  11.882  21.547  0.00  0.00    +0.000 C 
ATOM      5  C   UNL     1      -0.510  10.440  21.964  0.00  0.00    +0.000 C 
ATOM      6  C   UNL     1       0.325   9.498  21.184  0.00  0.00    +0.000 A 
ATOM      7  N   UNL     1       0.569   8.162  21.498  0.00  0.00    +0.000 N 
ATOM      8  C   UNL     1       1.330   7.652  20.493  0.00  0.00    +0.000 A 
ATOM      9  C   UNL     1       1.869   6.487  20.032  0.00  0.00    +0.000 A 
ATOM     10  C   UNL     1       2.572   6.906  18.834  0.00  0.00    +0.000 A 
ATOM     11  N   UNL     1       2.378   8.229  18.576  0.00  0.00    +0.000 NA
ATOM     12  N   UNL     1       1.611   8.663  19.596  0.00  0.00    +0.000 N 
ATOM     13  C   UNL     1       0.971   9.822  20.041  0.00  0.00    +0.000 A 
ATOM     14  C   UNL     1       0.926  11.154  19.389  0.00  0.00    +0.000 C 
ATOM     15  H   UNL     1      -0.088   7.654  22.080  0.00  0.00    +0.000 HD
ENDROOT
BRANCH  10  16
ATOM     16  C   UNL     1       3.471   6.088  17.987  0.00  0.00    +0.000 A 
ATOM     17  C   UNL     1       4.704   6.576  17.531  0.00  0.00    +0.000 A 
ATOM     18  C   UNL     1       5.575   5.756  16.787  0.00  0.00    +0.000 A 
ATOM     19  C   UNL     1       5.231   4.434  16.489  0.00  0.00    +0.000 A 
ATOM     20  C   UNL     1       3.970   3.972  16.859  0.00  0.00    +0.000 A 
ATOM     21  C   UNL     1       3.126   4.774  17.636  0.00  0.00    +0.000 A 
BRANCH  19  22
ATOM     22  O   UNL     1       6.156   3.685  15.792  0.00  0.00    +0.000 OA
BRANCH  22  23
ATOM     23  C   UNL     1       6.503   4.025  14.498  0.00  0.00    +0.000 A 
ATOM     24  C   UNL     1       5.767   3.405  13.482  0.00  0.00    +0.000 A 
ATOM     25  C   UNL     1       6.042   3.679  12.138  0.00  0.00    +0.000 A 
ATOM     26  C   UNL     1       7.057   4.573  11.800  0.00  0.00    +0.000 A 
ATOM     27  C   UNL     1       7.770   5.219  12.807  0.00  0.00    +0.000 A 
ATOM     28  C   UNL     1       7.474   4.970  14.150  0.00  0.00    +0.000 A 
ENDBRANCH  22  23
ENDBRANCH  19  22
ENDBRANCH  10  16
BRANCH   9  29
ATOM     29  C   UNL     1       1.736   5.184  20.649  0.00  0.00    +0.000 C 
ATOM     30  N   UNL     1       2.802   4.786  21.405  0.00  0.00    +0.000 N 
ATOM     31  O   UNL     1       0.768   4.446  20.515  0.00  0.00    +0.000 OA
ATOM     32  H   UNL     1       3.684   5.281  21.375  0.00  0.00    +0.000 HD
ATOM     33  H   UNL     1       2.783   3.837  21.758  0.00  0.00    +0.000 HD
ENDBRANCH   9  29
BRANCH   1  36
ATOM     34  C   UNL     1      -1.783  16.300  21.018  0.00  0.00    +0.000 C 
ATOM     35  C   UNL     1      -1.085  15.254  20.212  0.00  0.00    +0.000 C 
ATOM     36  C   UNL     1      -1.534  13.996  20.076  0.00  0.00    +0.000 C 
ENDBRANCH   1  36
TORSDOF 5
ENDMDL
MODEL 2
REMARK VINA RESULT:      -8.6      0.588      1.066
REMARK  Name = 
REMARK  6 active torsions:
REMARK  status: ('A' for Active; 'I' for Inactive)
REMARK    1  A    between atoms: C_1  and  C_2
REMARK    2  A    between atoms: C_3  and  C_4
REMARK    3  A    between atoms: C_12  and  C_13
REMARK    4  A    between atoms: C_16  and  C_17
REMARK    5  A    between atoms: C_20  and  O_21
REMARK    6  A    between atoms: O_21  and  C_22
REMARK                            x       y       z     vdW  Elec       q    Type
REMARK                         _______ _______ _______ _____ _____    ______ ____
ROOT
ATOM      1  C   UNL     1      -0.568  12.759  19.371  0.00  0.00    +0.000 C 
ATOM      2  O   UNL     1      -0.489  12.811  18.148  0.00  0.00    +0.000 OA
ATOM      3  N   UNL     1       0.067  11.789  20.133  0.00  0.00    +0.000 N 
ATOM      4  C   UNL     1      -0.072  11.656  21.596  0.00  0.00    +0.000 C 
ATOM      5  C   UNL     1      -0.437  10.224  22.016  0.00  0.00    +0.000 C 
ATOM      6  C   UNL     1       0.386   9.259  21.251  0.00  0.00    +0.000 A 
ATOM      7  N   UNL     1       0.595   7.920  21.575  0.00  0.00    +0.000 N 
ATOM      8  C   UNL     1       1.357   7.387  20.581  0.00  0.00    +0.000 A 
ATOM      9  C   UNL     1       1.875   6.207  20.133  0.00  0.00    +0.000 A 
ATOM     10  C   UNL     1       2.602   6.604  18.942  0.00  0.00    +0.000 A 
ATOM     11  N   UNL     1       2.440   7.930  18.675  0.00  0.00    +0.000 NA
ATOM     12  N   UNL     1       1.671   8.386  19.683  0.00  0.00    +0.000 N 
ATOM     13  C   UNL     1       1.053   9.562  20.114  0.00  0.00    +0.000 A 
ATOM     14  C   UNL     1       1.046  10.891  19.455  0.00  0.00    +0.000 C 
ATOM     15  H   UNL     1      -0.080   7.429  22.152  0.00  0.00    +0.000 HD
ENDROOT
BRANCH  10  16
ATOM     16  C   UNL     1       3.492   5.762  18.110  0.00  0.00    +0.000 A 
ATOM     17  C   UNL     1       3.120   4.474  17.699  0.00  0.00    +0.000 A 
ATOM     18  C   UNL     1       3.951   3.719  16.848  0.00  0.00    +0.000 A 
ATOM     19  C   UNL     1       5.165   4.239  16.389  0.00  0.00    +0.000 A 
ATOM     20  C   UNL     1       5.583   5.479  16.866  0.00  0.00    +0.000 A 
ATOM     21  C   UNL     1       4.736   6.245  17.675  0.00  0.00    +0.000 A 
BRANCH  19  22
ATOM     22  O   UNL     1       5.901   3.453  15.527  0.00  0.00    +0.000 OA
BRANCH  22  23
ATOM     23  C   UNL     1       6.441   3.991  14.374  0.00  0.00    +0.000 A 
ATOM     24  C   UNL     1       5.948   3.479  13.168  0.00  0.00    +0.000 A 
ATOM     25  C   UNL     1       6.431   3.954  11.945  0.00  0.00    +0.000 A 
ATOM     26  C   UNL     1       7.412   4.943  11.918  0.00  0.00    +0.000 A 
ATOM     27  C   UNL     1       7.884   5.481  13.113  0.00  0.00    +0.000 A 
ATOM     28  C   UNL     1       7.377   5.030  14.335  0.00  0.00    +0.000 A 
ENDBRANCH  22  23
ENDBRANCH  19  22
ENDBRANCH  10  16
BRANCH   9  29
ATOM     29  C   UNL     1       1.705   4.911  20.755  0.00  0.00    +0.000 C 
ATOM     30  N   UNL     1       2.680   4.560  21.644  0.00  0.00    +0.000 N 
ATOM     31  O   UNL     1       0.783   4.141  20.518  0.00  0.00    +0.000 OA
ATOM     32  H   UNL     1       3.544   5.082  21.714  0.00  0.00    +0.000 HD
ATOM     33  H   UNL     1       2.646   3.616  22.011  0.00  0.00    +0.000 HD
ENDBRANCH   9  29
BRANCH   1  36
ATOM     34  C   UNL     1      -3.522  14.570  21.082  0.00  0.00    +0.000 C 
ATOM     35  C   UNL     1      -2.634  13.555  20.438  0.00  0.00    +0.000 C 
ATOM     36  C   UNL     1      -1.357  13.792  20.098  0.00  0.00    +0.000 C 
ENDBRANCH   1  36
TORSDOF 5
ENDMDL
MODEL 3
REMARK VINA RESULT:      -8.6      0.587      1.085
REMARK  Name = 
REMARK  6 active torsions:
REMARK  status: ('A' for Active; 'I' for Inactive)
REMARK    1  A    between atoms: C_1  and  C_2
REMARK    2  A    between atoms: C_3  and  C_4
REMARK    3  A    between atoms: C_12  and  C_13
REMARK    4  A    between atoms: C_16  and  C_17
REMARK    5  A    between atoms: C_20  and  O_21
REMARK    6  A    between atoms: O_21  and  C_22
REMARK                            x       y       z     vdW  Elec       q    Type
REMARK                         _______ _______ _______ _____ _____    ______ ____
ROOT
ATOM      1  C   UNL     1      -0.881  12.828  19.566  0.00  0.00    +0.000 C 
ATOM      2  O   UNL     1      -0.820  12.918  18.344  0.00  0.00    +0.000 OA
ATOM      3  N   UNL     1      -0.197  11.863  20.292  0.00  0.00    +0.000 N 
ATOM      4  C   UNL     1      -0.311  11.682  21.751  0.00  0.00    +0.000 C 
ATOM      5  C   UNL     1      -0.612  10.225  22.133  0.00  0.00    +0.000 C 
ATOM      6  C   UNL     1       0.239   9.317  21.330  0.00  0.00    +0.000 A 
ATOM      7  N   UNL     1       0.507   7.979  21.612  0.00  0.00    +0.000 N 
ATOM      8  C   UNL     1       1.276   7.507  20.594  0.00  0.00    +0.000 A 
ATOM      9  C   UNL     1       1.836   6.362  20.106  0.00  0.00    +0.000 A 
ATOM     10  C   UNL     1       2.530   6.823  18.918  0.00  0.00    +0.000 A 
ATOM     11  N   UNL     1       2.311   8.149  18.692  0.00  0.00    +0.000 NA
ATOM     12  N   UNL     1       1.537   8.543  19.722  0.00  0.00    +0.000 N 
ATOM     13  C   UNL     1       0.878   9.680  20.195  0.00  0.00    +0.000 A 
ATOM     14  C   UNL     1       0.808  11.026  19.576  0.00  0.00    +0.000 C 
ATOM     15  H   UNL     1      -0.140   7.445  22.183  0.00  0.00    +0.000 HD
ENDROOT
BRANCH  10  16
ATOM     16  C   UNL     1       3.442   6.042  18.051  0.00  0.00    +0.000 A 
ATOM     17  C   UNL     1       4.613   6.600  17.517  0.00  0.00    +0.000 A 
ATOM     18  C   UNL     1       5.503   5.818  16.755  0.00  0.00    +0.000 A 
ATOM     19  C   UNL     1       5.241   4.466  16.515  0.00  0.00    +0.000 A 
ATOM     20  C   UNL     1       4.037   3.930  16.963  0.00  0.00    +0.000 A 
ATOM     21  C   UNL     1       3.176   4.695  17.758  0.00  0.00    +0.000 A 
BRANCH  19  22
ATOM     22  O   UNL     1       6.182   3.761  15.794  0.00  0.00    +0.000 OA
BRANCH  22  23
ATOM     23  C   UNL     1       6.333   3.976  14.437  0.00  0.00    +0.000 A 
ATOM     24  C   UNL     1       7.426   4.763  14.058  0.00  0.00    +0.000 A 
ATOM     25  C   UNL     1       7.666   5.043  12.709  0.00  0.00    +0.000 A 
ATOM     26  C   UNL     1       6.814   4.538  11.729  0.00  0.00    +0.000 A 
ATOM     27  C   UNL     1       5.743   3.726  12.096  0.00  0.00    +0.000 A 
ATOM     28  C   UNL     1       5.522   3.420  13.442  0.00  0.00    +0.000 A 
ENDBRANCH  22  23
ENDBRANCH  19  22
ENDBRANCH  10  16
BRANCH   9  29
ATOM     29  C   UNL     1       1.727   5.043  20.691  0.00  0.00    +0.000 C 
ATOM     30  N   UNL     1       2.735   4.701  21.546  0.00  0.00    +0.000 N 
ATOM     31  O   UNL     1       0.827   4.248  20.452  0.00  0.00    +0.000 OA
ATOM     32  H   UNL     1       3.582   5.251  21.611  0.00  0.00    +0.000 HD
ATOM     33  H   UNL     1       2.743   3.746  21.884  0.00  0.00    +0.000 HD
ENDBRANCH   9  29
BRANCH   1  36
ATOM     34  C   UNL     1      -3.919  14.546  21.223  0.00  0.00    +0.000 C 
ATOM     35  C   UNL     1      -3.007  13.575  20.549  0.00  0.00    +0.000 C 
ATOM     36  C   UNL     1      -1.702  13.806  20.332  0.00  0.00    +0.000 C 
ENDBRANCH   1  36
TORSDOF 5
ENDMDL
MODEL 4
REMARK VINA RESULT:      -8.6      1.657      2.277
REMARK  Name = 
REMARK  6 active torsions:
REMARK  status: ('A' for Active; 'I' for Inactive)
REMARK    1  A    between atoms: C_1  and  C_2
REMARK    2  A    between atoms: C_3  and  C_4
REMARK    3  A    between atoms: C_12  and  C_13
REMARK    4  A    between atoms: C_16  and  C_17
REMARK    5  A    between atoms: C_20  and  O_21
REMARK    6  A    between atoms: O_21  and  C_22
REMARK                            x       y       z     vdW  Elec       q    Type
REMARK                         _______ _______ _______ _____ _____    ______ ____
ROOT
ATOM      1  C   UNL     1      -1.009  11.445  19.584  0.00  0.00    +0.000 C 
ATOM      2  O   UNL     1      -1.168  11.579  18.375  0.00  0.00    +0.000 OA
ATOM      3  N   UNL     1      -0.036  10.623  20.136  0.00  0.00    +0.000 N 
ATOM      4  C   UNL     1       0.129  10.382  21.582  0.00  0.00    +0.000 C 
ATOM      5  C   UNL     1       0.193   8.884  21.917  0.00  0.00    +0.000 C 
ATOM      6  C   UNL     1       1.066   8.195  20.939  0.00  0.00    +0.000 A 
ATOM      7  N   UNL     1       1.639   6.935  21.095  0.00  0.00    +0.000 N 
ATOM      8  C   UNL     1       2.311   6.661  19.944  0.00  0.00    +0.000 A 
ATOM      9  C   UNL     1       3.002   5.672  19.306  0.00  0.00    +0.000 A 
ATOM     10  C   UNL     1       3.385   6.300  18.056  0.00  0.00    +0.000 A 
ATOM     11  N   UNL     1       2.871   7.557  17.947  0.00  0.00    +0.000 NA
ATOM     12  N   UNL     1       2.213   7.753  19.106  0.00  0.00    +0.000 N 
ATOM     13  C   UNL     1       1.425   8.715  19.743  0.00  0.00    +0.000 A 
ATOM     14  C   UNL     1       0.986  10.033  19.224  0.00  0.00    +0.000 C 
ATOM     15  H   UNL     1       1.215   6.262  21.725  0.00  0.00    +0.000 HD
ENDROOT
BRANCH  10  16
ATOM     16  C   UNL     1       4.281   5.750  17.012  0.00  0.00    +0.000 A 
ATOM     17  C   UNL     1       4.370   4.373  16.764  0.00  0.00    +0.000 A 
ATOM     18  C   UNL     1       5.174   3.878  15.718  0.00  0.00    +0.000 A 
ATOM     19  C   UNL     1       5.900   4.749  14.901  0.00  0.00    +0.000 A 
ATOM     20  C   UNL     1       5.890   6.109  15.200  0.00  0.00    +0.000 A 
ATOM     21  C   UNL     1       5.055   6.603  16.210  0.00  0.00    +0.000 A 
BRANCH  19  22
ATOM     22  O   UNL     1       6.631   4.188  13.875  0.00  0.00    +0.000 OA
BRANCH  22  23
ATOM     23  C   UNL     1       5.995   3.553  12.825  0.00  0.00    +0.000 A 
ATOM     24  C   UNL     1       6.707   2.514  12.214  0.00  0.00    +0.000 A 
ATOM     25  C   UNL     1       6.153   1.810  11.140  0.00  0.00    +0.000 A 
ATOM     26  C   UNL     1       4.884   2.139  10.668  0.00  0.00    +0.000 A 
ATOM     27  C   UNL     1       4.156   3.149  11.293  0.00  0.00    +0.000 A 
ATOM     28  C   UNL     1       4.696   3.831  12.387  0.00  0.00    +0.000 A 
ENDBRANCH  22  23
ENDBRANCH  19  22
ENDBRANCH  10  16
BRANCH   9  29
ATOM     29  C   UNL     1       3.257   4.344  19.820  0.00  0.00    +0.000 C 
ATOM     30  N   UNL     1       2.143   3.615  20.129  0.00  0.00    +0.000 N 
ATOM     31  O   UNL     1       4.371   3.870  20.003  0.00  0.00    +0.000 OA
ATOM     32  H   UNL     1       1.228   4.044  20.173  0.00  0.00    +0.000 HD
ATOM     33  H   UNL     1       2.293   2.726  20.591  0.00  0.00    +0.000 HD
ENDBRANCH   9  29
BRANCH   1  36
ATOM     34  C   UNL     1      -3.978  13.479  20.991  0.00  0.00    +0.000 C 
ATOM     35  C   UNL     1      -3.090  12.628  20.143  0.00  0.00    +0.000 C 
ATOM     36  C   UNL     1      -1.873  12.209  20.526  0.00  0.00    +0.000 C 
ENDBRANCH   1  36
TORSDOF 5
ENDMDL
MODEL 5
REMARK VINA RESULT:      -8.6      0.322      1.198
REMARK  Name = 
REMARK  6 active torsions:
REMARK  status: ('A' for Active; 'I' for Inactive)
REMARK    1  A    between atoms: C_1  and  C_2
REMARK    2  A    between atoms: C_3  and  C_4
REMARK    3  A    between atoms: C_12  and  C_13
REMARK    4  A    between atoms: C_16  and  C_17
REMARK    5  A    between atoms: C_20  and  O_21
REMARK    6  A    between atoms: O_21  and  C_22
REMARK                            x       y       z     vdW  Elec       q    Type
REMARK                         _______ _______ _______ _____ _____    ______ ____
ROOT
ATOM      1  C   UNL     1      -0.515  12.926  19.184  0.00  0.00    +0.000 C 
ATOM      2  O   UNL     1      -0.441  12.960  17.959  0.00  0.00    +0.000 OA
ATOM      3  N   UNL     1       0.117  11.962  19.957  0.00  0.00    +0.000 N 
ATOM      4  C   UNL     1      -0.016  11.850  21.422  0.00  0.00    +0.000 C 
ATOM      5  C   UNL     1      -0.388  10.426  21.863  0.00  0.00    +0.000 C 
ATOM      6  C   UNL     1       0.424   9.445  21.107  0.00  0.00    +0.000 A 
ATOM      7  N   UNL     1       0.626   8.109  21.449  0.00  0.00    +0.000 N 
ATOM      8  C   UNL     1       1.379   7.558  20.459  0.00  0.00    +0.000 A 
ATOM      9  C   UNL     1       1.887   6.368  20.025  0.00  0.00    +0.000 A 
ATOM     10  C   UNL     1       2.610   6.744  18.825  0.00  0.00    +0.000 A 
ATOM     11  N   UNL     1       2.457   8.067  18.540  0.00  0.00    +0.000 NA
ATOM     12  N   UNL     1       1.695   8.542  19.545  0.00  0.00    +0.000 N 
ATOM     13  C   UNL     1       1.088   9.728  19.964  0.00  0.00    +0.000 A 
ATOM     14  C   UNL     1       1.086  11.048  19.286  0.00  0.00    +0.000 C 
ATOM     15  H   UNL     1      -0.050   7.631  22.035  0.00  0.00    +0.000 HD
ENDROOT
BRANCH  10  16
ATOM     16  C   UNL     1       3.491   5.884  18.000  0.00  0.00    +0.000 A 
ATOM     17  C   UNL     1       3.341   4.490  17.964  0.00  0.00    +0.000 A 
ATOM     18  C   UNL     1       4.142   3.700  17.117  0.00  0.00    +0.000 A 
ATOM     19  C   UNL     1       5.103   4.286  16.289  0.00  0.00    +0.000 A 
ATOM     20  C   UNL     1       5.321   5.658  16.388  0.00  0.00    +0.000 A 
ATOM     21  C   UNL     1       4.494   6.448  17.196  0.00  0.00    +0.000 A 
BRANCH  19  22
ATOM     22  O   UNL     1       5.818   3.447  15.461  0.00  0.00    +0.000 OA
BRANCH  22  23
ATOM     23  C   UNL     1       6.305   3.902  14.251  0.00  0.00    +0.000 A 
ATOM     24  C   UNL     1       7.345   4.837  14.320  0.00  0.00    +0.000 A 
ATOM     25  C   UNL     1       7.907   5.362  13.152  0.00  0.00    +0.000 A 
ATOM     26  C   UNL     1       7.432   4.959  11.905  0.00  0.00    +0.000 A 
ATOM     27  C   UNL     1       6.420   4.004  11.828  0.00  0.00    +0.000 A 
ATOM     28  C   UNL     1       5.881   3.455  12.995  0.00  0.00    +0.000 A 
ENDBRANCH  22  23
ENDBRANCH  19  22
ENDBRANCH  10  16
BRANCH   9  29
ATOM     29  C   UNL     1       1.711   5.082  20.665  0.00  0.00    +0.000 C 
ATOM     30  N   UNL     1       2.678   4.745  21.569  0.00  0.00    +0.000 N 
ATOM     31  O   UNL     1       0.791   4.308  20.432  0.00  0.00    +0.000 OA
ATOM     32  H   UNL     1       3.542   5.268  21.637  0.00  0.00    +0.000 HD
ATOM     33  H   UNL     1       2.640   3.807  21.950  0.00  0.00    +0.000 HD
ENDBRANCH   9  29
BRANCH   1  36
ATOM     34  C   UNL     1      -1.538  16.337  20.684  0.00  0.00    +0.000 C 
ATOM     35  C   UNL     1      -0.868  15.247  19.913  0.00  0.00    +0.000 C 
ATOM     36  C   UNL     1      -1.294  13.974  19.900  0.00  0.00    +0.000 C 
ENDBRANCH   1  36
TORSDOF 5
ENDMDL
MODEL 6
REMARK VINA RESULT:      -8.6      3.443     11.942
REMARK  Name = 
REMARK  6 active torsions:
REMARK  status: ('A' for Active; 'I' for Inactive)
REMARK    1  A    between atoms: C_1  and  C_2
REMARK    2  A    between atoms: C_3  and  C_4
REMARK    3  A    between atoms: C_12  and  C_13
REMARK    4  A    between atoms: C_16  and  C_17
REMARK    5  A    between atoms: C_20  and  O_21
REMARK    6  A    between atoms: O_21  and  C_22
REMARK                            x       y       z     vdW  Elec       q    Type
REMARK                         _______ _______ _______ _____ _____    ______ ____
ROOT
ATOM      1  C   UNL     1       2.095   5.214  19.903  0.00  0.00    +0.000 C 
ATOM      2  O   UNL     1       1.348   4.860  20.810  0.00  0.00    +0.000 OA
ATOM      3  N   UNL     1       2.321   6.544  19.580  0.00  0.00    +0.000 N 
ATOM      4  C   UNL     1       3.152   6.997  18.448  0.00  0.00    +0.000 C 
ATOM      5  C   UNL     1       2.420   8.017  17.563  0.00  0.00    +0.000 C 
ATOM      6  C   UNL     1       1.719   9.002  18.419  0.00  0.00    +0.000 A 
ATOM      7  N   UNL     1       1.241  10.247  18.015  0.00  0.00    +0.000 N 
ATOM      8  C   UNL     1       0.615  10.797  19.090  0.00  0.00    +0.000 A 
ATOM      9  C   UNL     1      -0.141  11.869  19.468  0.00  0.00    +0.000 A 
ATOM     10  C   UNL     1      -0.367  11.625  20.880  0.00  0.00    +0.000 A 
ATOM     11  N   UNL     1       0.163  10.433  21.274  0.00  0.00    +0.000 NA
ATOM     12  N   UNL     1       0.750   9.942  20.165  0.00  0.00    +0.000 N 
ATOM     13  C   UNL     1       1.448   8.812  19.730  0.00  0.00    +0.000 A 
ATOM     14  C   UNL     1       1.789   7.591  20.499  0.00  0.00    +0.000 C 
ATOM     15  H   UNL     1       1.026  10.412  17.037  0.00  0.00    +0.000 HD
ENDROOT
BRANCH  10  16
ATOM     16  C   UNL     1      -1.009  12.533  21.857  0.00  0.00    +0.000 A 
ATOM     17  C   UNL     1      -2.256  12.242  22.429  0.00  0.00    +0.000 A 
ATOM     18  C   UNL     1      -2.814  13.084  23.411  0.00  0.00    +0.000 A 
ATOM     19  C   UNL     1      -2.137  14.228  23.841  0.00  0.00    +0.000 A 
ATOM     20  C   UNL     1      -0.943  14.573  23.212  0.00  0.00    +0.000 A 
ATOM     21  C   UNL     1      -0.368  13.712  22.270  0.00  0.00    +0.000 A 
BRANCH  19  22
ATOM     22  O   UNL     1      -2.732  14.978  24.834  0.00  0.00    +0.000 OA
BRANCH  22  23
ATOM     23  C   UNL     1      -2.029  15.980  25.475  0.00  0.00    +0.000 A 
ATOM     24  C   UNL     1      -2.438  17.290  25.200  0.00  0.00    +0.000 A 
ATOM     25  C   UNL     1      -1.790  18.376  25.796  0.00  0.00    +0.000 A 
ATOM     26  C   UNL     1      -0.727  18.161  26.670  0.00  0.00    +0.000 A 
ATOM     27  C   UNL     1      -0.336  16.860  26.975  0.00  0.00    +0.000 A 
ATOM     28  C   UNL     1      -1.005  15.773  26.405  0.00  0.00    +0.000 A 
ENDBRANCH  22  23
ENDBRANCH  19  22
ENDBRANCH  10  16
BRANCH   9  29
ATOM     29  C   UNL     1      -0.569  12.953  18.611  0.00  0.00    +0.000 C 
ATOM     30  N   UNL     1      -1.381  12.590  17.574  0.00  0.00    +0.000 N 
ATOM     31  O   UNL     1      -0.239  14.124  18.751  0.00  0.00    +0.000 OA
ATOM     32  H   UNL     1      -1.510  11.619  17.320  0.00  0.00    +0.000 HD
ATOM     33  H   UNL     1      -1.606  13.309  16.896  0.00  0.00    +0.000 HD
ENDBRANCH   9  29
BRANCH   1  36
ATOM     34  C   UNL     1       2.800   2.204  17.584  0.00  0.00    +0.000 C 
ATOM     35  C   UNL     1       2.153   3.324  18.333  0.00  0.00    +0.000 C 
ATOM     36  C   UNL     1       2.826   4.184  19.113  0.00  0.00    +0.000 C 
ENDBRANCH   1  36
TORSDOF 5
ENDMDL
MODEL 7
REMARK VINA RESULT:      -8.4      3.381     12.145
REMARK  Name = 
REMARK  6 active torsions:
REMARK  status: ('A' for Active; 'I' for Inactive)
REMARK    1  A    between atoms: C_1  and  C_2
REMARK    2  A    between atoms: C_3  and  C_4
REMARK    3  A    between atoms: C_12  and  C_13
REMARK    4  A    between atoms: C_16  and  C_17
REMARK    5  A    between atoms: C_20  and  O_21
REMARK    6  A    between atoms: O_21  and  C_22
REMARK                            x       y       z     vdW  Elec       q    Type
REMARK                         _______ _______ _______ _____ _____    ______ ____
ROOT
ATOM      1  C   UNL     1       2.052   5.333  19.912  0.00  0.00    +0.000 C 
ATOM      2  O   UNL     1       1.356   4.904  20.826  0.00  0.00    +0.000 OA
ATOM      3  N   UNL     1       2.205   6.686  19.644  0.00  0.00    +0.000 N 
ATOM      4  C   UNL     1       2.972   7.229  18.506  0.00  0.00    +0.000 C 
ATOM      5  C   UNL     1       2.162   8.253  17.697  0.00  0.00    +0.000 C 
ATOM      6  C   UNL     1       1.450   9.164  18.622  0.00  0.00    +0.000 A 
ATOM      7  N   UNL     1       0.901  10.402  18.295  0.00  0.00    +0.000 N 
ATOM      8  C   UNL     1       0.291  10.872  19.416  0.00  0.00    +0.000 A 
ATOM      9  C   UNL     1      -0.498  11.889  19.870  0.00  0.00    +0.000 A 
ATOM     10  C   UNL     1      -0.659  11.570  21.277  0.00  0.00    +0.000 A 
ATOM     11  N   UNL     1      -0.061  10.388  21.595  0.00  0.00    +0.000 NA
ATOM     12  N   UNL     1       0.505   9.976  20.444  0.00  0.00    +0.000 N 
ATOM     13  C   UNL     1       1.236   8.902  19.931  0.00  0.00    +0.000 A 
ATOM     14  C   UNL     1       1.661   7.664  20.630  0.00  0.00    +0.000 C 
ATOM     15  H   UNL     1       0.643  10.601  17.334  0.00  0.00    +0.000 HD
ENDROOT
BRANCH  10  16
ATOM     16  C   UNL     1      -1.305  12.402  22.318  0.00  0.00    +0.000 A 
ATOM     17  C   UNL     1      -0.749  13.617  22.744  0.00  0.00    +0.000 A 
ATOM     18  C   UNL     1      -1.418  14.427  23.683  0.00  0.00    +0.000 A 
ATOM     19  C   UNL     1      -2.653  14.040  24.210  0.00  0.00    +0.000 A 
ATOM     20  C   UNL     1      -3.166  12.793  23.862  0.00  0.00    +0.000 A 
ATOM     21  C   UNL     1      -2.523  12.011  22.895  0.00  0.00    +0.000 A 
BRANCH  19  22
ATOM     22  O   UNL     1      -3.261  14.908  25.093  0.00  0.00    +0.000 OA
BRANCH  22  23
ATOM     23  C   UNL     1      -4.188  15.830  24.646  0.00  0.00    +0.000 A 
ATOM     24  C   UNL     1      -3.984  17.153  25.054  0.00  0.00    +0.000 A 
ATOM     25  C   UNL     1      -4.867  18.162  24.658  0.00  0.00    +0.000 A 
ATOM     26  C   UNL     1      -5.963  17.856  23.853  0.00  0.00    +0.000 A 
ATOM     27  C   UNL     1      -6.155  16.547  23.416  0.00  0.00    +0.000 A 
ATOM     28  C   UNL     1      -5.253  15.545  23.785  0.00  0.00    +0.000 A 
ENDBRANCH  22  23
ENDBRANCH  19  22
ENDBRANCH  10  16
BRANCH   9  29
ATOM     29  C   UNL     1      -1.006  12.990  19.081  0.00  0.00    +0.000 C 
ATOM     30  N   UNL     1      -1.795  12.634  18.025  0.00  0.00    +0.000 N 
ATOM     31  O   UNL     1      -0.759  14.171  19.293  0.00  0.00    +0.000 OA
ATOM     32  H   UNL     1      -1.856  11.673  17.712  0.00  0.00    +0.000 HD
ATOM     33  H   UNL     1      -2.074  13.375  17.392  0.00  0.00    +0.000 HD
ENDBRANCH   9  29
BRANCH   1  36
ATOM     34  C   UNL     1       2.806   2.458  17.442  0.00  0.00    +0.000 C 
ATOM     35  C   UNL     1       2.136   3.511  18.264  0.00  0.00    +0.000 C 
ATOM     36  C   UNL     1       2.798   4.376  19.048  0.00  0.00    +0.000 C 
ENDBRANCH   1  36
TORSDOF 5
ENDMDL
MODEL 8
REMARK VINA RESULT:      -8.3      1.293      1.620
REMARK  Name = 
REMARK  6 active torsions:
REMARK  status: ('A' for Active; 'I' for Inactive)
REMARK    1  A    between atoms: C_1  and  C_2
REMARK    2  A    between atoms: C_3  and  C_4
REMARK    3  A    between atoms: C_12  and  C_13
REMARK    4  A    between atoms: C_16  and  C_17
REMARK    5  A    between atoms: C_20  and  O_21
REMARK    6  A    between atoms: O_21  and  C_22
REMARK                            x       y       z     vdW  Elec       q    Type
REMARK                         _______ _______ _______ _____ _____    ______ ____
ROOT
ATOM      1  C   UNL     1      -1.202  12.397  20.217  0.00  0.00    +0.000 C 
ATOM      2  O   UNL     1      -1.060  12.691  19.034  0.00  0.00    +0.000 OA
ATOM      3  N   UNL     1      -0.470  11.399  20.845  0.00  0.00    +0.000 N 
ATOM      4  C   UNL     1      -0.672  10.971  22.242  0.00  0.00    +0.000 C 
ATOM      5  C   UNL     1      -0.834   9.448  22.364  0.00  0.00    +0.000 C 
ATOM      6  C   UNL     1       0.173   8.773  21.512  0.00  0.00    +0.000 A 
ATOM      7  N   UNL     1       0.569   7.441  21.607  0.00  0.00    +0.000 N 
ATOM      8  C   UNL     1       1.461   7.221  20.604  0.00  0.00    +0.000 A 
ATOM      9  C   UNL     1       2.183   6.234  19.999  0.00  0.00    +0.000 A 
ATOM     10  C   UNL     1       2.908   6.950  18.966  0.00  0.00    +0.000 A 
ATOM     11  N   UNL     1       2.558   8.267  18.929  0.00  0.00    +0.000 NA
ATOM     12  N   UNL     1       1.668   8.408  19.931  0.00  0.00    +0.000 N 
ATOM     13  C   UNL     1       0.850   9.380  20.512  0.00  0.00    +0.000 A 
ATOM     14  C   UNL     1       0.675  10.795  20.104  0.00  0.00    +0.000 C 
ATOM     15  H   UNL     1      -0.055   6.758  22.025  0.00  0.00    +0.000 HD
ENDROOT
BRANCH  10  16
ATOM     16  C   UNL     1       3.966   6.418  18.076  0.00  0.00    +0.000 A 
ATOM     17  C   UNL     1       4.199   6.953  16.802  0.00  0.00    +0.000 A 
ATOM     18  C   UNL     1       5.258   6.479  16.002  0.00  0.00    +0.000 A 
ATOM     19  C   UNL     1       6.103   5.466  16.463  0.00  0.00    +0.000 A 
ATOM     20  C   UNL     1       5.821   4.866  17.688  0.00  0.00    +0.000 A 
ATOM     21  C   UNL     1       4.797   5.369  18.500  0.00  0.00    +0.000 A 
BRANCH  19  22
ATOM     22  O   UNL     1       7.140   5.086  15.637  0.00  0.00    +0.000 OA
BRANCH  22  23
ATOM     23  C   UNL     1       6.888   4.636  14.355  0.00  0.00    +0.000 A 
ATOM     24  C   UNL     1       7.721   5.143  13.351  0.00  0.00    +0.000 A 
ATOM     25  C   UNL     1       7.547   4.753  12.019  0.00  0.00    +0.000 A 
ATOM     26  C   UNL     1       6.537   3.854  11.681  0.00  0.00    +0.000 A 
ATOM     27  C   UNL     1       5.726   3.319  12.679  0.00  0.00    +0.000 A 
ATOM     28  C   UNL     1       5.921   3.684  14.014  0.00  0.00    +0.000 A 
ENDBRANCH  22  23
ENDBRANCH  19  22
ENDBRANCH  10  16
BRANCH   9  29
ATOM     29  C   UNL     1       2.180   4.833  20.360  0.00  0.00    +0.000 C 
ATOM     30  N   UNL     1       1.662   3.990  19.418  0.00  0.00    +0.000 N 
ATOM     31  O   UNL     1       2.583   4.388  21.427  0.00  0.00    +0.000 OA
ATOM     32  H   UNL     1       1.149   4.342  18.620  0.00  0.00    +0.000 HD
ATOM     33  H   UNL     1       1.547   3.020  19.687  0.00  0.00    +0.000 HD
ENDBRANCH   9  29
BRANCH   1  36
ATOM     34  C   UNL     1      -4.540  13.850  21.511  0.00  0.00    +0.000 C 
ATOM     35  C   UNL     1      -3.499  13.058  20.790  0.00  0.00    +0.000 C 
ATOM     36  C   UNL     1      -2.184  13.149  21.046  0.00  0.00    +0.000 C 
ENDBRANCH   1  36
TORSDOF 5
ENDMDL
MODEL 9
REMARK VINA RESULT:      -8.3      3.460     11.831
REMARK  Name = 
REMARK  6 active torsions:
REMARK  status: ('A' for Active; 'I' for Inactive)
REMARK    1  A    between atoms: C_1  and  C_2
REMARK    2  A    between atoms: C_3  and  C_4
REMARK    3  A    between atoms: C_12  and  C_13
REMARK    4  A    between atoms: C_16  and  C_17
REMARK    5  A    between atoms: C_20  and  O_21
REMARK    6  A    between atoms: O_21  and  C_22
REMARK                            x       y       z     vdW  Elec       q    Type
REMARK                         _______ _______ _______ _____ _____    ______ ____
ROOT
ATOM      1  C   UNL     1       2.031   4.740  19.320  0.00  0.00    +0.000 C 
ATOM      2  O   UNL     1       1.046   4.329  19.925  0.00  0.00    +0.000 OA
ATOM      3  N   UNL     1       2.369   6.083  19.242  0.00  0.00    +0.000 N 
ATOM      4  C   UNL     1       3.502   6.613  18.460  0.00  0.00    +0.000 C 
ATOM      5  C   UNL     1       3.080   7.766  17.535  0.00  0.00    +0.000 C 
ATOM      6  C   UNL     1       2.182   8.686  18.270  0.00  0.00    +0.000 A 
ATOM      7  N   UNL     1       1.868   9.993  17.905  0.00  0.00    +0.000 N 
ATOM      8  C   UNL     1       0.969  10.453  18.816  0.00  0.00    +0.000 A 
ATOM      9  C   UNL     1       0.159  11.516  19.091  0.00  0.00    +0.000 A 
ATOM     10  C   UNL     1      -0.472  11.128  20.338  0.00  0.00    +0.000 A 
ATOM     11  N   UNL     1      -0.104   9.872  20.717  0.00  0.00    +0.000 NA
ATOM     12  N   UNL     1       0.769   9.477  19.769  0.00  0.00    +0.000 N 
ATOM     13  C   UNL     1       1.538   8.366  19.415  0.00  0.00    +0.000 A 
ATOM     14  C   UNL     1       1.616   7.049  20.093  0.00  0.00    +0.000 C 
ATOM     15  H   UNL     1       1.950  10.279  16.934  0.00  0.00    +0.000 HD
ENDROOT
BRANCH  10  16
ATOM     16  C   UNL     1      -1.351  11.956  21.197  0.00  0.00    +0.000 A 
ATOM     17  C   UNL     1      -1.023  12.246  22.529  0.00  0.00    +0.000 A 
ATOM     18  C   UNL     1      -1.837  13.095  23.304  0.00  0.00    +0.000 A 
ATOM     19  C   UNL     1      -2.990  13.672  22.762  0.00  0.00    +0.000 A 
ATOM     20  C   UNL     1      -3.371  13.315  21.471  0.00  0.00    +0.000 A 
ATOM     21  C   UNL     1      -2.537  12.508  20.687  0.00  0.00    +0.000 A 
BRANCH  19  22
ATOM     22  O   UNL     1      -3.710  14.522  23.574  0.00  0.00    +0.000 OA
BRANCH  22  23
ATOM     23  C   UNL     1      -5.071  14.350  23.740  0.00  0.00    +0.000 A 
ATOM     24  C   UNL     1      -5.500  13.039  23.975  0.00  0.00    +0.000 A 
ATOM     25  C   UNL     1      -6.858  12.757  24.154  0.00  0.00    +0.000 A 
ATOM     26  C   UNL     1      -7.798  13.784  24.097  0.00  0.00    +0.000 A 
ATOM     27  C   UNL     1      -7.376  15.096  23.897  0.00  0.00    +0.000 A 
ATOM     28  C   UNL     1      -6.015  15.382  23.751  0.00  0.00    +0.000 A 
ENDBRANCH  22  23
ENDBRANCH  19  22
ENDBRANCH  10  16
BRANCH   9  29
ATOM     29  C   UNL     1       0.021  12.713  18.288  0.00  0.00    +0.000 C 
ATOM     30  N   UNL     1      -1.011  12.697  17.393  0.00  0.00    +0.000 N 
ATOM     31  O   UNL     1       0.761  13.686  18.355  0.00  0.00    +0.000 OA
ATOM     32  H   UNL     1      -1.511  11.844  17.180  0.00  0.00    +0.000 HD
ATOM     33  H   UNL     1      -1.064  13.473  16.744  0.00  0.00    +0.000 HD
ENDBRANCH   9  29
BRANCH   1  36
ATOM     34  C   UNL     1       3.955   1.484  18.525  0.00  0.00    +0.000 C 
ATOM     35  C   UNL     1       3.005   2.496  19.079  0.00  0.00    +0.000 C 
ATOM     36  C   UNL     1       2.937   3.766  18.650  0.00  0.00    +0.000 C 
ENDBRANCH   1  36
TORSDOF 5
ENDMDL
