MODEL 1
REMARK VINA RESULT:      -6.4      0.000      0.000
REMARK  Name = 
REMARK  6 active torsions:
REMARK  status: ('A' for Active; 'I' for Inactive)
REMARK    1  A    between atoms: C_1  and  C_2
REMARK    2  A    between atoms: C_4  and  O_5
REMARK    3  A    between atoms: C_7  and  C_8
REMARK    4  A    between atoms: N_12  and  C_13
REMARK    5  A    between atoms: C_13  and  C_14
REMARK    6  A    between atoms: C_14  and  O_15
REMARK                            x       y       z     vdW  Elec       q    Type
REMARK                         _______ _______ _______ _____ _____    ______ ____
ROOT
ATOM      1  C   UNL     1       6.462   4.105  14.048  0.00  0.00    +0.000 C 
ATOM      2  C   UNL     1       6.242   4.859  15.321  0.00  0.00    +0.000 A 
ATOM      3  N   UNL     1       7.124   5.826  15.631  0.00  0.00    +0.000 NA
ATOM      4  C   UNL     1       6.826   6.532  16.722  0.00  0.00    +0.000 A 
ATOM      5  C   UNL     1       5.722   6.356  17.509  0.00  0.00    +0.000 A 
ATOM      6  C   UNL     1       4.874   5.339  17.122  0.00  0.00    +0.000 A 
ATOM      7  N   UNL     1       5.128   4.579  16.028  0.00  0.00    +0.000 NA
ENDROOT
BRANCH   6   8
ATOM      8  C   UNL     1       3.570   5.134  17.873  0.00  0.00    +0.000 C 
ATOM      9  C   UNL     1       3.280   6.144  18.977  0.00  0.00    +0.000 C 
ATOM     10  C   UNL     1       2.080   5.528  19.667  0.00  0.00    +0.000 C 
ATOM     11  C   UNL     1       2.231   4.024  19.452  0.00  0.00    +0.000 C 
ATOM     12  N   UNL     1       3.365   3.798  18.526  0.00  0.00    +0.000 NA
BRANCH  12  13
ATOM     13  C   UNL     1       4.575   3.327  19.247  0.00  0.00    +0.000 C 
BRANCH  13  14
ATOM     14  C   UNL     1       4.274   2.239  20.295  0.00  0.00    +0.000 C 
BRANCH  14  15
ATOM     15  O   UNL     1       5.346   1.305  20.364  0.00  0.00    +0.000 OA
ATOM     16  H   UNL     1       6.036   1.753  20.895  0.00  0.00    +0.000 HD
ENDBRANCH  14  15
ENDBRANCH  13  14
ENDBRANCH  12  13
ENDBRANCH   6   8
BRANCH   4  17
ATOM     17  O   UNL     1       7.717   7.513  17.009  0.00  0.00    +0.000 OA
ATOM     18  H   UNL     1       8.286   7.049  17.649  0.00  0.00    +0.000 HD
ENDBRANCH   4  17
TORSDOF 5
ENDMDL
MODEL 2
REMARK VINA RESULT:      -6.3      1.357      2.063
REMARK  Name = 
REMARK  6 active torsions:
REMARK  status: ('A' for Active; 'I' for Inactive)
REMARK    1  A    between atoms: C_1  and  C_2
REMARK    2  A    between atoms: C_4  and  O_5
REMARK    3  A    between atoms: C_7  and  C_8
REMARK    4  A    between atoms: N_12  and  C_13
REMARK    5  A    between atoms: C_13  and  C_14
REMARK    6  A    between atoms: C_14  and  O_15
REMARK                            x       y       z     vdW  Elec       q    Type
REMARK                         _______ _______ _______ _____ _____    ______ ____
ROOT
ATOM      1  C   UNL     1       7.738   7.677  17.793  0.00  0.00    +0.000 C 
ATOM      2  C   UNL     1       6.814   6.739  17.083  0.00  0.00    +0.000 A 
ATOM      3  N   UNL     1       7.289   6.100  15.999  0.00  0.00    +0.000 NA
ATOM      4  C   UNL     1       6.460   5.204  15.465  0.00  0.00    +0.000 A 
ATOM      5  C   UNL     1       5.213   4.892  15.931  0.00  0.00    +0.000 A 
ATOM      6  C   UNL     1       4.803   5.599  17.042  0.00  0.00    +0.000 A 
ATOM      7  N   UNL     1       5.597   6.532  17.625  0.00  0.00    +0.000 NA
ENDROOT
BRANCH   6   8
ATOM      8  C   UNL     1       3.476   5.250  17.695  0.00  0.00    +0.000 C 
ATOM      9  C   UNL     1       3.133   6.040  18.952  0.00  0.00    +0.000 C 
ATOM     10  C   UNL     1       1.918   5.299  19.473  0.00  0.00    +0.000 C 
ATOM     11  C   UNL     1       2.099   3.859  18.994  0.00  0.00    +0.000 C 
ATOM     12  N   UNL     1       3.268   3.816  18.086  0.00  0.00    +0.000 NA
BRANCH  12  13
ATOM     13  C   UNL     1       4.460   3.232  18.754  0.00  0.00    +0.000 C 
BRANCH  13  14
ATOM     14  C   UNL     1       4.102   2.183  19.825  0.00  0.00    +0.000 C 
BRANCH  14  15
ATOM     15  O   UNL     1       5.285   1.625  20.387  0.00  0.00    +0.000 OA
ATOM     16  H   UNL     1       6.019   2.027  19.879  0.00  0.00    +0.000 HD
ENDBRANCH  14  15
ENDBRANCH  13  14
ENDBRANCH  12  13
ENDBRANCH   6   8
BRANCH   4  17
ATOM     17  O   UNL     1       6.964   4.557  14.384  0.00  0.00    +0.000 OA
ATOM     18  H   UNL     1       7.551   3.916  14.824  0.00  0.00    +0.000 HD
ENDBRANCH   4  17
TORSDOF 5
ENDMDL
MODEL 3
REMARK VINA RESULT:      -6.3      2.097      5.355
REMARK  Name = 
REMARK  6 active torsions:
REMARK  status: ('A' for Active; 'I' for Inactive)
REMARK    1  A    between atoms: C_1  and  C_2
REMARK    2  A    between atoms: C_4  and  O_5
REMARK    3  A    between atoms: C_7  and  C_8
REMARK    4  A    between atoms: N_12  and  C_13
REMARK    5  A    between atoms: C_13  and  C_14
REMARK    6  A    between atoms: C_14  and  O_15
REMARK                            x       y       z     vdW  Elec       q    Type
REMARK                         _______ _______ _______ _____ _____    ______ ____
ROOT
ATOM      1  C   UNL     1       1.581   5.874  20.600  0.00  0.00    +0.000 C 
ATOM      2  C   UNL     1       2.197   4.913  19.633  0.00  0.00    +0.000 A 
ATOM      3  N   UNL     1       1.636   3.695  19.525  0.00  0.00    +0.000 NA
ATOM      4  C   UNL     1       2.161   2.916  18.579  0.00  0.00    +0.000 A 
ATOM      5  C   UNL     1       3.181   3.259  17.737  0.00  0.00    +0.000 A 
ATOM      6  C   UNL     1       3.701   4.523  17.922  0.00  0.00    +0.000 A 
ATOM      7  N   UNL     1       3.218   5.360  18.874  0.00  0.00    +0.000 NA
ENDROOT
BRANCH   6   8
ATOM      8  C   UNL     1       4.768   5.033  16.967  0.00  0.00    +0.000 C 
ATOM      9  C   UNL     1       5.453   3.970  16.118  0.00  0.00    +0.000 C 
ATOM     10  C   UNL     1       6.591   4.749  15.489  0.00  0.00    +0.000 C 
ATOM     11  C   UNL     1       6.920   5.849  16.496  0.00  0.00    +0.000 C 
ATOM     12  N   UNL     1       5.898   5.818  17.568  0.00  0.00    +0.000 NA
BRANCH  12  13
ATOM     13  C   UNL     1       6.424   5.195  18.809  0.00  0.00    +0.000 C 
BRANCH  13  14
ATOM     14  C   UNL     1       7.780   5.776  19.253  0.00  0.00    +0.000 C 
BRANCH  14  15
ATOM     15  O   UNL     1       8.071   5.393  20.593  0.00  0.00    +0.000 OA
ATOM     16  H   UNL     1       7.213   5.101  20.962  0.00  0.00    +0.000 HD
ENDBRANCH  14  15
ENDBRANCH  13  14
ENDBRANCH  12  13
ENDBRANCH   6   8
BRANCH   4  17
ATOM     17  O   UNL     1       1.571   1.699  18.473  0.00  0.00    +0.000 OA
ATOM     18  H   UNL     1       2.143   1.177  19.065  0.00  0.00    +0.000 HD
ENDBRANCH   4  17
TORSDOF 5
ENDMDL
MODEL 4
REMARK VINA RESULT:      -6.2      2.601      5.147
REMARK  Name = 
REMARK  6 active torsions:
REMARK  status: ('A' for Active; 'I' for Inactive)
REMARK    1  A    between atoms: C_1  and  C_2
REMARK    2  A    between atoms: C_4  and  O_5
REMARK    3  A    between atoms: C_7  and  C_8
REMARK    4  A    between atoms: N_12  and  C_13
REMARK    5  A    between atoms: C_13  and  C_14
REMARK    6  A    between atoms: C_14  and  O_15
REMARK                            x       y       z     vdW  Elec       q    Type
REMARK                         _______ _______ _______ _____ _____    ______ ____
ROOT
ATOM      1  C   UNL     1       2.278   2.781  21.196  0.00  0.00    +0.000 C 
ATOM      2  C   UNL     1       2.423   4.068  20.449  0.00  0.00    +0.000 A 
ATOM      3  N   UNL     1       1.880   5.170  20.997  0.00  0.00    +0.000 NA
ATOM      4  C   UNL     1       2.124   6.304  20.341  0.00  0.00    +0.000 A 
ATOM      5  C   UNL     1       2.869   6.422  19.201  0.00  0.00    +0.000 A 
ATOM      6  C   UNL     1       3.383   5.243  18.704  0.00  0.00    +0.000 A 
ATOM      7  N   UNL     1       3.161   4.055  19.320  0.00  0.00    +0.000 NA
ENDROOT
BRANCH   6   8
ATOM      8  C   UNL     1       4.309   5.286  17.500  0.00  0.00    +0.000 C 
ATOM      9  C   UNL     1       4.504   3.963  16.772  0.00  0.00    +0.000 C 
ATOM     10  C   UNL     1       5.636   4.287  15.818  0.00  0.00    +0.000 C 
ATOM     11  C   UNL     1       6.441   5.380  16.519  0.00  0.00    +0.000 C 
ATOM     12  N   UNL     1       5.702   5.794  17.734  0.00  0.00    +0.000 NA
BRANCH  12  13
ATOM     13  C   UNL     1       6.312   5.229  18.965  0.00  0.00    +0.000 C 
BRANCH  13  14
ATOM     14  C   UNL     1       7.740   5.747  19.228  0.00  0.00    +0.000 C 
BRANCH  14  15
ATOM     15  O   UNL     1       8.129   5.470  20.569  0.00  0.00    +0.000 OA
ATOM     16  H   UNL     1       8.560   6.292  20.881  0.00  0.00    +0.000 HD
ENDBRANCH  14  15
ENDBRANCH  13  14
ENDBRANCH  12  13
ENDBRANCH   6   8
BRANCH   4  17
ATOM     17  O   UNL     1       1.584   7.406  20.919  0.00  0.00    +0.000 OA
ATOM     18  H   UNL     1       0.656   7.313  20.636  0.00  0.00    +0.000 HD
ENDBRANCH   4  17
TORSDOF 5
ENDMDL
MODEL 5
REMARK VINA RESULT:      -6.2      2.477      3.462
REMARK  Name = 
REMARK  6 active torsions:
REMARK  status: ('A' for Active; 'I' for Inactive)
REMARK    1  A    between atoms: C_1  and  C_2
REMARK    2  A    between atoms: C_4  and  O_5
REMARK    3  A    between atoms: C_7  and  C_8
REMARK    4  A    between atoms: N_12  and  C_13
REMARK    5  A    between atoms: C_13  and  C_14
REMARK    6  A    between atoms: C_14  and  O_15
REMARK                            x       y       z     vdW  Elec       q    Type
REMARK                         _______ _______ _______ _____ _____    ______ ____
ROOT
ATOM      1  C   UNL     1       8.027   5.646  19.133  0.00  0.00    +0.000 C 
ATOM      2  C   UNL     1       6.989   5.071  18.223  0.00  0.00    +0.000 A 
ATOM      3  N   UNL     1       7.314   4.918  16.927  0.00  0.00    +0.000 NA
ATOM      4  C   UNL     1       6.391   4.310  16.182  0.00  0.00    +0.000 A 
ATOM      5  C   UNL     1       5.188   3.838  16.630  0.00  0.00    +0.000 A 
ATOM      6  C   UNL     1       4.935   4.041  17.970  0.00  0.00    +0.000 A 
ATOM      7  N   UNL     1       5.829   4.663  18.778  0.00  0.00    +0.000 NA
ENDROOT
BRANCH   6   8
ATOM      8  C   UNL     1       3.671   3.460  18.582  0.00  0.00    +0.000 C 
ATOM      9  C   UNL     1       2.868   2.533  17.678  0.00  0.00    +0.000 C 
ATOM     10  C   UNL     1       1.591   2.340  18.471  0.00  0.00    +0.000 C 
ATOM     11  C   UNL     1       1.435   3.623  19.285  0.00  0.00    +0.000 C 
ATOM     12  N   UNL     1       2.660   4.437  19.108  0.00  0.00    +0.000 NA
BRANCH  12  13
ATOM     13  C   UNL     1       2.432   5.573  18.178  0.00  0.00    +0.000 C 
BRANCH  13  14
ATOM     14  C   UNL     1       2.718   6.947  18.816  0.00  0.00    +0.000 C 
BRANCH  14  15
ATOM     15  O   UNL     1       2.457   6.909  20.215  0.00  0.00    +0.000 OA
ATOM     16  H   UNL     1       2.805   7.757  20.559  0.00  0.00    +0.000 HD
ENDBRANCH  14  15
ENDBRANCH  13  14
ENDBRANCH  12  13
ENDBRANCH   6   8
BRANCH   4  17
ATOM     17  O   UNL     1       6.744   4.150  14.882  0.00  0.00    +0.000 OA
ATOM     18  H   UNL     1       5.888   3.877  14.503  0.00  0.00    +0.000 HD
ENDBRANCH   4  17
TORSDOF 5
ENDMDL
MODEL 6
REMARK VINA RESULT:      -6.2      1.524      2.209
REMARK  Name = 
REMARK  6 active torsions:
REMARK  status: ('A' for Active; 'I' for Inactive)
REMARK    1  A    between atoms: C_1  and  C_2
REMARK    2  A    between atoms: C_4  and  O_5
REMARK    3  A    between atoms: C_7  and  C_8
REMARK    4  A    between atoms: N_12  and  C_13
REMARK    5  A    between atoms: C_13  and  C_14
REMARK    6  A    between atoms: C_14  and  O_15
REMARK                            x       y       z     vdW  Elec       q    Type
REMARK                         _______ _______ _______ _____ _____    ______ ____
ROOT
ATOM      1  C   UNL     1       7.735   6.385  18.571  0.00  0.00    +0.000 C 
ATOM      2  C   UNL     1       6.901   5.840  17.455  0.00  0.00    +0.000 A 
ATOM      3  N   UNL     1       7.460   5.781  16.234  0.00  0.00    +0.000 NA
ATOM      4  C   UNL     1       6.710   5.196  15.300  0.00  0.00    +0.000 A 
ATOM      5  C   UNL     1       5.467   4.663  15.493  0.00  0.00    +0.000 A 
ATOM      6  C   UNL     1       4.968   4.772  16.774  0.00  0.00    +0.000 A 
ATOM      7  N   UNL     1       5.678   5.366  17.765  0.00  0.00    +0.000 NA
ENDROOT
BRANCH   6   8
ATOM      8  C   UNL     1       3.638   4.118  17.110  0.00  0.00    +0.000 C 
ATOM      9  C   UNL     1       2.648   4.991  17.871  0.00  0.00    +0.000 C 
ATOM     10  C   UNL     1       1.574   3.995  18.256  0.00  0.00    +0.000 C 
ATOM     11  C   UNL     1       2.300   2.657  18.372  0.00  0.00    +0.000 C 
ATOM     12  N   UNL     1       3.691   2.840  17.897  0.00  0.00    +0.000 NA
BRANCH  12  13
ATOM     13  C   UNL     1       4.651   2.910  19.028  0.00  0.00    +0.000 C 
BRANCH  13  14
ATOM     14  C   UNL     1       4.083   2.340  20.343  0.00  0.00    +0.000 C 
BRANCH  14  15
ATOM     15  O   UNL     1       5.122   1.754  21.120  0.00  0.00    +0.000 OA
ATOM     16  H   UNL     1       5.529   2.502  21.602  0.00  0.00    +0.000 HD
ENDBRANCH  14  15
ENDBRANCH  13  14
ENDBRANCH  12  13
ENDBRANCH   6   8
BRANCH   4  17
ATOM     17  O   UNL     1       7.298   5.130  14.078  0.00  0.00    +0.000 OA
ATOM     18  H   UNL     1       8.214   5.364  14.314  0.00  0.00    +0.000 HD
ENDBRANCH   4  17
TORSDOF 5
ENDMDL
MODEL 7
REMARK VINA RESULT:      -6.2      2.227      3.303
REMARK  Name = 
REMARK  6 active torsions:
REMARK  status: ('A' for Active; 'I' for Inactive)
REMARK    1  A    between atoms: C_1  and  C_2
REMARK    2  A    between atoms: C_4  and  O_5
REMARK    3  A    between atoms: C_7  and  C_8
REMARK    4  A    between atoms: N_12  and  C_13
REMARK    5  A    between atoms: C_13  and  C_14
REMARK    6  A    between atoms: C_14  and  O_15
REMARK                            x       y       z     vdW  Elec       q    Type
REMARK                         _______ _______ _______ _____ _____    ______ ____
ROOT
ATOM      1  C   UNL     1       7.721   7.291  17.814  0.00  0.00    +0.000 C 
ATOM      2  C   UNL     1       6.909   6.193  17.203  0.00  0.00    +0.000 A 
ATOM      3  N   UNL     1       7.188   5.845  15.934  0.00  0.00    +0.000 NA
ATOM      4  C   UNL     1       6.504   4.798  15.474  0.00  0.00    +0.000 A 
ATOM      5  C   UNL     1       5.584   4.073  16.179  0.00  0.00    +0.000 A 
ATOM      6  C   UNL     1       5.356   4.502  17.470  0.00  0.00    +0.000 A 
ATOM      7  N   UNL     1       6.011   5.568  17.992  0.00  0.00    +0.000 NA
ENDROOT
BRANCH   6   8
ATOM      8  C   UNL     1       4.428   3.697  18.365  0.00  0.00    +0.000 C 
ATOM      9  C   UNL     1       3.725   2.521  17.698  0.00  0.00    +0.000 C 
ATOM     10  C   UNL     1       2.722   2.107  18.755  0.00  0.00    +0.000 C 
ATOM     11  C   UNL     1       2.408   3.388  19.525  0.00  0.00    +0.000 C 
ATOM     12  N   UNL     1       3.325   4.451  19.051  0.00  0.00    +0.000 NA
BRANCH  12  13
ATOM     13  C   UNL     1       2.638   5.403  18.142  0.00  0.00    +0.000 C 
BRANCH  13  14
ATOM     14  C   UNL     1       2.619   6.848  18.677  0.00  0.00    +0.000 C 
BRANCH  14  15
ATOM     15  O   UNL     1       2.587   6.851  20.100  0.00  0.00    +0.000 OA
ATOM     16  H   UNL     1       2.073   6.053  20.342  0.00  0.00    +0.000 HD
ENDBRANCH  14  15
ENDBRANCH  13  14
ENDBRANCH  12  13
ENDBRANCH   6   8
BRANCH   4  17
ATOM     17  O   UNL     1       6.812   4.451  14.199  0.00  0.00    +0.000 OA
ATOM     18  H   UNL     1       6.138   3.766  14.039  0.00  0.00    +0.000 HD
ENDBRANCH   4  17
TORSDOF 5
ENDMDL
MODEL 8
REMARK VINA RESULT:      -6.2      2.329      4.951
REMARK  Name = 
REMARK  6 active torsions:
REMARK  status: ('A' for Active; 'I' for Inactive)
REMARK    1  A    between atoms: C_1  and  C_2
REMARK    2  A    between atoms: C_4  and  O_5
REMARK    3  A    between atoms: C_7  and  C_8
REMARK    4  A    between atoms: N_12  and  C_13
REMARK    5  A    between atoms: C_13  and  C_14
REMARK    6  A    between atoms: C_14  and  O_15
REMARK                            x       y       z     vdW  Elec       q    Type
REMARK                         _______ _______ _______ _____ _____    ______ ____
ROOT
ATOM      1  C   UNL     1       1.212   2.440  18.880  0.00  0.00    +0.000 C 
ATOM      2  C   UNL     1       1.874   3.781  18.883  0.00  0.00    +0.000 A 
ATOM      3  N   UNL     1       1.568   4.623  19.886  0.00  0.00    +0.000 NA
ATOM      4  C   UNL     1       2.260   5.762  19.896  0.00  0.00    +0.000 A 
ATOM      5  C   UNL     1       3.229   6.116  18.999  0.00  0.00    +0.000 A 
ATOM      6  C   UNL     1       3.475   5.197  18.001  0.00  0.00    +0.000 A 
ATOM      7  N   UNL     1       2.797   4.024  17.930  0.00  0.00    +0.000 NA
ENDROOT
BRANCH   6   8
ATOM      8  C   UNL     1       4.606   5.453  17.018  0.00  0.00    +0.000 C 
ATOM      9  C   UNL     1       5.080   4.240  16.229  0.00  0.00    +0.000 C 
ATOM     10  C   UNL     1       6.333   4.765  15.558  0.00  0.00    +0.000 C 
ATOM     11  C   UNL     1       6.865   5.842  16.503  0.00  0.00    +0.000 C 
ATOM     12  N   UNL     1       5.865   6.054  17.575  0.00  0.00    +0.000 NA
BRANCH  12  13
ATOM     13  C   UNL     1       6.283   5.414  18.848  0.00  0.00    +0.000 C 
BRANCH  13  14
ATOM     14  C   UNL     1       7.719   5.781  19.269  0.00  0.00    +0.000 C 
BRANCH  14  15
ATOM     15  O   UNL     1       7.982   5.322  20.591  0.00  0.00    +0.000 OA
ATOM     16  H   UNL     1       8.724   5.876  20.907  0.00  0.00    +0.000 HD
ENDBRANCH  14  15
ENDBRANCH  13  14
ENDBRANCH  12  13
ENDBRANCH   6   8
BRANCH   4  17
ATOM     17  O   UNL     1       1.950   6.591  20.925  0.00  0.00    +0.000 OA
ATOM     18  H   UNL     1       1.388   7.239  20.462  0.00  0.00    +0.000 HD
ENDBRANCH   4  17
TORSDOF 5
ENDMDL
MODEL 9
REMARK VINA RESULT:      -6.2      1.510      1.510
REMARK  Name = 
REMARK  6 active torsions:
REMARK  status: ('A' for Active; 'I' for Inactive)
REMARK    1  A    between atoms: C_1  and  C_2
REMARK    2  A    between atoms: C_4  and  O_5
REMARK    3  A    between atoms: C_7  and  C_8
REMARK    4  A    between atoms: N_12  and  C_13
REMARK    5  A    between atoms: C_13  and  C_14
REMARK    6  A    between atoms: C_14  and  O_15
REMARK                            x       y       z     vdW  Elec       q    Type
REMARK                         _______ _______ _______ _____ _____    ______ ____
ROOT
ATOM      1  C   UNL     1       6.645   4.429  14.037  0.00  0.00    +0.000 C 
ATOM      2  C   UNL     1       6.483   4.474  15.524  0.00  0.00    +0.000 A 
ATOM      3  N   UNL     1       7.598   4.419  16.273  0.00  0.00    +0.000 NA
ATOM      4  C   UNL     1       7.404   4.563  17.583  0.00  0.00    +0.000 A 
ATOM      5  C   UNL     1       6.198   4.767  18.194  0.00  0.00    +0.000 A 
ATOM      6  C   UNL     1       5.106   4.803  17.351  0.00  0.00    +0.000 A 
ATOM      7  N   UNL     1       5.237   4.652  16.010  0.00  0.00    +0.000 NA
ENDROOT
BRANCH   6   8
ATOM      8  C   UNL     1       3.737   5.128  17.925  0.00  0.00    +0.000 C 
ATOM      9  C   UNL     1       3.739   5.938  19.215  0.00  0.00    +0.000 C 
ATOM     10  C   UNL     1       2.286   5.870  19.637  0.00  0.00    +0.000 C 
ATOM     11  C   UNL     1       1.773   4.546  19.074  0.00  0.00    +0.000 C 
ATOM     12  N   UNL     1       2.830   3.967  18.213  0.00  0.00    +0.000 NA
BRANCH  12  13
ATOM     13  C   UNL     1       3.536   2.850  18.890  0.00  0.00    +0.000 C 
BRANCH  13  14
ATOM     14  C   UNL     1       3.364   1.498  18.170  0.00  0.00    +0.000 C 
BRANCH  14  15
ATOM     15  O   UNL     1       4.407   0.602  18.541  0.00  0.00    +0.000 OA
ATOM     16  H   UNL     1       4.019   0.041  19.243  0.00  0.00    +0.000 HD
ENDBRANCH  14  15
ENDBRANCH  13  14
ENDBRANCH  12  13
ENDBRANCH   6   8
BRANCH   4  17
ATOM     17  O   UNL     1       8.542   4.523  18.321  0.00  0.00    +0.000 OA
ATOM     18  H   UNL     1       8.192   4.170  19.159  0.00  0.00    +0.000 HD
ENDBRANCH   4  17
TORSDOF 5
ENDMDL
