MODEL 1
REMARK VINA RESULT:      -7.6      0.000      0.000
REMARK  Name = 
REMARK  5 active torsions:
REMARK  status: ('A' for Active; 'I' for Inactive)
REMARK    1  A    between atoms: C_2  and  C_14
REMARK    2  A    between atoms: N_3  and  C_4
REMARK    3  A    between atoms: C_7  and  C_8
REMARK    4  A    between atoms: C_8  and  O_10
REMARK    5  A    between atoms: C_11  and  O_12
REMARK                            x       y       z     vdW  Elec       q    Type
REMARK                         _______ _______ _______ _____ _____    ______ ____
ROOT
ATOM      1  C   UNL     1       4.119   3.743  17.430  0.00  0.00    +0.000 A 
ATOM      2  C   UNL     1       3.645   2.492  17.830  0.00  0.00    +0.000 A 
ATOM      3  C   UNL     1       2.933   2.342  19.022  0.00  0.00    +0.000 A 
ATOM      4  C   UNL     1       2.699   3.445  19.842  0.00  0.00    +0.000 A 
ATOM      5  C   UNL     1       3.222   4.688  19.469  0.00  0.00    +0.000 A 
ATOM      6  C   UNL     1       3.956   4.837  18.288  0.00  0.00    +0.000 A 
ENDROOT
BRANCH   1   9
ATOM      7  O   UNL     1       6.945   4.223  16.826  0.00  0.00    +0.000 OA
ATOM      8  C   UNL     1       6.074   4.189  15.965  0.00  0.00    +0.000 C 
ATOM      9  N   UNL     1       4.719   3.964  16.170  0.00  0.00    +0.000 N 
ATOM     10  H   UNL     1       4.162   3.739  15.356  0.00  0.00    +0.000 HD
BRANCH   8  11
ATOM     11  C   UNL     1       6.498   4.318  14.547  0.00  0.00    +0.000 A 
ATOM     12  C   UNL     1       5.889   3.483  13.598  0.00  0.00    +0.000 A 
ATOM     13  C   UNL     1       6.261   3.561  12.257  0.00  0.00    +0.000 A 
ATOM     14  C   UNL     1       7.248   4.463  11.863  0.00  0.00    +0.000 A 
ATOM     15  C   UNL     1       7.868   5.283  12.806  0.00  0.00    +0.000 A 
ATOM     16  C   UNL     1       7.499   5.211  14.151  0.00  0.00    +0.000 A 
ENDBRANCH   8  11
ENDBRANCH   1   9
BRANCH   4  17
ATOM     17  C   UNL     1       1.860   3.232  21.046  0.00  0.00    +0.000 C 
ATOM     18  O   UNL     1       2.306   3.267  22.179  0.00  0.00    +0.000 OA
BRANCH  17  19
ATOM     19  O   UNL     1       0.558   3.005  20.763  0.00  0.00    +0.000 OA
ATOM     20  H   UNL     1       0.334   3.105  19.817  0.00  0.00    +0.000 HD
ENDBRANCH  17  19
ENDBRANCH   4  17
BRANCH   5  21
ATOM     21  O   UNL     1       3.015   5.813  20.220  0.00  0.00    +0.000 OA
ATOM     22  H   UNL     1       3.412   6.563  19.729  0.00  0.00    +0.000 HD
ENDBRANCH   5  21
TORSDOF 5
ENDMDL
MODEL 2
REMARK VINA RESULT:      -7.6      0.098      1.115
REMARK  Name = 
REMARK  5 active torsions:
REMARK  status: ('A' for Active; 'I' for Inactive)
REMARK    1  A    between atoms: C_2  and  C_14
REMARK    2  A    between atoms: N_3  and  C_4
REMARK    3  A    between atoms: C_7  and  C_8
REMARK    4  A    between atoms: C_8  and  O_10
REMARK    5  A    between atoms: C_11  and  O_12
REMARK                            x       y       z     vdW  Elec       q    Type
REMARK                         _______ _______ _______ _____ _____    ______ ____
ROOT
ATOM      1  C   UNL     1       4.142   3.695  17.488  0.00  0.00    +0.000 A 
ATOM      2  C   UNL     1       3.668   2.448  17.904  0.00  0.00    +0.000 A 
ATOM      3  C   UNL     1       2.975   2.310  19.108  0.00  0.00    +0.000 A 
ATOM      4  C   UNL     1       2.760   3.419  19.925  0.00  0.00    +0.000 A 
ATOM      5  C   UNL     1       3.283   4.656  19.536  0.00  0.00    +0.000 A 
ATOM      6  C   UNL     1       3.997   4.795  18.342  0.00  0.00    +0.000 A 
ENDROOT
BRANCH   1   9
ATOM      7  O   UNL     1       6.951   4.214  16.840  0.00  0.00    +0.000 OA
ATOM      8  C   UNL     1       6.070   4.151  15.991  0.00  0.00    +0.000 C 
ATOM      9  N   UNL     1       4.722   3.905  16.217  0.00  0.00    +0.000 N 
ATOM     10  H   UNL     1       4.158   3.657  15.415  0.00  0.00    +0.000 HD
BRANCH   8  11
ATOM     11  C   UNL     1       6.473   4.263  14.566  0.00  0.00    +0.000 A 
ATOM     12  C   UNL     1       7.486   5.177  14.237  0.00  0.00    +0.000 A 
ATOM     13  C   UNL     1       7.891   5.324  12.912  0.00  0.00    +0.000 A 
ATOM     14  C   UNL     1       7.281   4.569  11.912  0.00  0.00    +0.000 A 
ATOM     15  C   UNL     1       6.262   3.672  12.233  0.00  0.00    +0.000 A 
ATOM     16  C   UNL     1       5.851   3.518  13.559  0.00  0.00    +0.000 A 
ENDBRANCH   8  11
ENDBRANCH   1   9
BRANCH   4  17
ATOM     17  C   UNL     1       1.941   3.217  21.144  0.00  0.00    +0.000 C 
ATOM     18  O   UNL     1       2.409   3.239  22.268  0.00  0.00    +0.000 OA
BRANCH  17  19
ATOM     19  O   UNL     1       0.630   3.015  20.886  0.00  0.00    +0.000 OA
ATOM     20  H   UNL     1       0.307   3.473  20.084  0.00  0.00    +0.000 HD
ENDBRANCH  17  19
ENDBRANCH   4  17
BRANCH   5  21
ATOM     21  O   UNL     1       3.093   5.787  20.283  0.00  0.00    +0.000 OA
ATOM     22  H   UNL     1       3.976   6.187  20.429  0.00  0.00    +0.000 HD
ENDBRANCH   5  21
TORSDOF 5
ENDMDL
MODEL 3
REMARK VINA RESULT:      -7.4      0.962      1.934
REMARK  Name = 
REMARK  5 active torsions:
REMARK  status: ('A' for Active; 'I' for Inactive)
REMARK    1  A    between atoms: C_2  and  C_14
REMARK    2  A    between atoms: N_3  and  C_4
REMARK    3  A    between atoms: C_7  and  C_8
REMARK    4  A    between atoms: C_8  and  O_10
REMARK    5  A    between atoms: C_11  and  O_12
REMARK                            x       y       z     vdW  Elec       q    Type
REMARK                         _______ _______ _______ _____ _____    ______ ____
ROOT
ATOM      1  C   UNL     1       3.788   3.817  17.290  0.00  0.00    +0.000 A 
ATOM      2  C   UNL     1       4.100   4.549  18.439  0.00  0.00    +0.000 A 
ATOM      3  C   UNL     1       3.507   4.243  19.666  0.00  0.00    +0.000 A 
ATOM      4  C   UNL     1       2.579   3.208  19.758  0.00  0.00    +0.000 A 
ATOM      5  C   UNL     1       2.224   2.512  18.597  0.00  0.00    +0.000 A 
ATOM      6  C   UNL     1       2.798   2.831  17.362  0.00  0.00    +0.000 A 
ENDROOT
BRANCH   1   9
ATOM      7  O   UNL     1       6.663   4.152  16.836  0.00  0.00    +0.000 OA
ATOM      8  C   UNL     1       5.838   4.156  15.930  0.00  0.00    +0.000 C 
ATOM      9  N   UNL     1       4.465   4.000  16.063  0.00  0.00    +0.000 N 
ATOM     10  H   UNL     1       3.941   3.799  15.222  0.00  0.00    +0.000 HD
BRANCH   8  11
ATOM     11  C   UNL     1       6.342   4.255  14.537  0.00  0.00    +0.000 A 
ATOM     12  C   UNL     1       7.383   5.158  14.274  0.00  0.00    +0.000 A 
ATOM     13  C   UNL     1       7.883   5.293  12.980  0.00  0.00    +0.000 A 
ATOM     14  C   UNL     1       7.338   4.535  11.945  0.00  0.00    +0.000 A 
ATOM     15  C   UNL     1       6.291   3.648  12.198  0.00  0.00    +0.000 A 
ATOM     16  C   UNL     1       5.787   3.508  13.493  0.00  0.00    +0.000 A 
ENDBRANCH   8  11
ENDBRANCH   1   9
BRANCH   4  17
ATOM     17  C   UNL     1       2.057   2.880  21.106  0.00  0.00    +0.000 C 
ATOM     18  O   UNL     1       2.779   2.597  22.046  0.00  0.00    +0.000 OA
BRANCH  17  19
ATOM     19  O   UNL     1       0.709   2.932  21.191  0.00  0.00    +0.000 OA
ATOM     20  H   UNL     1       0.304   2.131  21.581  0.00  0.00    +0.000 HD
ENDBRANCH  17  19
ENDBRANCH   4  17
BRANCH   5  21
ATOM     21  O   UNL     1       1.333   1.474  18.621  0.00  0.00    +0.000 OA
ATOM     22  H   UNL     1       0.651   1.696  19.289  0.00  0.00    +0.000 HD
ENDBRANCH   5  21
TORSDOF 5
ENDMDL
MODEL 4
REMARK VINA RESULT:      -7.4      0.976      1.557
REMARK  Name = 
REMARK  5 active torsions:
REMARK  status: ('A' for Active; 'I' for Inactive)
REMARK    1  A    between atoms: C_2  and  C_14
REMARK    2  A    between atoms: N_3  and  C_4
REMARK    3  A    between atoms: C_7  and  C_8
REMARK    4  A    between atoms: C_8  and  O_10
REMARK    5  A    between atoms: C_11  and  O_12
REMARK                            x       y       z     vdW  Elec       q    Type
REMARK                         _______ _______ _______ _____ _____    ______ ____
ROOT
ATOM      1  C   UNL     1       3.830   3.822  17.299  0.00  0.00    +0.000 A 
ATOM      2  C   UNL     1       4.225   4.464  18.475  0.00  0.00    +0.000 A 
ATOM      3  C   UNL     1       3.625   4.154  19.697  0.00  0.00    +0.000 A 
ATOM      4  C   UNL     1       2.606   3.205  19.757  0.00  0.00    +0.000 A 
ATOM      5  C   UNL     1       2.172   2.603  18.572  0.00  0.00    +0.000 A 
ATOM      6  C   UNL     1       2.754   2.928  17.343  0.00  0.00    +0.000 A 
ENDROOT
BRANCH   1   9
ATOM      7  O   UNL     1       6.678   4.343  16.847  0.00  0.00    +0.000 OA
ATOM      8  C   UNL     1       5.862   4.251  15.937  0.00  0.00    +0.000 C 
ATOM      9  N   UNL     1       4.503   4.003  16.069  0.00  0.00    +0.000 N 
ATOM     10  H   UNL     1       4.001   3.730  15.234  0.00  0.00    +0.000 HD
BRANCH   8  11
ATOM     11  C   UNL     1       6.370   4.329  14.544  0.00  0.00    +0.000 A 
ATOM     12  C   UNL     1       5.800   3.479  13.585  0.00  0.00    +0.000 A 
ATOM     13  C   UNL     1       6.250   3.509  12.266  0.00  0.00    +0.000 A 
ATOM     14  C   UNL     1       7.277   4.379  11.905  0.00  0.00    +0.000 A 
ATOM     15  C   UNL     1       7.859   5.214  12.859  0.00  0.00    +0.000 A 
ATOM     16  C   UNL     1       7.412   5.190  14.182  0.00  0.00    +0.000 A 
ENDBRANCH   8  11
ENDBRANCH   1   9
BRANCH   4  17
ATOM     17  C   UNL     1       2.076   2.859  21.098  0.00  0.00    +0.000 C 
ATOM     18  O   UNL     1       2.794   2.591  22.045  0.00  0.00    +0.000 OA
BRANCH  17  19
ATOM     19  O   UNL     1       0.727   2.878  21.166  0.00  0.00    +0.000 OA
ATOM     20  H   UNL     1       0.286   2.374  20.454  0.00  0.00    +0.000 HD
ENDBRANCH  17  19
ENDBRANCH   4  17
BRANCH   5  21
ATOM     21  O   UNL     1       1.189   1.651  18.563  0.00  0.00    +0.000 OA
ATOM     22  H   UNL     1       1.299   1.116  19.377  0.00  0.00    +0.000 HD
ENDBRANCH   5  21
TORSDOF 5
ENDMDL
MODEL 5
REMARK VINA RESULT:      -7.2      2.236      7.591
REMARK  Name = 
REMARK  5 active torsions:
REMARK  status: ('A' for Active; 'I' for Inactive)
REMARK    1  A    between atoms: C_2  and  C_14
REMARK    2  A    between atoms: N_3  and  C_4
REMARK    3  A    between atoms: C_7  and  C_8
REMARK    4  A    between atoms: C_8  and  O_10
REMARK    5  A    between atoms: C_11  and  O_12
REMARK                            x       y       z     vdW  Elec       q    Type
REMARK                         _______ _______ _______ _____ _____    ______ ____
ROOT
ATOM      1  C   UNL     1       5.677   3.993  16.452  0.00  0.00    +0.000 A 
ATOM      2  C   UNL     1       6.851   4.739  16.571  0.00  0.00    +0.000 A 
ATOM      3  C   UNL     1       7.574   5.124  15.440  0.00  0.00    +0.000 A 
ATOM      4  C   UNL     1       7.138   4.752  14.169  0.00  0.00    +0.000 A 
ATOM      5  C   UNL     1       5.993   3.957  14.053  0.00  0.00    +0.000 A 
ATOM      6  C   UNL     1       5.280   3.550  15.185  0.00  0.00    +0.000 A 
ENDROOT
BRANCH   1   9
ATOM      7  O   UNL     1       3.467   5.590  17.525  0.00  0.00    +0.000 OA
ATOM      8  C   UNL     1       3.813   4.518  18.007  0.00  0.00    +0.000 C 
ATOM      9  N   UNL     1       4.843   3.703  17.555  0.00  0.00    +0.000 N 
ATOM     10  H   UNL     1       4.866   2.754  17.904  0.00  0.00    +0.000 HD
BRANCH   8  11
ATOM     11  C   UNL     1       3.013   3.978  19.136  0.00  0.00    +0.000 A 
ATOM     12  C   UNL     1       1.686   4.411  19.271  0.00  0.00    +0.000 A 
ATOM     13  C   UNL     1       0.900   3.940  20.321  0.00  0.00    +0.000 A 
ATOM     14  C   UNL     1       1.439   3.043  21.242  0.00  0.00    +0.000 A 
ATOM     15  C   UNL     1       2.763   2.622  21.121  0.00  0.00    +0.000 A 
ATOM     16  C   UNL     1       3.557   3.090  20.071  0.00  0.00    +0.000 A 
ENDBRANCH   8  11
ENDBRANCH   1   9
BRANCH   4  17
ATOM     17  C   UNL     1       7.903   5.270  13.009  0.00  0.00    +0.000 C 
ATOM     18  O   UNL     1       7.609   5.015  11.855  0.00  0.00    +0.000 OA
BRANCH  17  19
ATOM     19  O   UNL     1       8.948   6.052  13.357  0.00  0.00    +0.000 OA
ATOM     20  H   UNL     1       9.821   5.640  13.204  0.00  0.00    +0.000 HD
ENDBRANCH  17  19
ENDBRANCH   4  17
BRANCH   5  21
ATOM     21  O   UNL     1       5.503   3.571  12.835  0.00  0.00    +0.000 OA
ATOM     22  H   UNL     1       4.579   3.274  12.979  0.00  0.00    +0.000 HD
ENDBRANCH   5  21
TORSDOF 5
ENDMDL
MODEL 6
REMARK VINA RESULT:      -7.2      1.306      1.689
REMARK  Name = 
REMARK  5 active torsions:
REMARK  status: ('A' for Active; 'I' for Inactive)
REMARK    1  A    between atoms: C_2  and  C_14
REMARK    2  A    between atoms: N_3  and  C_4
REMARK    3  A    between atoms: C_7  and  C_8
REMARK    4  A    between atoms: C_8  and  O_10
REMARK    5  A    between atoms: C_11  and  O_12
REMARK                            x       y       z     vdW  Elec       q    Type
REMARK                         _______ _______ _______ _____ _____    ______ ____
ROOT
ATOM      1  C   UNL     1       4.117   3.519  17.384  0.00  0.00    +0.000 A 
ATOM      2  C   UNL     1       4.754   3.644  18.621  0.00  0.00    +0.000 A 
ATOM      3  C   UNL     1       4.059   3.423  19.812  0.00  0.00    +0.000 A 
ATOM      4  C   UNL     1       2.706   3.088  19.782  0.00  0.00    +0.000 A 
ATOM      5  C   UNL     1       2.054   3.019  18.547  0.00  0.00    +0.000 A 
ATOM      6  C   UNL     1       2.741   3.262  17.354  0.00  0.00    +0.000 A 
ENDROOT
BRANCH   1   9
ATOM      7  O   UNL     1       5.147   5.903  16.028  0.00  0.00    +0.000 OA
ATOM      8  C   UNL     1       5.267   4.771  15.574  0.00  0.00    +0.000 C 
ATOM      9  N   UNL     1       4.812   3.596  16.156  0.00  0.00    +0.000 N 
ATOM     10  H   UNL     1       5.178   2.728  15.788  0.00  0.00    +0.000 HD
BRANCH   8  11
ATOM     11  C   UNL     1       6.044   4.609  14.319  0.00  0.00    +0.000 A 
ATOM     12  C   UNL     1       5.576   3.691  13.367  0.00  0.00    +0.000 A 
ATOM     13  C   UNL     1       6.277   3.497  12.178  0.00  0.00    +0.000 A 
ATOM     14  C   UNL     1       7.450   4.212  11.942  0.00  0.00    +0.000 A 
ATOM     15  C   UNL     1       7.928   5.114  12.893  0.00  0.00    +0.000 A 
ATOM     16  C   UNL     1       7.230   5.313  14.086  0.00  0.00    +0.000 A 
ENDBRANCH   8  11
ENDBRANCH   1   9
BRANCH   4  17
ATOM     17  C   UNL     1       2.053   2.780  21.077  0.00  0.00    +0.000 C 
ATOM     18  O   UNL     1       0.849   2.853  21.246  0.00  0.00    +0.000 OA
BRANCH  17  19
ATOM     19  O   UNL     1       2.921   2.406  22.043  0.00  0.00    +0.000 OA
ATOM     20  H   UNL     1       2.920   1.445  22.227  0.00  0.00    +0.000 HD
ENDBRANCH  17  19
ENDBRANCH   4  17
BRANCH   5  21
ATOM     21  O   UNL     1       0.732   2.679  18.446  0.00  0.00    +0.000 OA
ATOM     22  H   UNL     1       0.264   3.454  18.070  0.00  0.00    +0.000 HD
ENDBRANCH   5  21
TORSDOF 5
ENDMDL
MODEL 7
REMARK VINA RESULT:      -7.1      2.173      7.579
REMARK  Name = 
REMARK  5 active torsions:
REMARK  status: ('A' for Active; 'I' for Inactive)
REMARK    1  A    between atoms: C_2  and  C_14
REMARK    2  A    between atoms: N_3  and  C_4
REMARK    3  A    between atoms: C_7  and  C_8
REMARK    4  A    between atoms: C_8  and  O_10
REMARK    5  A    between atoms: C_11  and  O_12
REMARK                            x       y       z     vdW  Elec       q    Type
REMARK                         _______ _______ _______ _____ _____    ______ ____
ROOT
ATOM      1  C   UNL     1       5.272   4.320  16.357  0.00  0.00    +0.000 A 
ATOM      2  C   UNL     1       6.084   5.455  16.423  0.00  0.00    +0.000 A 
ATOM      3  C   UNL     1       6.960   5.771  15.382  0.00  0.00    +0.000 A 
ATOM      4  C   UNL     1       7.049   4.943  14.264  0.00  0.00    +0.000 A 
ATOM      5  C   UNL     1       6.278   3.777  14.223  0.00  0.00    +0.000 A 
ATOM      6  C   UNL     1       5.416   3.445  15.274  0.00  0.00    +0.000 A 
ENDROOT
BRANCH   1   9
ATOM      7  O   UNL     1       5.614   3.710  19.202  0.00  0.00    +0.000 OA
ATOM      8  C   UNL     1       4.519   3.754  18.654  0.00  0.00    +0.000 C 
ATOM      9  N   UNL     1       4.275   4.040  17.318  0.00  0.00    +0.000 N 
ATOM     10  H   UNL     1       3.322   4.263  17.061  0.00  0.00    +0.000 HD
BRANCH   8  11
ATOM     11  C   UNL     1       3.314   3.568  19.503  0.00  0.00    +0.000 A 
ATOM     12  C   UNL     1       3.437   2.784  20.660  0.00  0.00    +0.000 A 
ATOM     13  C   UNL     1       2.332   2.573  21.482  0.00  0.00    +0.000 A 
ATOM     14  C   UNL     1       1.101   3.134  21.147  0.00  0.00    +0.000 A 
ATOM     15  C   UNL     1       0.970   3.900  19.988  0.00  0.00    +0.000 A 
ATOM     16  C   UNL     1       2.074   4.117  19.160  0.00  0.00    +0.000 A 
ENDBRANCH   8  11
ENDBRANCH   1   9
BRANCH   4  17
ATOM     17  C   UNL     1       7.932   5.385  13.159  0.00  0.00    +0.000 C 
ATOM     18  O   UNL     1       8.958   6.016  13.342  0.00  0.00    +0.000 OA
BRANCH  17  19
ATOM     19  O   UNL     1       7.493   5.015  11.936  0.00  0.00    +0.000 OA
ATOM     20  H   UNL     1       8.197   4.685  11.343  0.00  0.00    +0.000 HD
ENDBRANCH  17  19
ENDBRANCH   4  17
BRANCH   5  21
ATOM     21  O   UNL     1       6.304   2.930  13.149  0.00  0.00    +0.000 OA
ATOM     22  H   UNL     1       5.374   2.773  12.883  0.00  0.00    +0.000 HD
ENDBRANCH   5  21
TORSDOF 5
ENDMDL
MODEL 8
REMARK VINA RESULT:      -7.1      2.240      7.605
REMARK  Name = 
REMARK  5 active torsions:
REMARK  status: ('A' for Active; 'I' for Inactive)
REMARK    1  A    between atoms: C_2  and  C_14
REMARK    2  A    between atoms: N_3  and  C_4
REMARK    3  A    between atoms: C_7  and  C_8
REMARK    4  A    between atoms: C_8  and  O_10
REMARK    5  A    between atoms: C_11  and  O_12
REMARK                            x       y       z     vdW  Elec       q    Type
REMARK                         _______ _______ _______ _____ _____    ______ ____
ROOT
ATOM      1  C   UNL     1       5.616   3.975  16.390  0.00  0.00    +0.000 A 
ATOM      2  C   UNL     1       6.784   4.728  16.525  0.00  0.00    +0.000 A 
ATOM      3  C   UNL     1       7.524   5.112  15.405  0.00  0.00    +0.000 A 
ATOM      4  C   UNL     1       7.112   4.731  14.128  0.00  0.00    +0.000 A 
ATOM      5  C   UNL     1       5.973   3.930  13.996  0.00  0.00    +0.000 A 
ATOM      6  C   UNL     1       5.243   3.524  15.118  0.00  0.00    +0.000 A 
ENDROOT
BRANCH   1   9
ATOM      7  O   UNL     1       3.524   5.662  17.556  0.00  0.00    +0.000 OA
ATOM      8  C   UNL     1       3.795   4.544  17.979  0.00  0.00    +0.000 C 
ATOM      9  N   UNL     1       4.765   3.686  17.480  0.00  0.00    +0.000 N 
ATOM     10  H   UNL     1       4.722   2.720  17.778  0.00  0.00    +0.000 HD
BRANCH   8  11
ATOM     11  C   UNL     1       2.961   4.002  19.082  0.00  0.00    +0.000 A 
ATOM     12  C   UNL     1       3.591   3.225  20.065  0.00  0.00    +0.000 A 
ATOM     13  C   UNL     1       2.848   2.686  21.114  0.00  0.00    +0.000 A 
ATOM     14  C   UNL     1       1.474   2.914  21.178  0.00  0.00    +0.000 A 
ATOM     15  C   UNL     1       0.840   3.672  20.193  0.00  0.00    +0.000 A 
ATOM     16  C   UNL     1       1.579   4.216  19.140  0.00  0.00    +0.000 A 
ENDBRANCH   8  11
ENDBRANCH   1   9
BRANCH   4  17
ATOM     17  C   UNL     1       7.893   5.248  12.979  0.00  0.00    +0.000 C 
ATOM     18  O   UNL     1       7.610   5.000  11.820  0.00  0.00    +0.000 OA
BRANCH  17  19
ATOM     19  O   UNL     1       8.939   6.022  13.342  0.00  0.00    +0.000 OA
ATOM     20  H   UNL     1       9.320   5.792  14.213  0.00  0.00    +0.000 HD
ENDBRANCH  17  19
ENDBRANCH   4  17
BRANCH   5  21
ATOM     21  O   UNL     1       5.504   3.536  12.772  0.00  0.00    +0.000 OA
ATOM     22  H   UNL     1       6.018   2.744  12.509  0.00  0.00    +0.000 HD
ENDBRANCH   5  21
TORSDOF 5
ENDMDL
MODEL 9
REMARK VINA RESULT:      -7.1      2.195      7.569
REMARK  Name = 
REMARK  5 active torsions:
REMARK  status: ('A' for Active; 'I' for Inactive)
REMARK    1  A    between atoms: C_2  and  C_14
REMARK    2  A    between atoms: N_3  and  C_4
REMARK    3  A    between atoms: C_7  and  C_8
REMARK    4  A    between atoms: C_8  and  O_10
REMARK    5  A    between atoms: C_11  and  O_12
REMARK                            x       y       z     vdW  Elec       q    Type
REMARK                         _______ _______ _______ _____ _____    ______ ____
ROOT
ATOM      1  C   UNL     1       5.347   4.275  16.373  0.00  0.00    +0.000 A 
ATOM      2  C   UNL     1       6.204   5.373  16.468  0.00  0.00    +0.000 A 
ATOM      3  C   UNL     1       7.067   5.702  15.420  0.00  0.00    +0.000 A 
ATOM      4  C   UNL     1       7.096   4.923  14.264  0.00  0.00    +0.000 A 
ATOM      5  C   UNL     1       6.278   3.790  14.192  0.00  0.00    +0.000 A 
ATOM      6  C   UNL     1       5.430   3.444  15.249  0.00  0.00    +0.000 A 
ENDROOT
BRANCH   1   9
ATOM      7  O   UNL     1       5.711   3.830  19.246  0.00  0.00    +0.000 OA
ATOM      8  C   UNL     1       4.617   3.786  18.696  0.00  0.00    +0.000 C 
ATOM      9  N   UNL     1       4.363   3.990  17.346  0.00  0.00    +0.000 N 
ATOM     10  H   UNL     1       3.401   4.148  17.078  0.00  0.00    +0.000 HD
BRANCH   8  11
ATOM     11  C   UNL     1       3.422   3.578  19.552  0.00  0.00    +0.000 A 
ATOM     12  C   UNL     1       2.256   4.295  19.243  0.00  0.00    +0.000 A 
ATOM     13  C   UNL     1       1.112   4.140  20.023  0.00  0.00    +0.000 A 
ATOM     14  C   UNL     1       1.132   3.279  21.119  0.00  0.00    +0.000 A 
ATOM     15  C   UNL     1       2.294   2.577  21.440  0.00  0.00    +0.000 A 
ATOM     16  C   UNL     1       3.444   2.727  20.661  0.00  0.00    +0.000 A 
ENDBRANCH   8  11
ENDBRANCH   1   9
BRANCH   4  17
ATOM     17  C   UNL     1       7.969   5.380  13.157  0.00  0.00    +0.000 C 
ATOM     18  O   UNL     1       8.971   6.049  13.336  0.00  0.00    +0.000 OA
BRANCH  17  19
ATOM     19  O   UNL     1       7.550   4.976  11.937  0.00  0.00    +0.000 OA
ATOM     20  H   UNL     1       6.620   4.675  11.916  0.00  0.00    +0.000 HD
ENDBRANCH  17  19
ENDBRANCH   4  17
BRANCH   5  21
ATOM     21  O   UNL     1       6.245   2.992  13.081  0.00  0.00    +0.000 OA
ATOM     22  H   UNL     1       6.465   3.560  12.313  0.00  0.00    +0.000 HD
ENDBRANCH   5  21
TORSDOF 5
ENDMDL
