MODEL 1
REMARK VINA RESULT:      -7.8      0.000      0.000
REMARK  Name = 
REMARK  13 active torsions:
REMARK  status: ('A' for Active; 'I' for Inactive)
REMARK    1  A    between atoms: C_1  and  N_2
REMARK    2  A    between atoms: N_2  and  C_3
REMARK    3  A    between atoms: N_2  and  S_29
REMARK    4  A    between atoms: C_5  and  C_6
REMARK    5  A    between atoms: C_6  and  O_7
REMARK    6  A    between atoms: C_6  and  C_8
REMARK    7  A    between atoms: C_8  and  N_9
REMARK    8  A    between atoms: N_9  and  C_10
REMARK    9  A    between atoms: N_13  and  C_14
REMARK   10  A    between atoms: C_17  and  C_18
REMARK   11  A    between atoms: C_18  and  O_20
REMARK   12  A    between atoms: C_27  and  O_28
REMARK   13  A    between atoms: S_29  and  C_30
REMARK                            x       y       z     vdW  Elec       q    Type
REMARK                         _______ _______ _______ _____ _____    ______ ____
ROOT
ATOM      1  C   UNL     1       1.174   7.326  20.870  0.00  0.00    +0.000 C 
ENDROOT
BRANCH   1   2
ATOM      2  N   UNL     1       0.383   8.577  20.819  0.00  0.00    +0.000 NA
ATOM      3  H   UNL     1      -0.536   8.386  21.229  0.00  0.00    +0.000 HD
BRANCH   2   4
ATOM      4  C   UNL     1       1.006   9.673  21.594  0.00  0.00    +0.000 C 
ATOM      5  C   UNL     1       0.427   9.667  23.022  0.00  0.00    +0.000 C 
ATOM      6  C   UNL     1      -1.030  10.144  23.058  0.00  0.00    +0.000 C 
ATOM      7  N   UNL     1      -1.100  11.462  22.425  0.00  0.00    +0.000 N 
ATOM      8  C   UNL     1      -0.647  11.506  21.031  0.00  0.00    +0.000 C 
ATOM      9  C   UNL     1       0.816  11.077  20.988  0.00  0.00    +0.000 C 
BRANCH   7  10
ATOM     10  C   UNL     1      -1.763  12.531  22.991  0.00  0.00    +0.000 A 
ATOM     11  C   UNL     1      -1.060  13.670  23.411  0.00  0.00    +0.000 A 
ATOM     12  C   UNL     1      -1.703  14.762  24.004  0.00  0.00    +0.000 A 
ATOM     13  C   UNL     1      -3.084  14.741  24.197  0.00  0.00    +0.000 A 
ATOM     14  C   UNL     1      -3.813  13.622  23.781  0.00  0.00    +0.000 A 
ATOM     15  C   UNL     1      -3.151  12.533  23.195  0.00  0.00    +0.000 A 
BRANCH  13  16
ATOM     16  C   UNL     1      -3.715  15.945  24.793  0.00  0.00    +0.000 C 
ATOM     17  O   UNL     1      -3.068  16.891  25.205  0.00  0.00    +0.000 OA
BRANCH  16  18
ATOM     18  O   UNL     1      -5.060  15.886  24.875  0.00  0.00    +0.000 OA
ATOM     19  H   UNL     1      -5.525  16.723  24.706  0.00  0.00    +0.000 HD
ENDBRANCH  16  18
ENDBRANCH  13  16
ENDBRANCH   7  10
ENDBRANCH   2   4
ENDBRANCH   1   2
BRANCH   1  20
ATOM     20  C   UNL     1       2.364   7.321  19.869  0.00  0.00    +0.000 C 
BRANCH  20  23
ATOM     21  C   UNL     1       4.632   4.549  18.563  0.00  0.00    +0.000 A 
ATOM     22  C   UNL     1       3.995   5.779  18.715  0.00  0.00    +0.000 A 
ATOM     23  C   UNL     1       2.988   5.951  19.678  0.00  0.00    +0.000 A 
ATOM     24  C   UNL     1       2.594   4.839  20.441  0.00  0.00    +0.000 A 
ATOM     25  C   UNL     1       3.227   3.604  20.291  0.00  0.00    +0.000 A 
ATOM     26  C   UNL     1       4.262   3.469  19.369  0.00  0.00    +0.000 A 
BRANCH  21  28
ATOM     27  C   UNL     1       5.263   4.464  16.158  0.00  0.00    +0.000 C 
ATOM     28  N   UNL     1       5.657   4.457  17.562  0.00  0.00    +0.000 N 
BRANCH  28  29
ATOM     29  S   UNL     1       7.204   4.995  17.971  0.00  0.00    +0.000 S 
ATOM     30  C   UNL     1       7.289   6.646  17.302  0.00  0.00    +0.000 C 
ATOM     31  O   UNL     1       7.292   5.103  19.412  0.00  0.00    +0.000 OA
ATOM     32  O   UNL     1       8.153   4.184  17.236  0.00  0.00    +0.000 OA
ENDBRANCH  28  29
ENDBRANCH  21  28
BRANCH  26  33
ATOM     33  O   UNL     1       4.913   2.270  19.256  0.00  0.00    +0.000 OA
ATOM     34  H   UNL     1       5.535   2.187  19.999  0.00  0.00    +0.000 HD
ENDBRANCH  26  33
ENDBRANCH  20  23
BRANCH  20  35
ATOM     35  O   UNL     1       1.912   7.847  18.617  0.00  0.00    +0.000 OA
ATOM     36  H   UNL     1       1.251   8.525  18.853  0.00  0.00    +0.000 HD
ENDBRANCH  20  35
ENDBRANCH   1  20
TORSDOF 11
ENDMDL
MODEL 2
REMARK VINA RESULT:      -7.6      4.002     11.602
REMARK  Name = 
REMARK  13 active torsions:
REMARK  status: ('A' for Active; 'I' for Inactive)
REMARK    1  A    between atoms: C_1  and  N_2
REMARK    2  A    between atoms: N_2  and  C_3
REMARK    3  A    between atoms: N_2  and  S_29
REMARK    4  A    between atoms: C_5  and  C_6
REMARK    5  A    between atoms: C_6  and  O_7
REMARK    6  A    between atoms: C_6  and  C_8
REMARK    7  A    between atoms: C_8  and  N_9
REMARK    8  A    between atoms: N_9  and  C_10
REMARK    9  A    between atoms: N_13  and  C_14
REMARK   10  A    between atoms: C_17  and  C_18
REMARK   11  A    between atoms: C_18  and  O_20
REMARK   12  A    between atoms: C_27  and  O_28
REMARK   13  A    between atoms: S_29  and  C_30
REMARK                            x       y       z     vdW  Elec       q    Type
REMARK                         _______ _______ _______ _____ _____    ______ ____
ROOT
ATOM      1  C   UNL     1       0.541  12.446  20.135  0.00  0.00    +0.000 C 
ENDROOT
BRANCH   1   2
ATOM      2  N   UNL     1       1.247  11.402  19.357  0.00  0.00    +0.000 NA
ATOM      3  H   UNL     1       2.051  11.087  19.909  0.00  0.00    +0.000 HD
BRANCH   2   4
ATOM      4  C   UNL     1       0.395  10.223  19.085  0.00  0.00    +0.000 C 
ATOM      5  C   UNL     1       0.383   9.318  20.331  0.00  0.00    +0.000 C 
ATOM      6  C   UNL     1       1.723   8.602  20.540  0.00  0.00    +0.000 C 
ATOM      7  N   UNL     1       2.054   7.874  19.315  0.00  0.00    +0.000 N 
ATOM      8  C   UNL     1       2.170   8.703  18.111  0.00  0.00    +0.000 C 
ATOM      9  C   UNL     1       0.828   9.385  17.866  0.00  0.00    +0.000 C 
BRANCH   7  10
ATOM     10  C   UNL     1       2.469   6.558  19.313  0.00  0.00    +0.000 A 
ATOM     11  C   UNL     1       3.318   6.074  18.308  0.00  0.00    +0.000 A 
ATOM     12  C   UNL     1       3.741   4.742  18.271  0.00  0.00    +0.000 A 
ATOM     13  C   UNL     1       3.316   3.845  19.251  0.00  0.00    +0.000 A 
ATOM     14  C   UNL     1       2.474   4.299  20.270  0.00  0.00    +0.000 A 
ATOM     15  C   UNL     1       2.054   5.638  20.288  0.00  0.00    +0.000 A 
BRANCH  13  16
ATOM     16  C   UNL     1       3.830   2.454  19.182  0.00  0.00    +0.000 C 
ATOM     17  O   UNL     1       3.224   1.555  18.628  0.00  0.00    +0.000 OA
BRANCH  16  18
ATOM     18  O   UNL     1       5.005   2.263  19.817  0.00  0.00    +0.000 OA
ATOM     19  H   UNL     1       5.762   2.060  19.241  0.00  0.00    +0.000 HD
ENDBRANCH  16  18
ENDBRANCH  13  16
ENDBRANCH   7  10
ENDBRANCH   2   4
ENDBRANCH   1   2
BRANCH   1  20
ATOM     20  C   UNL     1      -0.964  12.564  19.762  0.00  0.00    +0.000 C 
BRANCH  20  23
ATOM     21  C   UNL     1      -4.057  13.066  21.931  0.00  0.00    +0.000 A 
ATOM     22  C   UNL     1      -3.163  13.127  20.865  0.00  0.00    +0.000 A 
ATOM     23  C   UNL     1      -1.889  12.545  20.964  0.00  0.00    +0.000 A 
ATOM     24  C   UNL     1      -1.514  11.956  22.184  0.00  0.00    +0.000 A 
ATOM     25  C   UNL     1      -2.406  11.894  23.256  0.00  0.00    +0.000 A 
ATOM     26  C   UNL     1      -3.685  12.428  23.118  0.00  0.00    +0.000 A 
BRANCH  21  28
ATOM     27  C   UNL     1      -5.398  15.084  21.367  0.00  0.00    +0.000 C 
ATOM     28  N   UNL     1      -5.344  13.677  21.748  0.00  0.00    +0.000 N 
BRANCH  28  29
ATOM     29  S   UNL     1      -6.637  12.675  21.332  0.00  0.00    +0.000 S 
ATOM     30  C   UNL     1      -6.083  11.826  19.865  0.00  0.00    +0.000 C 
ATOM     31  O   UNL     1      -6.808  11.683  22.372  0.00  0.00    +0.000 OA
ATOM     32  O   UNL     1      -7.740  13.530  20.943  0.00  0.00    +0.000 OA
ENDBRANCH  28  29
ENDBRANCH  21  28
BRANCH  26  33
ATOM     33  O   UNL     1      -4.574  12.326  24.154  0.00  0.00    +0.000 OA
ATOM     34  H   UNL     1      -5.327  11.785  23.861  0.00  0.00    +0.000 HD
ENDBRANCH  26  33
ENDBRANCH  20  23
BRANCH  20  35
ATOM     35  O   UNL     1      -1.154  13.761  18.999  0.00  0.00    +0.000 OA
ATOM     36  H   UNL     1      -1.985  14.145  19.336  0.00  0.00    +0.000 HD
ENDBRANCH  20  35
ENDBRANCH   1  20
TORSDOF 11
ENDMDL
MODEL 3
REMARK VINA RESULT:      -7.4      3.962     11.719
REMARK  Name = 
REMARK  13 active torsions:
REMARK  status: ('A' for Active; 'I' for Inactive)
REMARK    1  A    between atoms: C_1  and  N_2
REMARK    2  A    between atoms: N_2  and  C_3
REMARK    3  A    between atoms: N_2  and  S_29
REMARK    4  A    between atoms: C_5  and  C_6
REMARK    5  A    between atoms: C_6  and  O_7
REMARK    6  A    between atoms: C_6  and  C_8
REMARK    7  A    between atoms: C_8  and  N_9
REMARK    8  A    between atoms: N_9  and  C_10
REMARK    9  A    between atoms: N_13  and  C_14
REMARK   10  A    between atoms: C_17  and  C_18
REMARK   11  A    between atoms: C_18  and  O_20
REMARK   12  A    between atoms: C_27  and  O_28
REMARK   13  A    between atoms: S_29  and  C_30
REMARK                            x       y       z     vdW  Elec       q    Type
REMARK                         _______ _______ _______ _____ _____    ______ ____
ROOT
ATOM      1  C   UNL     1       0.448  12.488  19.693  0.00  0.00    +0.000 C 
ENDROOT
BRANCH   1   2
ATOM      2  N   UNL     1       1.262  11.255  19.594  0.00  0.00    +0.000 NA
ATOM      3  H   UNL     1       1.650  11.058  20.522  0.00  0.00    +0.000 HD
BRANCH   2   4
ATOM      4  C   UNL     1       0.463  10.080  19.179  0.00  0.00    +0.000 C 
ATOM      5  C   UNL     1       0.379   9.092  20.357  0.00  0.00    +0.000 C 
ATOM      6  C   UNL     1       1.716   8.392  20.623  0.00  0.00    +0.000 C 
ATOM      7  N   UNL     1       2.159   7.755  19.382  0.00  0.00    +0.000 N 
ATOM      8  C   UNL     1       2.346   8.667  18.249  0.00  0.00    +0.000 C 
ATOM      9  C   UNL     1       1.010   9.336  17.945  0.00  0.00    +0.000 C 
BRANCH   7  10
ATOM     10  C   UNL     1       2.606   6.451  19.326  0.00  0.00    +0.000 A 
ATOM     11  C   UNL     1       2.078   5.474  20.182  0.00  0.00    +0.000 A 
ATOM     12  C   UNL     1       2.523   4.148  20.160  0.00  0.00    +0.000 A 
ATOM     13  C   UNL     1       3.525   3.762  19.271  0.00  0.00    +0.000 A 
ATOM     14  C   UNL     1       4.067   4.712  18.400  0.00  0.00    +0.000 A 
ATOM     15  C   UNL     1       3.613   6.039  18.441  0.00  0.00    +0.000 A 
BRANCH  13  16
ATOM     16  C   UNL     1       3.928   2.332  19.266  0.00  0.00    +0.000 C 
ATOM     17  O   UNL     1       3.290   1.471  18.688  0.00  0.00    +0.000 OA
BRANCH  16  18
ATOM     18  O   UNL     1       5.037   2.064  19.985  0.00  0.00    +0.000 OA
ATOM     19  H   UNL     1       5.851   2.492  19.671  0.00  0.00    +0.000 HD
ENDBRANCH  16  18
ENDBRANCH  13  16
ENDBRANCH   7  10
ENDBRANCH   2   4
ENDBRANCH   1   2
BRANCH   1  20
ATOM     20  C   UNL     1      -1.072  12.228  19.493  0.00  0.00    +0.000 C 
BRANCH  20  23
ATOM     21  C   UNL     1      -3.944  12.874  21.914  0.00  0.00    +0.000 A 
ATOM     22  C   UNL     1      -3.162  12.855  20.762  0.00  0.00    +0.000 A 
ATOM     23  C   UNL     1      -1.872  12.300  20.781  0.00  0.00    +0.000 A 
ATOM     24  C   UNL     1      -1.366  11.821  22.001  0.00  0.00    +0.000 A 
ATOM     25  C   UNL     1      -2.145  11.840  23.159  0.00  0.00    +0.000 A 
ATOM     26  C   UNL     1      -3.443  12.344  23.107  0.00  0.00    +0.000 A 
BRANCH  21  28
ATOM     27  C   UNL     1      -6.408  12.557  21.775  0.00  0.00    +0.000 C 
ATOM     28  N   UNL     1      -5.256  13.451  21.811  0.00  0.00    +0.000 N 
BRANCH  28  29
ATOM     29  S   UNL     1      -5.469  15.024  22.383  0.00  0.00    +0.000 S 
ATOM     30  C   UNL     1      -7.215  15.330  22.192  0.00  0.00    +0.000 C 
ATOM     31  O   UNL     1      -5.174  15.047  23.800  0.00  0.00    +0.000 OA
ATOM     32  O   UNL     1      -4.775  15.913  21.474  0.00  0.00    +0.000 OA
ENDBRANCH  28  29
ENDBRANCH  21  28
BRANCH  26  33
ATOM     33  O   UNL     1      -4.222  12.319  24.232  0.00  0.00    +0.000 OA
ATOM     34  H   UNL     1      -5.145  12.472  23.970  0.00  0.00    +0.000 HD
ENDBRANCH  26  33
ENDBRANCH  20  23
BRANCH  20  35
ATOM     35  O   UNL     1      -1.575  13.165  18.535  0.00  0.00    +0.000 OA
ATOM     36  H   UNL     1      -2.544  13.056  18.561  0.00  0.00    +0.000 HD
ENDBRANCH  20  35
ENDBRANCH   1  20
TORSDOF 11
ENDMDL
MODEL 4
REMARK VINA RESULT:      -7.3      4.376     11.452
REMARK  Name = 
REMARK  13 active torsions:
REMARK  status: ('A' for Active; 'I' for Inactive)
REMARK    1  A    between atoms: C_1  and  N_2
REMARK    2  A    between atoms: N_2  and  C_3
REMARK    3  A    between atoms: N_2  and  S_29
REMARK    4  A    between atoms: C_5  and  C_6
REMARK    5  A    between atoms: C_6  and  O_7
REMARK    6  A    between atoms: C_6  and  C_8
REMARK    7  A    between atoms: C_8  and  N_9
REMARK    8  A    between atoms: N_9  and  C_10
REMARK    9  A    between atoms: N_13  and  C_14
REMARK   10  A    between atoms: C_17  and  C_18
REMARK   11  A    between atoms: C_18  and  O_20
REMARK   12  A    between atoms: C_27  and  O_28
REMARK   13  A    between atoms: S_29  and  C_30
REMARK                            x       y       z     vdW  Elec       q    Type
REMARK                         _______ _______ _______ _____ _____    ______ ____
ROOT
ATOM      1  C   UNL     1      -1.174  12.093  18.405  0.00  0.00    +0.000 C 
ENDROOT
BRANCH   1   2
ATOM      2  N   UNL     1      -0.852  11.504  19.725  0.00  0.00    +0.000 NA
ATOM      3  H   UNL     1      -1.223  10.548  19.742  0.00  0.00    +0.000 HD
BRANCH   2   4
ATOM      4  C   UNL     1       0.605  11.429  19.973  0.00  0.00    +0.000 C 
ATOM      5  C   UNL     1       1.322  11.120  18.644  0.00  0.00    +0.000 C 
ATOM      6  C   UNL     1       1.083   9.679  18.179  0.00  0.00    +0.000 C 
ATOM      7  N   UNL     1       1.478   8.774  19.258  0.00  0.00    +0.000 N 
ATOM      8  C   UNL     1       0.759   8.963  20.522  0.00  0.00    +0.000 C 
ATOM      9  C   UNL     1       1.026  10.380  21.020  0.00  0.00    +0.000 C 
BRANCH   7  10
ATOM     10  C   UNL     1       2.279   7.669  19.055  0.00  0.00    +0.000 A 
ATOM     11  C   UNL     1       2.279   6.605  19.969  0.00  0.00    +0.000 A 
ATOM     12  C   UNL     1       3.092   5.480  19.799  0.00  0.00    +0.000 A 
ATOM     13  C   UNL     1       3.941   5.391  18.695  0.00  0.00    +0.000 A 
ATOM     14  C   UNL     1       3.957   6.432  17.763  0.00  0.00    +0.000 A 
ATOM     15  C   UNL     1       3.140   7.557  17.954  0.00  0.00    +0.000 A 
BRANCH  13  16
ATOM     16  C   UNL     1       4.750   4.155  18.546  0.00  0.00    +0.000 C 
ATOM     17  O   UNL     1       5.878   4.049  18.992  0.00  0.00    +0.000 OA
BRANCH  16  18
ATOM     18  O   UNL     1       4.145   3.175  17.844  0.00  0.00    +0.000 OA
ATOM     19  H   UNL     1       4.570   2.943  17.001  0.00  0.00    +0.000 HD
ENDBRANCH  16  18
ENDBRANCH  13  16
ENDBRANCH   7  10
ENDBRANCH   2   4
ENDBRANCH   1   2
BRANCH   1  20
ATOM     20  C   UNL     1      -2.267  11.297  17.636  0.00  0.00    +0.000 C 
BRANCH  20  23
ATOM     21  C   UNL     1      -5.141  12.606  19.770  0.00  0.00    +0.000 A 
ATOM     22  C   UNL     1      -3.863  12.373  19.269  0.00  0.00    +0.000 A 
ATOM     23  C   UNL     1      -3.661  11.475  18.209  0.00  0.00    +0.000 A 
ATOM     24  C   UNL     1      -4.768  10.771  17.707  0.00  0.00    +0.000 A 
ATOM     25  C   UNL     1      -6.051  10.999  18.207  0.00  0.00    +0.000 A 
ATOM     26  C   UNL     1      -6.238  11.935  19.222  0.00  0.00    +0.000 A 
BRANCH  21  28
ATOM     27  C   UNL     1      -5.815  14.866  20.562  0.00  0.00    +0.000 C 
ATOM     28  N   UNL     1      -5.265  13.546  20.849  0.00  0.00    +0.000 N 
BRANCH  28  29
ATOM     29  S   UNL     1      -5.411  12.931  22.414  0.00  0.00    +0.000 S 
ATOM     30  C   UNL     1      -5.543  14.378  23.447  0.00  0.00    +0.000 C 
ATOM     31  O   UNL     1      -6.661  12.207  22.514  0.00  0.00    +0.000 OA
ATOM     32  O   UNL     1      -4.158  12.282  22.742  0.00  0.00    +0.000 OA
ENDBRANCH  28  29
ENDBRANCH  21  28
BRANCH  26  33
ATOM     33  O   UNL     1      -7.502  12.191  19.679  0.00  0.00    +0.000 OA
ATOM     34  H   UNL     1      -7.541  11.959  20.623  0.00  0.00    +0.000 HD
ENDBRANCH  26  33
ENDBRANCH  20  23
BRANCH  20  35
ATOM     35  O   UNL     1      -2.235  11.688  16.260  0.00  0.00    +0.000 OA
ATOM     36  H   UNL     1      -3.164  11.653  15.966  0.00  0.00    +0.000 HD
ENDBRANCH  20  35
ENDBRANCH   1  20
TORSDOF 11
ENDMDL
MODEL 5
REMARK VINA RESULT:      -7.2      1.666      1.871
REMARK  Name = 
REMARK  13 active torsions:
REMARK  status: ('A' for Active; 'I' for Inactive)
REMARK    1  A    between atoms: C_1  and  N_2
REMARK    2  A    between atoms: N_2  and  C_3
REMARK    3  A    between atoms: N_2  and  S_29
REMARK    4  A    between atoms: C_5  and  C_6
REMARK    5  A    between atoms: C_6  and  O_7
REMARK    6  A    between atoms: C_6  and  C_8
REMARK    7  A    between atoms: C_8  and  N_9
REMARK    8  A    between atoms: N_9  and  C_10
REMARK    9  A    between atoms: N_13  and  C_14
REMARK   10  A    between atoms: C_17  and  C_18
REMARK   11  A    between atoms: C_18  and  O_20
REMARK   12  A    between atoms: C_27  and  O_28
REMARK   13  A    between atoms: S_29  and  C_30
REMARK                            x       y       z     vdW  Elec       q    Type
REMARK                         _______ _______ _______ _____ _____    ______ ____
ROOT
ATOM      1  C   UNL     1       1.893   7.311  20.102  0.00  0.00    +0.000 C 
ENDROOT
BRANCH   1   2
ATOM      2  N   UNL     1       0.967   7.903  21.094  0.00  0.00    +0.000 NA
ATOM      3  H   UNL     1       0.883   7.249  21.878  0.00  0.00    +0.000 HD
BRANCH   2   4
ATOM      4  C   UNL     1       1.458   9.193  21.630  0.00  0.00    +0.000 C 
ATOM      5  C   UNL     1       0.901   9.386  23.053  0.00  0.00    +0.000 C 
ATOM      6  C   UNL     1      -0.603   9.684  23.051  0.00  0.00    +0.000 C 
ATOM      7  N   UNL     1      -0.844  10.840  22.188  0.00  0.00    +0.000 N 
ATOM      8  C   UNL     1      -0.416  10.675  20.795  0.00  0.00    +0.000 C 
ATOM      9  C   UNL     1       1.088  10.424  20.780  0.00  0.00    +0.000 C 
BRANCH   7  10
ATOM     10  C   UNL     1      -1.627  11.910  22.569  0.00  0.00    +0.000 A 
ATOM     11  C   UNL     1      -1.373  13.198  22.074  0.00  0.00    +0.000 A 
ATOM     12  C   UNL     1      -2.139  14.304  22.455  0.00  0.00    +0.000 A 
ATOM     13  C   UNL     1      -3.193  14.148  23.357  0.00  0.00    +0.000 A 
ATOM     14  C   UNL     1      -3.475  12.876  23.861  0.00  0.00    +0.000 A 
ATOM     15  C   UNL     1      -2.691  11.778  23.473  0.00  0.00    +0.000 A 
BRANCH  13  16
ATOM     16  C   UNL     1      -3.996  15.352  23.692  0.00  0.00    +0.000 C 
ATOM     17  O   UNL     1      -4.365  16.151  22.852  0.00  0.00    +0.000 OA
BRANCH  16  18
ATOM     18  O   UNL     1      -4.248  15.502  25.009  0.00  0.00    +0.000 OA
ATOM     19  H   UNL     1      -3.863  14.823  25.588  0.00  0.00    +0.000 HD
ENDBRANCH  16  18
ENDBRANCH  13  16
ENDBRANCH   7  10
ENDBRANCH   2   4
ENDBRANCH   1   2
BRANCH   1  20
ATOM     20  C   UNL     1       1.927   5.757  20.158  0.00  0.00    +0.000 C 
BRANCH  20  23
ATOM     21  C   UNL     1       5.056   5.060  18.096  0.00  0.00    +0.000 A 
ATOM     22  C   UNL     1       4.156   5.652  18.979  0.00  0.00    +0.000 A 
ATOM     23  C   UNL     1       2.859   5.135  19.135  0.00  0.00    +0.000 A 
ATOM     24  C   UNL     1       2.471   4.046  18.337  0.00  0.00    +0.000 A 
ATOM     25  C   UNL     1       3.368   3.451  17.449  0.00  0.00    +0.000 A 
ATOM     26  C   UNL     1       4.667   3.944  17.349  0.00  0.00    +0.000 A 
BRANCH  21  28
ATOM     27  C   UNL     1       7.449   5.049  18.775  0.00  0.00    +0.000 C 
ATOM     28  N   UNL     1       6.365   5.642  18.000  0.00  0.00    +0.000 N 
BRANCH  28  29
ATOM     29  S   UNL     1       6.746   6.489  16.590  0.00  0.00    +0.000 S 
ATOM     30  C   UNL     1       5.165   6.831  15.839  0.00  0.00    +0.000 C 
ATOM     31  O   UNL     1       7.339   7.758  16.957  0.00  0.00    +0.000 OA
ATOM     32  O   UNL     1       7.450   5.575  15.713  0.00  0.00    +0.000 OA
ENDBRANCH  28  29
ENDBRANCH  21  28
BRANCH  26  33
ATOM     33  O   UNL     1       5.559   3.330  16.512  0.00  0.00    +0.000 OA
ATOM     34  H   UNL     1       6.347   3.086  17.028  0.00  0.00    +0.000 HD
ENDBRANCH  26  33
ENDBRANCH  20  23
BRANCH  20  35
ATOM     35  O   UNL     1       2.291   5.354  21.482  0.00  0.00    +0.000 OA
ATOM     36  H   UNL     1       2.225   4.381  21.476  0.00  0.00    +0.000 HD
ENDBRANCH  20  35
ENDBRANCH   1  20
TORSDOF 11
ENDMDL
MODEL 6
REMARK VINA RESULT:      -7.2      2.350      3.274
REMARK  Name = 
REMARK  13 active torsions:
REMARK  status: ('A' for Active; 'I' for Inactive)
REMARK    1  A    between atoms: C_1  and  N_2
REMARK    2  A    between atoms: N_2  and  C_3
REMARK    3  A    between atoms: N_2  and  S_29
REMARK    4  A    between atoms: C_5  and  C_6
REMARK    5  A    between atoms: C_6  and  O_7
REMARK    6  A    between atoms: C_6  and  C_8
REMARK    7  A    between atoms: C_8  and  N_9
REMARK    8  A    between atoms: N_9  and  C_10
REMARK    9  A    between atoms: N_13  and  C_14
REMARK   10  A    between atoms: C_17  and  C_18
REMARK   11  A    between atoms: C_18  and  O_20
REMARK   12  A    between atoms: C_27  and  O_28
REMARK   13  A    between atoms: S_29  and  C_30
REMARK                            x       y       z     vdW  Elec       q    Type
REMARK                         _______ _______ _______ _____ _____    ______ ____
ROOT
ATOM      1  C   UNL     1       2.400  10.738  18.332  0.00  0.00    +0.000 C 
ENDROOT
BRANCH   1   2
ATOM      2  N   UNL     1       1.687  11.959  17.892  0.00  0.00    +0.000 NA
ATOM      3  H   UNL     1       0.742  11.687  17.604  0.00  0.00    +0.000 HD
BRANCH   2   4
ATOM      4  C   UNL     1       1.560  12.962  18.973  0.00  0.00    +0.000 C 
ATOM      5  C   UNL     1       1.556  12.234  20.331  0.00  0.00    +0.000 C 
ATOM      6  C   UNL     1       0.256  11.458  20.569  0.00  0.00    +0.000 C 
ATOM      7  N   UNL     1      -0.868  12.382  20.420  0.00  0.00    +0.000 N 
ATOM      8  C   UNL     1      -0.967  13.035  19.111  0.00  0.00    +0.000 C 
ATOM      9  C   UNL     1       0.303  13.849  18.882  0.00  0.00    +0.000 C 
BRANCH   7  10
ATOM     10  C   UNL     1      -1.899  12.462  21.334  0.00  0.00    +0.000 A 
ATOM     11  C   UNL     1      -3.131  13.032  20.978  0.00  0.00    +0.000 A 
ATOM     12  C   UNL     1      -4.188  13.142  21.887  0.00  0.00    +0.000 A 
ATOM     13  C   UNL     1      -4.037  12.681  23.195  0.00  0.00    +0.000 A 
ATOM     14  C   UNL     1      -2.824  12.102  23.577  0.00  0.00    +0.000 A 
ATOM     15  C   UNL     1      -1.771  12.006  22.654  0.00  0.00    +0.000 A 
BRANCH  13  16
ATOM     16  C   UNL     1      -5.208  12.788  24.102  0.00  0.00    +0.000 C 
ATOM     17  O   UNL     1      -6.118  13.573  23.911  0.00  0.00    +0.000 OA
BRANCH  16  18
ATOM     18  O   UNL     1      -5.158  11.970  25.173  0.00  0.00    +0.000 OA
ATOM     19  H   UNL     1      -5.765  11.211  25.147  0.00  0.00    +0.000 HD
ENDBRANCH  16  18
ENDBRANCH  13  16
ENDBRANCH   7  10
ENDBRANCH   2   4
ENDBRANCH   1   2
BRANCH   1  20
ATOM     20  C   UNL     1       1.762   9.432  17.778  0.00  0.00    +0.000 C 
BRANCH  20  23
ATOM     21  C   UNL     1       2.593   5.963  19.121  0.00  0.00    +0.000 A 
ATOM     22  C   UNL     1       2.413   7.041  18.258  0.00  0.00    +0.000 A 
ATOM     23  C   UNL     1       1.879   8.253  18.725  0.00  0.00    +0.000 A 
ATOM     24  C   UNL     1       1.474   8.333  20.069  0.00  0.00    +0.000 A 
ATOM     25  C   UNL     1       1.651   7.255  20.937  0.00  0.00    +0.000 A 
ATOM     26  C   UNL     1       2.233   6.080  20.467  0.00  0.00    +0.000 A 
BRANCH  21  28
ATOM     27  C   UNL     1       2.456   4.113  17.463  0.00  0.00    +0.000 C 
ATOM     28  N   UNL     1       3.154   4.762  18.568  0.00  0.00    +0.000 N 
BRANCH  28  29
ATOM     29  S   UNL     1       4.818   4.528  18.723  0.00  0.00    +0.000 S 
ATOM     30  C   UNL     1       5.386   4.277  17.052  0.00  0.00    +0.000 C 
ATOM     31  O   UNL     1       5.416   5.753  19.209  0.00  0.00    +0.000 OA
ATOM     32  O   UNL     1       5.014   3.281  19.436  0.00  0.00    +0.000 OA
ENDBRANCH  28  29
ENDBRANCH  21  28
BRANCH  26  33
ATOM     33  O   UNL     1       2.449   5.040  21.330  0.00  0.00    +0.000 OA
ATOM     34  H   UNL     1       3.270   5.213  21.821  0.00  0.00    +0.000 HD
ENDBRANCH  26  33
ENDBRANCH  20  23
BRANCH  20  35
ATOM     35  O   UNL     1       0.390   9.690  17.463  0.00  0.00    +0.000 OA
ATOM     36  H   UNL     1       0.412  10.429  16.827  0.00  0.00    +0.000 HD
ENDBRANCH  20  35
ENDBRANCH   1  20
TORSDOF 11
ENDMDL
MODEL 7
REMARK VINA RESULT:      -7.1      3.727     11.836
REMARK  Name = 
REMARK  13 active torsions:
REMARK  status: ('A' for Active; 'I' for Inactive)
REMARK    1  A    between atoms: C_1  and  N_2
REMARK    2  A    between atoms: N_2  and  C_3
REMARK    3  A    between atoms: N_2  and  S_29
REMARK    4  A    between atoms: C_5  and  C_6
REMARK    5  A    between atoms: C_6  and  O_7
REMARK    6  A    between atoms: C_6  and  C_8
REMARK    7  A    between atoms: C_8  and  N_9
REMARK    8  A    between atoms: N_9  and  C_10
REMARK    9  A    between atoms: N_13  and  C_14
REMARK   10  A    between atoms: C_17  and  C_18
REMARK   11  A    between atoms: C_18  and  O_20
REMARK   12  A    between atoms: C_27  and  O_28
REMARK   13  A    between atoms: S_29  and  C_30
REMARK                            x       y       z     vdW  Elec       q    Type
REMARK                         _______ _______ _______ _____ _____    ______ ____
ROOT
ATOM      1  C   UNL     1       0.662   8.085  21.949  0.00  0.00    +0.000 C 
ENDROOT
BRANCH   1   2
ATOM      2  N   UNL     1       1.793   7.577  21.141  0.00  0.00    +0.000 NA
ATOM      3  H   UNL     1       2.414   7.050  21.762  0.00  0.00    +0.000 HD
BRANCH   2   4
ATOM      4  C   UNL     1       1.354   6.665  20.060  0.00  0.00    +0.000 C 
ATOM      5  C   UNL     1       2.213   5.387  20.105  0.00  0.00    +0.000 C 
ATOM      6  C   UNL     1       3.651   5.639  19.637  0.00  0.00    +0.000 C 
ATOM      7  N   UNL     1       3.604   6.242  18.305  0.00  0.00    +0.000 N 
ATOM      8  C   UNL     1       2.876   7.512  18.223  0.00  0.00    +0.000 C 
ATOM      9  C   UNL     1       1.431   7.265  18.643  0.00  0.00    +0.000 C 
BRANCH   7  10
ATOM     10  C   UNL     1       4.380   5.799  17.254  0.00  0.00    +0.000 A 
ATOM     11  C   UNL     1       4.816   6.687  16.260  0.00  0.00    +0.000 A 
ATOM     12  C   UNL     1       5.589   6.264  15.174  0.00  0.00    +0.000 A 
ATOM     13  C   UNL     1       5.948   4.922  15.051  0.00  0.00    +0.000 A 
ATOM     14  C   UNL     1       5.534   4.014  16.030  0.00  0.00    +0.000 A 
ATOM     15  C   UNL     1       4.753   4.455  17.109  0.00  0.00    +0.000 A 
BRANCH  13  16
ATOM     16  C   UNL     1       6.803   4.540  13.898  0.00  0.00    +0.000 C 
ATOM     17  O   UNL     1       7.687   5.259  13.469  0.00  0.00    +0.000 OA
BRANCH  16  18
ATOM     18  O   UNL     1       6.493   3.349  13.346  0.00  0.00    +0.000 OA
ATOM     19  H   UNL     1       7.222   2.901  12.884  0.00  0.00    +0.000 HD
ENDBRANCH  16  18
ENDBRANCH  13  16
ENDBRANCH   7  10
ENDBRANCH   2   4
ENDBRANCH   1   2
BRANCH   1  20
ATOM     20  C   UNL     1       0.831   9.577  22.356  0.00  0.00    +0.000 C 
BRANCH  20  23
ATOM     21  C   UNL     1      -1.747  12.330  21.808  0.00  0.00    +0.000 A 
ATOM     22  C   UNL     1      -0.893  11.419  22.424  0.00  0.00    +0.000 A 
ATOM     23  C   UNL     1      -0.144  10.508  21.661  0.00  0.00    +0.000 A 
ATOM     24  C   UNL     1      -0.323  10.496  20.267  0.00  0.00    +0.000 A 
ATOM     25  C   UNL     1      -1.178  11.406  19.645  0.00  0.00    +0.000 A 
ATOM     26  C   UNL     1      -1.870  12.338  20.415  0.00  0.00    +0.000 A 
BRANCH  21  28
ATOM     27  C   UNL     1      -2.076  14.638  22.675  0.00  0.00    +0.000 C 
ATOM     28  N   UNL     1      -2.470  13.234  22.657  0.00  0.00    +0.000 N 
BRANCH  28  29
ATOM     29  S   UNL     1      -4.061  12.835  23.055  0.00  0.00    +0.000 S 
ATOM     30  C   UNL     1      -4.792  14.381  23.559  0.00  0.00    +0.000 C 
ATOM     31  O   UNL     1      -4.745  12.400  21.855  0.00  0.00    +0.000 OA
ATOM     32  O   UNL     1      -4.013  11.980  24.224  0.00  0.00    +0.000 OA
ENDBRANCH  28  29
ENDBRANCH  21  28
BRANCH  26  33
ATOM     33  O   UNL     1      -2.673  13.259  19.800  0.00  0.00    +0.000 OA
ATOM     34  H   UNL     1      -2.495  14.132  20.189  0.00  0.00    +0.000 HD
ENDBRANCH  26  33
ENDBRANCH  20  23
BRANCH  20  35
ATOM     35  O   UNL     1       0.701   9.681  23.778  0.00  0.00    +0.000 OA
ATOM     36  H   UNL     1      -0.243   9.872  23.931  0.00  0.00    +0.000 HD
ENDBRANCH  20  35
ENDBRANCH   1  20
TORSDOF 11
ENDMDL
MODEL 8
REMARK VINA RESULT:      -7.1      7.500     11.140
REMARK  Name = 
REMARK  13 active torsions:
REMARK  status: ('A' for Active; 'I' for Inactive)
REMARK    1  A    between atoms: C_1  and  N_2
REMARK    2  A    between atoms: N_2  and  C_3
REMARK    3  A    between atoms: N_2  and  S_29
REMARK    4  A    between atoms: C_5  and  C_6
REMARK    5  A    between atoms: C_6  and  O_7
REMARK    6  A    between atoms: C_6  and  C_8
REMARK    7  A    between atoms: C_8  and  N_9
REMARK    8  A    between atoms: N_9  and  C_10
REMARK    9  A    between atoms: N_13  and  C_14
REMARK   10  A    between atoms: C_17  and  C_18
REMARK   11  A    between atoms: C_18  and  O_20
REMARK   12  A    between atoms: C_27  and  O_28
REMARK   13  A    between atoms: S_29  and  C_30
REMARK                            x       y       z     vdW  Elec       q    Type
REMARK                         _______ _______ _______ _____ _____    ______ ____
ROOT
ATOM      1  C   UNL     1       8.492   9.300  18.147  0.00  0.00    +0.000 C 
ENDROOT
BRANCH   1   2
ATOM      2  N   UNL     1       8.252   7.972  18.755  0.00  0.00    +0.000 NA
ATOM      3  H   UNL     1       7.486   8.067  19.429  0.00  0.00    +0.000 HD
BRANCH   2   4
ATOM      4  C   UNL     1       7.853   6.954  17.757  0.00  0.00    +0.000 C 
ATOM      5  C   UNL     1       6.507   7.370  17.132  0.00  0.00    +0.000 C 
ATOM      6  C   UNL     1       5.340   7.214  18.114  0.00  0.00    +0.000 C 
ATOM      7  N   UNL     1       5.332   5.838  18.608  0.00  0.00    +0.000 N 
ATOM      8  C   UNL     1       6.557   5.418  19.296  0.00  0.00    +0.000 C 
ATOM      9  C   UNL     1       7.720   5.524  18.315  0.00  0.00    +0.000 C 
BRANCH   7  10
ATOM     10  C   UNL     1       4.191   5.063  18.653  0.00  0.00    +0.000 A 
ATOM     11  C   UNL     1       3.769   4.476  19.855  0.00  0.00    +0.000 A 
ATOM     12  C   UNL     1       2.627   3.672  19.927  0.00  0.00    +0.000 A 
ATOM     13  C   UNL     1       1.868   3.430  18.782  0.00  0.00    +0.000 A 
ATOM     14  C   UNL     1       2.260   4.007  17.571  0.00  0.00    +0.000 A 
ATOM     15  C   UNL     1       3.413   4.805  17.515  0.00  0.00    +0.000 A 
BRANCH  13  16
ATOM     16  C   UNL     1       0.644   2.602  18.929  0.00  0.00    +0.000 C 
ATOM     17  O   UNL     1       0.294   1.790  18.092  0.00  0.00    +0.000 OA
BRANCH  16  18
ATOM     18  O   UNL     1      -0.066   2.853  20.048  0.00  0.00    +0.000 OA
ATOM     19  H   UNL     1      -0.864   2.311  20.166  0.00  0.00    +0.000 HD
ENDBRANCH  16  18
ENDBRANCH  13  16
ENDBRANCH   7  10
ENDBRANCH   2   4
ENDBRANCH   1   2
BRANCH   1  20
ATOM     20  C   UNL     1       9.570  10.127  18.905  0.00  0.00    +0.000 C 
BRANCH  20  23
ATOM     21  C   UNL     1       9.076  13.768  17.894  0.00  0.00    +0.000 A 
ATOM     22  C   UNL     1       8.842  12.487  18.388  0.00  0.00    +0.000 A 
ATOM     23  C   UNL     1       9.827  11.491  18.294  0.00  0.00    +0.000 A 
ATOM     24  C   UNL     1      11.030  11.798  17.635  0.00  0.00    +0.000 A 
ATOM     25  C   UNL     1      11.268  13.080  17.136  0.00  0.00    +0.000 A 
ATOM     26  C   UNL     1      10.300  14.069  17.289  0.00  0.00    +0.000 A 
BRANCH  21  28
ATOM     27  C   UNL     1       6.677  14.363  17.612  0.00  0.00    +0.000 C 
ATOM     28  N   UNL     1       8.022  14.733  18.038  0.00  0.00    +0.000 N 
BRANCH  28  29
ATOM     29  S   UNL     1       8.198  15.917  19.228  0.00  0.00    +0.000 S 
ATOM     30  C   UNL     1       7.000  15.473  20.472  0.00  0.00    +0.000 C 
ATOM     31  O   UNL     1       9.512  15.788  19.821  0.00  0.00    +0.000 OA
ATOM     32  O   UNL     1       7.772  17.177  18.651  0.00  0.00    +0.000 OA
ENDBRANCH  28  29
ENDBRANCH  21  28
BRANCH  26  33
ATOM     33  O   UNL     1      10.554  15.337  16.842  0.00  0.00    +0.000 OA
ATOM     34  H   UNL     1      10.164  15.969  17.469  0.00  0.00    +0.000 HD
ENDBRANCH  26  33
ENDBRANCH  20  23
BRANCH  20  35
ATOM     35  O   UNL     1       9.169  10.256  20.273  0.00  0.00    +0.000 OA
ATOM     36  H   UNL     1       9.895  10.746  20.703  0.00  0.00    +0.000 HD
ENDBRANCH  20  35
ENDBRANCH   1  20
TORSDOF 11
ENDMDL
MODEL 9
REMARK VINA RESULT:      -7.1      4.104     11.719
REMARK  Name = 
REMARK  13 active torsions:
REMARK  status: ('A' for Active; 'I' for Inactive)
REMARK    1  A    between atoms: C_1  and  N_2
REMARK    2  A    between atoms: N_2  and  C_3
REMARK    3  A    between atoms: N_2  and  S_29
REMARK    4  A    between atoms: C_5  and  C_6
REMARK    5  A    between atoms: C_6  and  O_7
REMARK    6  A    between atoms: C_6  and  C_8
REMARK    7  A    between atoms: C_8  and  N_9
REMARK    8  A    between atoms: N_9  and  C_10
REMARK    9  A    between atoms: N_13  and  C_14
REMARK   10  A    between atoms: C_17  and  C_18
REMARK   11  A    between atoms: C_18  and  O_20
REMARK   12  A    between atoms: C_27  and  O_28
REMARK   13  A    between atoms: S_29  and  C_30
REMARK                            x       y       z     vdW  Elec       q    Type
REMARK                         _______ _______ _______ _____ _____    ______ ____
ROOT
ATOM      1  C   UNL     1      -1.230  12.266  21.482  0.00  0.00    +0.000 C 
ENDROOT
BRANCH   1   2
ATOM      2  N   UNL     1      -0.720  10.997  20.915  0.00  0.00    +0.000 NA
ATOM      3  H   UNL     1      -1.016  10.946  19.936  0.00  0.00    +0.000 HD
BRANCH   2   4
ATOM      4  C   UNL     1       0.758  10.914  20.947  0.00  0.00    +0.000 C 
ATOM      5  C   UNL     1       1.279  10.762  19.505  0.00  0.00    +0.000 C 
ATOM      6  C   UNL     1       0.974   9.377  18.922  0.00  0.00    +0.000 C 
ATOM      7  N   UNL     1       1.514   8.364  19.829  0.00  0.00    +0.000 N 
ATOM      8  C   UNL     1       0.980   8.405  21.194  0.00  0.00    +0.000 C 
ATOM      9  C   UNL     1       1.319   9.762  21.802  0.00  0.00    +0.000 C 
BRANCH   7  10
ATOM     10  C   UNL     1       2.275   7.298  19.395  0.00  0.00    +0.000 A 
ATOM     11  C   UNL     1       3.047   7.396  18.228  0.00  0.00    +0.000 A 
ATOM     12  C   UNL     1       3.815   6.327  17.754  0.00  0.00    +0.000 A 
ATOM     13  C   UNL     1       3.827   5.114  18.444  0.00  0.00    +0.000 A 
ATOM     14  C   UNL     1       3.072   4.989  19.613  0.00  0.00    +0.000 A 
ATOM     15  C   UNL     1       2.302   6.069  20.070  0.00  0.00    +0.000 A 
BRANCH  13  16
ATOM     16  C   UNL     1       4.692   4.030  17.915  0.00  0.00    +0.000 C 
ATOM     17  O   UNL     1       4.355   3.310  16.992  0.00  0.00    +0.000 OA
BRANCH  16  18
ATOM     18  O   UNL     1       5.864   3.885  18.566  0.00  0.00    +0.000 OA
ATOM     19  H   UNL     1       6.661   4.002  18.022  0.00  0.00    +0.000 HD
ENDBRANCH  16  18
ENDBRANCH  13  16
ENDBRANCH   7  10
ENDBRANCH   2   4
ENDBRANCH   1   2
BRANCH   1  20
ATOM     20  C   UNL     1      -1.787  12.104  22.925  0.00  0.00    +0.000 C 
BRANCH  20  23
ATOM     21  C   UNL     1      -5.356  13.036  21.965  0.00  0.00    +0.000 A 
ATOM     22  C   UNL     1      -3.988  12.785  21.894  0.00  0.00    +0.000 A 
ATOM     23  C   UNL     1      -3.261  12.444  23.046  0.00  0.00    +0.000 A 
ATOM     24  C   UNL     1      -3.932  12.424  24.280  0.00  0.00    +0.000 A 
ATOM     25  C   UNL     1      -5.302  12.677  24.357  0.00  0.00    +0.000 A 
ATOM     26  C   UNL     1      -6.016  12.959  23.195  0.00  0.00    +0.000 A 
BRANCH  21  28
ATOM     27  C   UNL     1      -5.867  14.714  20.201  0.00  0.00    +0.000 C 
ATOM     28  N   UNL     1      -6.030  13.369  20.741  0.00  0.00    +0.000 N 
BRANCH  28  29
ATOM     29  S   UNL     1      -6.399  12.109  19.680  0.00  0.00    +0.000 S 
ATOM     30  C   UNL     1      -7.625  12.800  18.585  0.00  0.00    +0.000 C 
ATOM     31  O   UNL     1      -5.225  11.811  18.888  0.00  0.00    +0.000 OA
ATOM     32  O   UNL     1      -7.048  11.069  20.452  0.00  0.00    +0.000 OA
ENDBRANCH  28  29
ENDBRANCH  21  28
BRANCH  26  33
ATOM     33  O   UNL     1      -7.368  13.161  23.266  0.00  0.00    +0.000 OA
ATOM     34  H   UNL     1      -7.816  12.361  22.945  0.00  0.00    +0.000 HD
ENDBRANCH  26  33
ENDBRANCH  20  23
BRANCH  20  35
ATOM     35  O   UNL     1      -1.542  10.764  23.363  0.00  0.00    +0.000 OA
ATOM     36  H   UNL     1      -2.166  10.214  22.854  0.00  0.00    +0.000 HD
ENDBRANCH  20  35
ENDBRANCH   1  20
TORSDOF 11
ENDMDL
