MODEL 1
REMARK VINA RESULT:      -6.6      0.000      0.000
REMARK  Name = 
REMARK  8 active torsions:
REMARK  status: ('A' for Active; 'I' for Inactive)
REMARK    1  A    between atoms: C_1  and  C_2
REMARK    2  A    between atoms: C_2  and  C_3
REMARK    3  A    between atoms: C_3  and  C_4
REMARK    4  A    between atoms: C_4  and  C_5
REMARK    5  A    between atoms: C_5  and  C_6
REMARK    6  A    between atoms: C_10  and  N_11
REMARK    7  A    between atoms: N_14  and  C_15
REMARK    8  A    between atoms: C_15  and  C_16
REMARK                            x       y       z     vdW  Elec       q    Type
REMARK                         _______ _______ _______ _____ _____    ______ ____
ROOT
ATOM      1  C   UNL     1       4.161   5.052  17.539  0.00  0.00    +0.000 A 
ATOM      2  C   UNL     1       4.653   4.013  16.740  0.00  0.00    +0.000 A 
ATOM      3  C   UNL     1       5.835   4.177  16.029  0.00  0.00    +0.000 A 
ATOM      4  C   UNL     1       6.535   5.382  16.101  0.00  0.00    +0.000 A 
ATOM      5  C   UNL     1       6.063   6.443  16.875  0.00  0.00    +0.000 A 
ATOM      6  C   UNL     1       4.865   6.272  17.586  0.00  0.00    +0.000 A 
ENDROOT
BRANCH   5   7
ATOM      7  N   UNL     1       6.749   7.673  17.008  0.00  0.00    +0.000 N 
ATOM      8  C   UNL     1       7.736   7.960  17.923  0.00  0.00    +0.000 C 
ATOM      9  O   UNL     1       8.241   7.194  18.729  0.00  0.00    +0.000 OA
ATOM     10  N   UNL     1       8.109   9.291  17.891  0.00  0.00    +0.000 N 
ATOM     11  H   UNL     1       6.433   8.435  16.430  0.00  0.00    +0.000 HD
ATOM     12  H   UNL     1       8.029   9.781  17.011  0.00  0.00    +0.000 HD
BRANCH  10  13
ATOM     13  C   UNL     1       9.129   9.761  18.821  0.00  0.00    +0.000 C 
BRANCH  13  14
ATOM     14  C   UNL     1       9.950  10.927  18.277  0.00  0.00    +0.000 C 
ATOM     15 CL   UNL     1      10.207  12.158  19.545  0.00  0.00    +0.000 Cl
ENDBRANCH  13  14
ENDBRANCH  10  13
ENDBRANCH   5   7
BRANCH   1  16
ATOM     16  C   UNL     1       2.904   4.853  18.352  0.00  0.00    +0.000 C 
BRANCH  16  17
ATOM     17  C   UNL     1       1.854   3.958  17.677  0.00  0.00    +0.000 C 
BRANCH  17  18
ATOM     18  C   UNL     1       1.197   2.955  18.630  0.00  0.00    +0.000 C 
BRANCH  18  20
ATOM     19  C   UNL     1       1.375   2.768  21.145  0.00  0.00    +0.000 C 
ATOM     20  C   UNL     1       0.885   3.611  19.979  0.00  0.00    +0.000 C 
ENDBRANCH  18  20
ENDBRANCH  17  18
ENDBRANCH  16  17
ENDBRANCH   1  16
TORSDOF 7
ENDMDL
MODEL 2
REMARK VINA RESULT:      -6.5      4.724      7.566
REMARK  Name = 
REMARK  8 active torsions:
REMARK  status: ('A' for Active; 'I' for Inactive)
REMARK    1  A    between atoms: C_1  and  C_2
REMARK    2  A    between atoms: C_2  and  C_3
REMARK    3  A    between atoms: C_3  and  C_4
REMARK    4  A    between atoms: C_4  and  C_5
REMARK    5  A    between atoms: C_5  and  C_6
REMARK    6  A    between atoms: C_10  and  N_11
REMARK    7  A    between atoms: N_14  and  C_15
REMARK    8  A    between atoms: C_15  and  C_16
REMARK                            x       y       z     vdW  Elec       q    Type
REMARK                         _______ _______ _______ _____ _____    ______ ____
ROOT
ATOM      1  C   UNL     1       6.475   4.720  15.273  0.00  0.00    +0.000 A 
ATOM      2  C   UNL     1       7.224   5.621  16.039  0.00  0.00    +0.000 A 
ATOM      3  C   UNL     1       7.047   5.685  17.415  0.00  0.00    +0.000 A 
ATOM      4  C   UNL     1       6.115   4.857  18.041  0.00  0.00    +0.000 A 
ATOM      5  C   UNL     1       5.341   3.960  17.305  0.00  0.00    +0.000 A 
ATOM      6  C   UNL     1       5.521   3.905  15.914  0.00  0.00    +0.000 A 
ENDROOT
BRANCH   5   7
ATOM      7  N   UNL     1       4.405   3.076  17.894  0.00  0.00    +0.000 N 
ATOM      8  C   UNL     1       3.055   3.297  18.036  0.00  0.00    +0.000 C 
ATOM      9  O   UNL     1       2.415   4.252  17.624  0.00  0.00    +0.000 OA
ATOM     10  N   UNL     1       2.438   2.306  18.777  0.00  0.00    +0.000 N 
ATOM     11  H   UNL     1       4.774   2.240  18.317  0.00  0.00    +0.000 HD
ATOM     12  H   UNL     1       2.832   1.377  18.741  0.00  0.00    +0.000 HD
BRANCH  10  13
ATOM     13  C   UNL     1       1.007   2.409  19.041  0.00  0.00    +0.000 C 
BRANCH  13  14
ATOM     14  C   UNL     1       0.679   3.259  20.265  0.00  0.00    +0.000 C 
ATOM     15 CL   UNL     1       1.530   2.636  21.707  0.00  0.00    +0.000 Cl
ENDBRANCH  13  14
ENDBRANCH  10  13
ENDBRANCH   5   7
BRANCH   1  16
ATOM     16  C   UNL     1       6.706   4.615  13.784  0.00  0.00    +0.000 C 
BRANCH  16  17
ATOM     17  C   UNL     1       5.998   3.425  13.120  0.00  0.00    +0.000 C 
BRANCH  17  18
ATOM     18  C   UNL     1       5.538   3.706  11.686  0.00  0.00    +0.000 C 
BRANCH  18  20
ATOM     19  C   UNL     1       3.432   3.793  10.291  0.00  0.00    +0.000 C 
ATOM     20  C   UNL     1       4.159   3.092  11.428  0.00  0.00    +0.000 C 
ENDBRANCH  18  20
ENDBRANCH  17  18
ENDBRANCH  16  17
ENDBRANCH   1  16
TORSDOF 7
ENDMDL
MODEL 3
REMARK VINA RESULT:      -6.5      4.767      7.605
REMARK  Name = 
REMARK  8 active torsions:
REMARK  status: ('A' for Active; 'I' for Inactive)
REMARK    1  A    between atoms: C_1  and  C_2
REMARK    2  A    between atoms: C_2  and  C_3
REMARK    3  A    between atoms: C_3  and  C_4
REMARK    4  A    between atoms: C_4  and  C_5
REMARK    5  A    between atoms: C_5  and  C_6
REMARK    6  A    between atoms: C_10  and  N_11
REMARK    7  A    between atoms: N_14  and  C_15
REMARK    8  A    between atoms: C_15  and  C_16
REMARK                            x       y       z     vdW  Elec       q    Type
REMARK                         _______ _______ _______ _____ _____    ______ ____
ROOT
ATOM      1  C   UNL     1       5.907   4.562  14.563  0.00  0.00    +0.000 A 
ATOM      2  C   UNL     1       5.796   5.947  14.735  0.00  0.00    +0.000 A 
ATOM      3  C   UNL     1       5.170   6.464  15.862  0.00  0.00    +0.000 A 
ATOM      4  C   UNL     1       4.641   5.606  16.825  0.00  0.00    +0.000 A 
ATOM      5  C   UNL     1       4.720   4.220  16.676  0.00  0.00    +0.000 A 
ATOM      6  C   UNL     1       5.348   3.705  15.532  0.00  0.00    +0.000 A 
ENDROOT
BRANCH   5   7
ATOM      7  N   UNL     1       4.228   3.306  17.638  0.00  0.00    +0.000 N 
ATOM      8  C   UNL     1       2.909   3.112  17.976  0.00  0.00    +0.000 C 
ATOM      9  O   UNL     1       1.930   3.635  17.465  0.00  0.00    +0.000 OA
ATOM     10  N   UNL     1       2.764   2.251  19.048  0.00  0.00    +0.000 N 
ATOM     11  H   UNL     1       4.913   2.806  18.181  0.00  0.00    +0.000 HD
ATOM     12  H   UNL     1       3.465   1.535  19.174  0.00  0.00    +0.000 HD
BRANCH  10  13
ATOM     13  C   UNL     1       1.424   1.962  19.546  0.00  0.00    +0.000 C 
BRANCH  13  14
ATOM     14  C   UNL     1       1.006   2.859  20.708  0.00  0.00    +0.000 C 
ATOM     15 CL   UNL     1       2.396   3.183  21.781  0.00  0.00    +0.000 Cl
ENDBRANCH  13  14
ENDBRANCH  10  13
ENDBRANCH   5   7
BRANCH   1  16
ATOM     16  C   UNL     1       6.634   4.003  13.363  0.00  0.00    +0.000 C 
BRANCH  16  17
ATOM     17  C   UNL     1       5.744   3.192  12.410  0.00  0.00    +0.000 C 
BRANCH  17  18
ATOM     18  C   UNL     1       4.608   4.008  11.786  0.00  0.00    +0.000 C 
BRANCH  18  20
ATOM     19  C   UNL     1       3.057   3.975   9.791  0.00  0.00    +0.000 C 
ATOM     20  C   UNL     1       3.768   3.141  10.844  0.00  0.00    +0.000 C 
ENDBRANCH  18  20
ENDBRANCH  17  18
ENDBRANCH  16  17
ENDBRANCH   1  16
TORSDOF 7
ENDMDL
MODEL 4
REMARK VINA RESULT:      -6.5      4.788      7.656
REMARK  Name = 
REMARK  8 active torsions:
REMARK  status: ('A' for Active; 'I' for Inactive)
REMARK    1  A    between atoms: C_1  and  C_2
REMARK    2  A    between atoms: C_2  and  C_3
REMARK    3  A    between atoms: C_3  and  C_4
REMARK    4  A    between atoms: C_4  and  C_5
REMARK    5  A    between atoms: C_5  and  C_6
REMARK    6  A    between atoms: C_10  and  N_11
REMARK    7  A    between atoms: N_14  and  C_15
REMARK    8  A    between atoms: C_15  and  C_16
REMARK                            x       y       z     vdW  Elec       q    Type
REMARK                         _______ _______ _______ _____ _____    ______ ____
ROOT
ATOM      1  C   UNL     1       6.269   4.166  14.592  0.00  0.00    +0.000 A 
ATOM      2  C   UNL     1       7.054   5.202  15.110  0.00  0.00    +0.000 A 
ATOM      3  C   UNL     1       6.993   5.519  16.461  0.00  0.00    +0.000 A 
ATOM      4  C   UNL     1       6.141   4.811  17.309  0.00  0.00    +0.000 A 
ATOM      5  C   UNL     1       5.333   3.783  16.821  0.00  0.00    +0.000 A 
ATOM      6  C   UNL     1       5.396   3.472  15.454  0.00  0.00    +0.000 A 
ENDROOT
BRANCH   5   7
ATOM      7  N   UNL     1       4.476   3.012  17.643  0.00  0.00    +0.000 N 
ATOM      8  C   UNL     1       3.120   3.185  17.793  0.00  0.00    +0.000 C 
ATOM      9  O   UNL     1       2.406   3.978  17.198  0.00  0.00    +0.000 OA
ATOM     10  N   UNL     1       2.592   2.365  18.773  0.00  0.00    +0.000 N 
ATOM     11  H   UNL     1       4.912   2.322  18.233  0.00  0.00    +0.000 HD
ATOM     12  H   UNL     1       3.045   1.477  18.937  0.00  0.00    +0.000 HD
BRANCH  10  13
ATOM     13  C   UNL     1       1.167   2.447  19.071  0.00  0.00    +0.000 C 
BRANCH  13  14
ATOM     14  C   UNL     1       0.853   3.326  20.278  0.00  0.00    +0.000 C 
ATOM     15 CL   UNL     1       1.731   2.746  21.720  0.00  0.00    +0.000 Cl
ENDBRANCH  13  14
ENDBRANCH  10  13
ENDBRANCH   5   7
BRANCH   1  16
ATOM     16  C   UNL     1       6.376   3.789  13.133  0.00  0.00    +0.000 C 
BRANCH  16  17
ATOM     17  C   UNL     1       5.023   3.613  12.429  0.00  0.00    +0.000 C 
BRANCH  17  18
ATOM     18  C   UNL     1       5.029   2.525  11.350  0.00  0.00    +0.000 C 
BRANCH  18  20
ATOM     19  C   UNL     1       6.156   0.267  11.199  0.00  0.00    +0.000 C 
ATOM     20  C   UNL     1       6.359   1.766  11.350  0.00  0.00    +0.000 C 
ENDBRANCH  18  20
ENDBRANCH  17  18
ENDBRANCH  16  17
ENDBRANCH   1  16
TORSDOF 7
ENDMDL
MODEL 5
REMARK VINA RESULT:      -6.4      4.468      6.903
REMARK  Name = 
REMARK  8 active torsions:
REMARK  status: ('A' for Active; 'I' for Inactive)
REMARK    1  A    between atoms: C_1  and  C_2
REMARK    2  A    between atoms: C_2  and  C_3
REMARK    3  A    between atoms: C_3  and  C_4
REMARK    4  A    between atoms: C_4  and  C_5
REMARK    5  A    between atoms: C_5  and  C_6
REMARK    6  A    between atoms: C_10  and  N_11
REMARK    7  A    between atoms: N_14  and  C_15
REMARK    8  A    between atoms: C_15  and  C_16
REMARK                            x       y       z     vdW  Elec       q    Type
REMARK                         _______ _______ _______ _____ _____    ______ ____
ROOT
ATOM      1  C   UNL     1       5.818   4.698  15.180  0.00  0.00    +0.000 A 
ATOM      2  C   UNL     1       7.148   4.424  15.520  0.00  0.00    +0.000 A 
ATOM      3  C   UNL     1       7.594   4.624  16.820  0.00  0.00    +0.000 A 
ATOM      4  C   UNL     1       6.720   5.109  17.794  0.00  0.00    +0.000 A 
ATOM      5  C   UNL     1       5.392   5.408  17.484  0.00  0.00    +0.000 A 
ATOM      6  C   UNL     1       4.951   5.208  16.167  0.00  0.00    +0.000 A 
ENDROOT
BRANCH   5   7
ATOM      7  N   UNL     1       4.457   5.871  18.440  0.00  0.00    +0.000 N 
ATOM      8  C   UNL     1       3.833   5.111  19.403  0.00  0.00    +0.000 C 
ATOM      9  O   UNL     1       4.024   3.930  19.650  0.00  0.00    +0.000 OA
ATOM     10  N   UNL     1       2.870   5.826  20.091  0.00  0.00    +0.000 N 
ATOM     11  H   UNL     1       4.161   6.830  18.359  0.00  0.00    +0.000 HD
ATOM     12  H   UNL     1       3.006   6.822  20.193  0.00  0.00    +0.000 HD
BRANCH  10  13
ATOM     13  C   UNL     1       2.099   5.152  21.130  0.00  0.00    +0.000 C 
BRANCH  13  14
ATOM     14  C   UNL     1       1.061   4.181  20.576  0.00  0.00    +0.000 C 
ATOM     15 CL   UNL     1       1.195   2.594  21.383  0.00  0.00    +0.000 Cl
ENDBRANCH  13  14
ENDBRANCH  10  13
ENDBRANCH   5   7
BRANCH   1  16
ATOM     16  C   UNL     1       5.322   4.430  13.778  0.00  0.00    +0.000 C 
BRANCH  16  17
ATOM     17  C   UNL     1       6.224   3.493  12.962  0.00  0.00    +0.000 C 
BRANCH  17  18
ATOM     18  C   UNL     1       5.553   2.938  11.701  0.00  0.00    +0.000 C 
BRANCH  18  20
ATOM     19  C   UNL     1       3.584   3.671  10.296  0.00  0.00    +0.000 C 
ATOM     20  C   UNL     1       4.060   3.279  11.685  0.00  0.00    +0.000 C 
ENDBRANCH  18  20
ENDBRANCH  17  18
ENDBRANCH  16  17
ENDBRANCH   1  16
TORSDOF 7
ENDMDL
MODEL 6
REMARK VINA RESULT:      -6.3      4.578      7.317
REMARK  Name = 
REMARK  8 active torsions:
REMARK  status: ('A' for Active; 'I' for Inactive)
REMARK    1  A    between atoms: C_1  and  C_2
REMARK    2  A    between atoms: C_2  and  C_3
REMARK    3  A    between atoms: C_3  and  C_4
REMARK    4  A    between atoms: C_4  and  C_5
REMARK    5  A    between atoms: C_5  and  C_6
REMARK    6  A    between atoms: C_10  and  N_11
REMARK    7  A    between atoms: N_14  and  C_15
REMARK    8  A    between atoms: C_15  and  C_16
REMARK                            x       y       z     vdW  Elec       q    Type
REMARK                         _______ _______ _______ _____ _____    ______ ____
ROOT
ATOM      1  C   UNL     1       5.711   4.479  15.515  0.00  0.00    +0.000 A 
ATOM      2  C   UNL     1       7.077   4.460  15.816  0.00  0.00    +0.000 A 
ATOM      3  C   UNL     1       7.508   4.636  17.125  0.00  0.00    +0.000 A 
ATOM      4  C   UNL     1       6.580   4.843  18.146  0.00  0.00    +0.000 A 
ATOM      5  C   UNL     1       5.211   4.883  17.877  0.00  0.00    +0.000 A 
ATOM      6  C   UNL     1       4.784   4.710  16.551  0.00  0.00    +0.000 A 
ENDROOT
BRANCH   5   7
ATOM      7  N   UNL     1       4.227   5.057  18.879  0.00  0.00    +0.000 N 
ATOM      8  C   UNL     1       3.859   4.130  19.827  0.00  0.00    +0.000 C 
ATOM      9  O   UNL     1       4.355   3.031  20.018  0.00  0.00    +0.000 OA
ATOM     10  N   UNL     1       2.772   4.549  20.573  0.00  0.00    +0.000 N 
ATOM     11  H   UNL     1       3.692   5.910  18.847  0.00  0.00    +0.000 HD
ATOM     12  H   UNL     1       2.652   5.542  20.713  0.00  0.00    +0.000 HD
BRANCH  10  13
ATOM     13  C   UNL     1       2.242   3.665  21.605  0.00  0.00    +0.000 C 
BRANCH  13  14
ATOM     14  C   UNL     1       1.237   2.648  21.071  0.00  0.00    +0.000 C 
ATOM     15 CL   UNL     1       0.596   3.174  19.489  0.00  0.00    +0.000 Cl
ENDBRANCH  13  14
ENDBRANCH  10  13
ENDBRANCH   5   7
BRANCH   1  16
ATOM     16  C   UNL     1       5.243   4.234  14.099  0.00  0.00    +0.000 C 
BRANCH  16  17
ATOM     17  C   UNL     1       6.347   3.754  13.147  0.00  0.00    +0.000 C 
BRANCH  17  18
ATOM     18  C   UNL     1       5.816   3.029  11.906  0.00  0.00    +0.000 C 
BRANCH  18  20
ATOM     19  C   UNL     1       6.284   0.688  11.076  0.00  0.00    +0.000 C 
ATOM     20  C   UNL     1       6.867   2.065  11.348  0.00  0.00    +0.000 C 
ENDBRANCH  18  20
ENDBRANCH  17  18
ENDBRANCH  16  17
ENDBRANCH   1  16
TORSDOF 7
ENDMDL
MODEL 7
REMARK VINA RESULT:      -6.3      3.907      7.891
REMARK  Name = 
REMARK  8 active torsions:
REMARK  status: ('A' for Active; 'I' for Inactive)
REMARK    1  A    between atoms: C_1  and  C_2
REMARK    2  A    between atoms: C_2  and  C_3
REMARK    3  A    between atoms: C_3  and  C_4
REMARK    4  A    between atoms: C_4  and  C_5
REMARK    5  A    between atoms: C_5  and  C_6
REMARK    6  A    between atoms: C_10  and  N_11
REMARK    7  A    between atoms: N_14  and  C_15
REMARK    8  A    between atoms: C_15  and  C_16
REMARK                            x       y       z     vdW  Elec       q    Type
REMARK                         _______ _______ _______ _____ _____    ______ ____
ROOT
ATOM      1  C   UNL     1       7.422   6.331  17.926  0.00  0.00    +0.000 A 
ATOM      2  C   UNL     1       7.365   6.352  16.527  0.00  0.00    +0.000 A 
ATOM      3  C   UNL     1       6.575   5.436  15.845  0.00  0.00    +0.000 A 
ATOM      4  C   UNL     1       5.840   4.482  16.550  0.00  0.00    +0.000 A 
ATOM      5  C   UNL     1       5.888   4.423  17.943  0.00  0.00    +0.000 A 
ATOM      6  C   UNL     1       6.693   5.349  18.625  0.00  0.00    +0.000 A 
ENDROOT
BRANCH   5   7
ATOM      7  N   UNL     1       5.138   3.498  18.707  0.00  0.00    +0.000 N 
ATOM      8  C   UNL     1       3.788   3.257  18.599  0.00  0.00    +0.000 C 
ATOM      9  O   UNL     1       3.014   3.742  17.787  0.00  0.00    +0.000 OA
ATOM     10  N   UNL     1       3.329   2.399  19.580  0.00  0.00    +0.000 N 
ATOM     11  H   UNL     1       5.623   3.026  19.453  0.00  0.00    +0.000 HD
ATOM     12  H   UNL     1       3.972   1.709  19.942  0.00  0.00    +0.000 HD
BRANCH  10  13
ATOM     13  C   UNL     1       1.910   2.064  19.618  0.00  0.00    +0.000 C 
BRANCH  13  14
ATOM     14  C   UNL     1       1.117   2.909  20.612  0.00  0.00    +0.000 C 
ATOM     15 CL   UNL     1       2.201   3.596  21.854  0.00  0.00    +0.000 Cl
ENDBRANCH  13  14
ENDBRANCH  10  13
ENDBRANCH   5   7
BRANCH   1  16
ATOM     16  C   UNL     1       8.241   7.361  18.667  0.00  0.00    +0.000 C 
BRANCH  16  17
ATOM     17  C   UNL     1       8.230   8.755  18.022  0.00  0.00    +0.000 C 
BRANCH  17  18
ATOM     18  C   UNL     1       8.957   9.820  18.849  0.00  0.00    +0.000 C 
BRANCH  18  20
ATOM     19  C   UNL     1      10.515  11.517  17.808  0.00  0.00    +0.000 C 
ATOM     20  C   UNL     1       9.067  11.133  18.068  0.00  0.00    +0.000 C 
ENDBRANCH  18  20
ENDBRANCH  17  18
ENDBRANCH  16  17
ENDBRANCH   1  16
TORSDOF 7
ENDMDL
MODEL 8
REMARK VINA RESULT:      -6.3      4.516      7.322
REMARK  Name = 
REMARK  8 active torsions:
REMARK  status: ('A' for Active; 'I' for Inactive)
REMARK    1  A    between atoms: C_1  and  C_2
REMARK    2  A    between atoms: C_2  and  C_3
REMARK    3  A    between atoms: C_3  and  C_4
REMARK    4  A    between atoms: C_4  and  C_5
REMARK    5  A    between atoms: C_5  and  C_6
REMARK    6  A    between atoms: C_10  and  N_11
REMARK    7  A    between atoms: N_14  and  C_15
REMARK    8  A    between atoms: C_15  and  C_16
REMARK                            x       y       z     vdW  Elec       q    Type
REMARK                         _______ _______ _______ _____ _____    ______ ____
ROOT
ATOM      1  C   UNL     1       6.688   4.942  15.953  0.00  0.00    +0.000 A 
ATOM      2  C   UNL     1       7.257   6.078  16.540  0.00  0.00    +0.000 A 
ATOM      3  C   UNL     1       7.018   6.370  17.877  0.00  0.00    +0.000 A 
ATOM      4  C   UNL     1       6.203   5.534  18.641  0.00  0.00    +0.000 A 
ATOM      5  C   UNL     1       5.608   4.402  18.083  0.00  0.00    +0.000 A 
ATOM      6  C   UNL     1       5.849   4.118  16.730  0.00  0.00    +0.000 A 
ENDROOT
BRANCH   5   7
ATOM      7  N   UNL     1       4.800   3.506  18.821  0.00  0.00    +0.000 N 
ATOM      8  C   UNL     1       3.878   3.845  19.784  0.00  0.00    +0.000 C 
ATOM      9  O   UNL     1       3.544   4.970  20.123  0.00  0.00    +0.000 OA
ATOM     10  N   UNL     1       3.353   2.735  20.421  0.00  0.00    +0.000 N 
ATOM     11  H   UNL     1       4.970   2.522  18.684  0.00  0.00    +0.000 HD
ATOM     12  H   UNL     1       3.292   1.876  19.894  0.00  0.00    +0.000 HD
BRANCH  10  13
ATOM     13  C   UNL     1       2.379   2.929  21.488  0.00  0.00    +0.000 C 
BRANCH  13  14
ATOM     14  C   UNL     1       0.936   2.734  21.031  0.00  0.00    +0.000 C 
ATOM     15 CL   UNL     1       0.846   2.681  19.248  0.00  0.00    +0.000 Cl
ENDBRANCH  13  14
ENDBRANCH  10  13
ENDBRANCH   5   7
BRANCH   1  16
ATOM     16  C   UNL     1       6.992   4.599  14.514  0.00  0.00    +0.000 C 
BRANCH  16  17
ATOM     17  C   UNL     1       5.818   3.958  13.760  0.00  0.00    +0.000 C 
BRANCH  17  18
ATOM     18  C   UNL     1       6.148   3.584  12.312  0.00  0.00    +0.000 C 
BRANCH  18  20
ATOM     19  C   UNL     1       3.989   3.217  11.049  0.00  0.00    +0.000 C 
ATOM     20  C   UNL     1       5.150   2.555  11.774  0.00  0.00    +0.000 C 
ENDBRANCH  18  20
ENDBRANCH  17  18
ENDBRANCH  16  17
ENDBRANCH   1  16
TORSDOF 7
ENDMDL
MODEL 9
REMARK VINA RESULT:      -6.3      1.053      1.308
REMARK  Name = 
REMARK  8 active torsions:
REMARK  status: ('A' for Active; 'I' for Inactive)
REMARK    1  A    between atoms: C_1  and  C_2
REMARK    2  A    between atoms: C_2  and  C_3
REMARK    3  A    between atoms: C_3  and  C_4
REMARK    4  A    between atoms: C_4  and  C_5
REMARK    5  A    between atoms: C_5  and  C_6
REMARK    6  A    between atoms: C_10  and  N_11
REMARK    7  A    between atoms: N_14  and  C_15
REMARK    8  A    between atoms: C_15  and  C_16
REMARK                            x       y       z     vdW  Elec       q    Type
REMARK                         _______ _______ _______ _____ _____    ______ ____
ROOT
ATOM      1  C   UNL     1       3.254   4.923  17.551  0.00  0.00    +0.000 A 
ATOM      2  C   UNL     1       3.678   3.697  17.028  0.00  0.00    +0.000 A 
ATOM      3  C   UNL     1       4.923   3.588  16.420  0.00  0.00    +0.000 A 
ATOM      4  C   UNL     1       5.754   4.704  16.321  0.00  0.00    +0.000 A 
ATOM      5  C   UNL     1       5.354   5.945  16.819  0.00  0.00    +0.000 A 
ATOM      6  C   UNL     1       4.093   6.048  17.426  0.00  0.00    +0.000 A 
ENDROOT
BRANCH   5   7
ATOM      7  N   UNL     1       6.170   7.100  16.773  0.00  0.00    +0.000 N 
ATOM      8  C   UNL     1       7.188   7.413  17.645  0.00  0.00    +0.000 C 
ATOM      9  O   UNL     1       7.611   6.727  18.562  0.00  0.00    +0.000 OA
ATOM     10  N   UNL     1       7.702   8.676  17.418  0.00  0.00    +0.000 N 
ATOM     11  H   UNL     1       5.935   7.796  16.084  0.00  0.00    +0.000 HD
ATOM     12  H   UNL     1       7.671   9.034  16.474  0.00  0.00    +0.000 HD
BRANCH  10  13
ATOM     13  C   UNL     1       8.772   9.167  18.278  0.00  0.00    +0.000 C 
BRANCH  13  14
ATOM     14  C   UNL     1       8.836  10.690  18.351  0.00  0.00    +0.000 C 
ATOM     15 CL   UNL     1      10.475  11.269  17.942  0.00  0.00    +0.000 Cl
ENDBRANCH  13  14
ENDBRANCH  10  13
ENDBRANCH   5   7
BRANCH   1  16
ATOM     16  C   UNL     1       1.922   5.026  18.258  0.00  0.00    +0.000 C 
BRANCH  16  17
ATOM     17  C   UNL     1       2.013   4.922  19.787  0.00  0.00    +0.000 C 
BRANCH  17  18
ATOM     18  C   UNL     1       1.001   3.948  20.398  0.00  0.00    +0.000 C 
BRANCH  18  20
ATOM     19  C   UNL     1       3.169   2.681  20.691  0.00  0.00    +0.000 C 
ATOM     20  C   UNL     1       1.717   2.806  21.126  0.00  0.00    +0.000 C 
ENDBRANCH  18  20
ENDBRANCH  17  18
ENDBRANCH  16  17
ENDBRANCH   1  16
TORSDOF 7
ENDMDL
