MODEL 1
REMARK VINA RESULT:      -7.2      0.000      0.000
REMARK  Name = 
REMARK  4 active torsions:
REMARK  status: ('A' for Active; 'I' for Inactive)
REMARK    1  A    between atoms: C_1  and  O_2
REMARK    2  A    between atoms: O_2  and  C_3
REMARK    3  A    between atoms: C_6  and  C_7
REMARK    4  A    between atoms: N_11  and  C_12
REMARK                            x       y       z     vdW  Elec       q    Type
REMARK                         _______ _______ _______ _____ _____    ______ ____
ROOT
ATOM      1  C   UNL     1       4.785   4.609  16.990  0.00  0.00    +0.000 A 
ATOM      2  N   UNL     1       4.704   3.978  15.853  0.00  0.00    +0.000 NA
ATOM      3  C   UNL     1       5.703   4.322  14.946  0.00  0.00    +0.000 A 
ATOM      4  C   UNL     1       5.875   3.871  13.671  0.00  0.00    +0.000 A 
ATOM      5  N   UNL     1       6.985   4.532  13.222  0.00  0.00    +0.000 N 
ATOM      6  C   UNL     1       7.584   4.413  11.913  0.00  0.00    +0.000 C 
ATOM      7  N   UNL     1       7.536   5.372  14.130  0.00  0.00    +0.000 NA
ATOM      8  C   UNL     1       6.731   5.238  15.198  0.00  0.00    +0.000 A 
ATOM      9  C   UNL     1       6.814   5.900  16.480  0.00  0.00    +0.000 A 
ATOM     10  O   UNL     1       7.674   6.701  16.837  0.00  0.00    +0.000 OA
ATOM     11  N   UNL     1       5.780   5.527  17.322  0.00  0.00    +0.000 N 
ATOM     12  H   UNL     1       5.827   5.940  18.240  0.00  0.00    +0.000 HD
ENDROOT
BRANCH   1  16
ATOM     13  C   UNL     1       1.859   3.730  20.005  0.00  0.00    +0.000 A 
ATOM     14  C   UNL     1       3.207   3.429  20.207  0.00  0.00    +0.000 A 
ATOM     15  C   UNL     1       4.157   3.742  19.232  0.00  0.00    +0.000 A 
ATOM     16  C   UNL     1       3.760   4.353  18.037  0.00  0.00    +0.000 A 
ATOM     17  C   UNL     1       2.406   4.643  17.826  0.00  0.00    +0.000 A 
ATOM     18  C   UNL     1       1.460   4.332  18.811  0.00  0.00    +0.000 A 
BRANCH  13  20
ATOM     19  C   UNL     1       1.575   2.444  21.970  0.00  0.00    +0.000 C 
ATOM     20  O   UNL     1       1.023   3.343  21.015  0.00  0.00    +0.000 OA
ENDBRANCH  13  20
ENDBRANCH   1  16
TORSDOF 2
ENDMDL
MODEL 2
REMARK VINA RESULT:      -7.1      0.905      1.254
REMARK  Name = 
REMARK  4 active torsions:
REMARK  status: ('A' for Active; 'I' for Inactive)
REMARK    1  A    between atoms: C_1  and  O_2
REMARK    2  A    between atoms: O_2  and  C_3
REMARK    3  A    between atoms: C_6  and  C_7
REMARK    4  A    between atoms: N_11  and  C_12
REMARK                            x       y       z     vdW  Elec       q    Type
REMARK                         _______ _______ _______ _____ _____    ______ ____
ROOT
ATOM      1  C   UNL     1       5.226   4.490  17.412  0.00  0.00    +0.000 A 
ATOM      2  N   UNL     1       5.088   3.805  16.313  0.00  0.00    +0.000 NA
ATOM      3  C   UNL     1       5.913   4.233  15.276  0.00  0.00    +0.000 A 
ATOM      4  C   UNL     1       5.983   3.753  14.001  0.00  0.00    +0.000 A 
ATOM      5  N   UNL     1       6.933   4.528  13.396  0.00  0.00    +0.000 N 
ATOM      6  C   UNL     1       7.376   4.429  12.025  0.00  0.00    +0.000 C 
ATOM      7  N   UNL     1       7.478   5.469  14.203  0.00  0.00    +0.000 NA
ATOM      8  C   UNL     1       6.835   5.281  15.369  0.00  0.00    +0.000 A 
ATOM      9  C   UNL     1       6.989   6.003  16.612  0.00  0.00    +0.000 A 
ATOM     10  O   UNL     1       7.775   6.921  16.834  0.00  0.00    +0.000 OA
ATOM     11  N   UNL     1       6.125   5.539  17.589  0.00  0.00    +0.000 N 
ATOM     12  H   UNL     1       6.231   5.995  18.482  0.00  0.00    +0.000 HD
ENDROOT
BRANCH   1  16
ATOM     13  C   UNL     1       2.853   3.615  20.881  0.00  0.00    +0.000 A 
ATOM     14  C   UNL     1       2.841   4.888  20.308  0.00  0.00    +0.000 A 
ATOM     15  C   UNL     1       3.595   5.158  19.165  0.00  0.00    +0.000 A 
ATOM     16  C   UNL     1       4.380   4.152  18.589  0.00  0.00    +0.000 A 
ATOM     17  C   UNL     1       4.405   2.878  19.170  0.00  0.00    +0.000 A 
ATOM     18  C   UNL     1       3.642   2.613  20.314  0.00  0.00    +0.000 A 
BRANCH  13  20
ATOM     19  C   UNL     1       1.180   2.402  22.031  0.00  0.00    +0.000 C 
ATOM     20  O   UNL     1       2.104   3.485  22.017  0.00  0.00    +0.000 OA
ENDBRANCH  13  20
ENDBRANCH   1  16
TORSDOF 2
ENDMDL
MODEL 3
REMARK VINA RESULT:      -6.9      4.306      7.341
REMARK  Name = 
REMARK  4 active torsions:
REMARK  status: ('A' for Active; 'I' for Inactive)
REMARK    1  A    between atoms: C_1  and  O_2
REMARK    2  A    between atoms: O_2  and  C_3
REMARK    3  A    between atoms: C_6  and  C_7
REMARK    4  A    between atoms: N_11  and  C_12
REMARK                            x       y       z     vdW  Elec       q    Type
REMARK                         _______ _______ _______ _____ _____    ______ ____
ROOT
ATOM      1  C   UNL     1       2.904   7.112  18.314  0.00  0.00    +0.000 A 
ATOM      2  N   UNL     1       2.480   6.833  19.514  0.00  0.00    +0.000 NA
ATOM      3  C   UNL     1       1.738   7.854  20.101  0.00  0.00    +0.000 A 
ATOM      4  C   UNL     1       1.190   7.888  21.349  0.00  0.00    +0.000 A 
ATOM      5  N   UNL     1       0.589   9.114  21.425  0.00  0.00    +0.000 N 
ATOM      6  C   UNL     1      -0.131   9.649  22.557  0.00  0.00    +0.000 C 
ATOM      7  N   UNL     1       0.714   9.864  20.304  0.00  0.00    +0.000 NA
ATOM      8  C   UNL     1       1.433   9.074  19.487  0.00  0.00    +0.000 A 
ATOM      9  C   UNL     1       1.891   9.344  18.143  0.00  0.00    +0.000 A 
ATOM     10  O   UNL     1       1.673  10.358  17.484  0.00  0.00    +0.000 OA
ATOM     11  N   UNL     1       2.637   8.296  17.631  0.00  0.00    +0.000 N 
ATOM     12  H   UNL     1       2.941   8.434  16.681  0.00  0.00    +0.000 HD
ENDROOT
BRANCH   1  16
ATOM     13  C   UNL     1       5.254   4.288  16.094  0.00  0.00    +0.000 A 
ATOM     14  C   UNL     1       5.480   5.660  15.971  0.00  0.00    +0.000 A 
ATOM     15  C   UNL     1       4.729   6.571  16.717  0.00  0.00    +0.000 A 
ATOM     16  C   UNL     1       3.734   6.113  17.587  0.00  0.00    +0.000 A 
ATOM     17  C   UNL     1       3.495   4.738  17.701  0.00  0.00    +0.000 A 
ATOM     18  C   UNL     1       4.256   3.829  16.955  0.00  0.00    +0.000 A 
BRANCH  13  20
ATOM     19  C   UNL     1       6.311   4.024  13.995  0.00  0.00    +0.000 C 
ATOM     20  O   UNL     1       6.027   3.501  15.287  0.00  0.00    +0.000 OA
ENDBRANCH  13  20
ENDBRANCH   1  16
TORSDOF 2
ENDMDL
MODEL 4
REMARK VINA RESULT:      -6.8      4.767      7.617
REMARK  Name = 
REMARK  4 active torsions:
REMARK  status: ('A' for Active; 'I' for Inactive)
REMARK    1  A    between atoms: C_1  and  O_2
REMARK    2  A    between atoms: O_2  and  C_3
REMARK    3  A    between atoms: C_6  and  C_7
REMARK    4  A    between atoms: N_11  and  C_12
REMARK                            x       y       z     vdW  Elec       q    Type
REMARK                         _______ _______ _______ _____ _____    ______ ____
ROOT
ATOM      1  C   UNL     1       8.123   8.239  18.185  0.00  0.00    +0.000 A 
ATOM      2  N   UNL     1       7.397   7.987  17.133  0.00  0.00    +0.000 NA
ATOM      3  C   UNL     1       7.007   6.655  17.024  0.00  0.00    +0.000 A 
ATOM      4  C   UNL     1       6.281   6.068  16.029  0.00  0.00    +0.000 A 
ATOM      5  N   UNL     1       6.197   4.754  16.398  0.00  0.00    +0.000 N 
ATOM      6  C   UNL     1       5.532   3.699  15.670  0.00  0.00    +0.000 C 
ATOM      7  N   UNL     1       6.819   4.464  17.566  0.00  0.00    +0.000 NA
ATOM      8  C   UNL     1       7.323   5.652  17.946  0.00  0.00    +0.000 A 
ATOM      9  C   UNL     1       8.103   5.966  19.121  0.00  0.00    +0.000 A 
ATOM     10  O   UNL     1       8.426   5.189  20.016  0.00  0.00    +0.000 OA
ATOM     11  N   UNL     1       8.472   7.301  19.154  0.00  0.00    +0.000 N 
ATOM     12  H   UNL     1       8.986   7.565  19.979  0.00  0.00    +0.000 HD
ENDROOT
BRANCH   1  16
ATOM     13  C   UNL     1       9.512  12.229  18.943  0.00  0.00    +0.000 A 
ATOM     14  C   UNL     1       9.823  11.185  19.816  0.00  0.00    +0.000 A 
ATOM     15  C   UNL     1       9.389   9.885  19.549  0.00  0.00    +0.000 A 
ATOM     16  C   UNL     1       8.628   9.621  18.405  0.00  0.00    +0.000 A 
ATOM     17  C   UNL     1       8.302  10.669  17.535  0.00  0.00    +0.000 A 
ATOM     18  C   UNL     1       8.745  11.969  17.805  0.00  0.00    +0.000 A 
BRANCH  13  20
ATOM     19  C   UNL     1      11.307  13.515  19.789  0.00  0.00    +0.000 C 
ATOM     20  O   UNL     1       9.961  13.461  19.330  0.00  0.00    +0.000 OA
ENDBRANCH  13  20
ENDBRANCH   1  16
TORSDOF 2
ENDMDL
MODEL 5
REMARK VINA RESULT:      -6.8      1.069      1.074
REMARK  Name = 
REMARK  4 active torsions:
REMARK  status: ('A' for Active; 'I' for Inactive)
REMARK    1  A    between atoms: C_1  and  O_2
REMARK    2  A    between atoms: O_2  and  C_3
REMARK    3  A    between atoms: C_6  and  C_7
REMARK    4  A    between atoms: N_11  and  C_12
REMARK                            x       y       z     vdW  Elec       q    Type
REMARK                         _______ _______ _______ _____ _____    ______ ____
ROOT
ATOM      1  C   UNL     1       4.747   4.037  17.265  0.00  0.00    +0.000 A 
ATOM      2  N   UNL     1       4.529   4.056  15.980  0.00  0.00    +0.000 NA
ATOM      3  C   UNL     1       5.651   4.385  15.224  0.00  0.00    +0.000 A 
ATOM      4  C   UNL     1       5.744   4.524  13.871  0.00  0.00    +0.000 A 
ATOM      5  N   UNL     1       7.049   4.870  13.653  0.00  0.00    +0.000 N 
ATOM      6  C   UNL     1       7.663   5.142  12.374  0.00  0.00    +0.000 C 
ATOM      7  N   UNL     1       7.797   4.956  14.779  0.00  0.00    +0.000 NA
ATOM      8  C   UNL     1       6.918   4.657  15.752  0.00  0.00    +0.000 A 
ATOM      9  C   UNL     1       7.138   4.598  17.179  0.00  0.00    +0.000 A 
ATOM     10  O   UNL     1       8.200   4.789  17.766  0.00  0.00    +0.000 OA
ATOM     11  N   UNL     1       5.978   4.286  17.868  0.00  0.00    +0.000 N 
ATOM     12  H   UNL     1       6.101   4.199  18.864  0.00  0.00    +0.000 HD
ENDROOT
BRANCH   1  16
ATOM     13  C   UNL     1       1.593   3.088  20.018  0.00  0.00    +0.000 A 
ATOM     14  C   UNL     1       2.612   3.972  20.375  0.00  0.00    +0.000 A 
ATOM     15  C   UNL     1       3.620   4.296  19.464  0.00  0.00    +0.000 A 
ATOM     16  C   UNL     1       3.621   3.725  18.187  0.00  0.00    +0.000 A 
ATOM     17  C   UNL     1       2.608   2.826  17.832  0.00  0.00    +0.000 A 
ATOM     18  C   UNL     1       1.597   2.510  18.747  0.00  0.00    +0.000 A 
BRANCH  13  20
ATOM     19  C   UNL     1       1.230   2.419  22.257  0.00  0.00    +0.000 C 
ATOM     20  O   UNL     1       0.686   2.822  21.006  0.00  0.00    +0.000 OA
ENDBRANCH  13  20
ENDBRANCH   1  16
TORSDOF 2
ENDMDL
MODEL 6
REMARK VINA RESULT:      -6.7      5.471      7.667
REMARK  Name = 
REMARK  4 active torsions:
REMARK  status: ('A' for Active; 'I' for Inactive)
REMARK    1  A    between atoms: C_1  and  O_2
REMARK    2  A    between atoms: O_2  and  C_3
REMARK    3  A    between atoms: C_6  and  C_7
REMARK    4  A    between atoms: N_11  and  C_12
REMARK                            x       y       z     vdW  Elec       q    Type
REMARK                         _______ _______ _______ _____ _____    ______ ____
ROOT
ATOM      1  C   UNL     1       1.716   7.906  20.255  0.00  0.00    +0.000 A 
ATOM      2  N   UNL     1       1.460   8.726  19.275  0.00  0.00    +0.000 NA
ATOM      3  C   UNL     1       0.958   9.957  19.687  0.00  0.00    +0.000 A 
ATOM      4  C   UNL     1       0.562  11.008  18.913  0.00  0.00    +0.000 A 
ATOM      5  N   UNL     1       0.141  11.952  19.808  0.00  0.00    +0.000 N 
ATOM      6  C   UNL     1      -0.388  13.258  19.493  0.00  0.00    +0.000 C 
ATOM      7  N   UNL     1       0.246  11.573  21.105  0.00  0.00    +0.000 NA
ATOM      8  C   UNL     1       0.752  10.331  21.020  0.00  0.00    +0.000 A 
ATOM      9  C   UNL     1       1.073   9.412  22.088  0.00  0.00    +0.000 A 
ATOM     10  O   UNL     1       0.964   9.623  23.294  0.00  0.00    +0.000 OA
ATOM     11  N   UNL     1       1.547   8.204  21.606  0.00  0.00    +0.000 N 
ATOM     12  H   UNL     1       1.818   7.552  22.325  0.00  0.00    +0.000 HD
ENDROOT
BRANCH   1  16
ATOM     13  C   UNL     1       3.252   3.970  19.501  0.00  0.00    +0.000 A 
ATOM     14  C   UNL     1       2.290   4.186  20.490  0.00  0.00    +0.000 A 
ATOM     15  C   UNL     1       1.776   5.465  20.711  0.00  0.00    +0.000 A 
ATOM     16  C   UNL     1       2.232   6.545  19.947  0.00  0.00    +0.000 A 
ATOM     17  C   UNL     1       3.207   6.334  18.966  0.00  0.00    +0.000 A 
ATOM     18  C   UNL     1       3.714   5.048  18.744  0.00  0.00    +0.000 A 
BRANCH  13  20
ATOM     19  C   UNL     1       3.165   1.915  18.333  0.00  0.00    +0.000 C 
ATOM     20  O   UNL     1       3.703   2.683  19.404  0.00  0.00    +0.000 OA
ENDBRANCH  13  20
ENDBRANCH   1  16
TORSDOF 2
ENDMDL
MODEL 7
REMARK VINA RESULT:      -6.7      5.611      7.843
REMARK  Name = 
REMARK  4 active torsions:
REMARK  status: ('A' for Active; 'I' for Inactive)
REMARK    1  A    between atoms: C_1  and  O_2
REMARK    2  A    between atoms: O_2  and  C_3
REMARK    3  A    between atoms: C_6  and  C_7
REMARK    4  A    between atoms: N_11  and  C_12
REMARK                            x       y       z     vdW  Elec       q    Type
REMARK                         _______ _______ _______ _____ _____    ______ ____
ROOT
ATOM      1  C   UNL     1       1.642   8.062  20.268  0.00  0.00    +0.000 A 
ATOM      2  N   UNL     1       1.400   8.923  19.321  0.00  0.00    +0.000 NA
ATOM      3  C   UNL     1       0.902  10.139  19.780  0.00  0.00    +0.000 A 
ATOM      4  C   UNL     1       0.519  11.224  19.047  0.00  0.00    +0.000 A 
ATOM      5  N   UNL     1       0.095  12.132  19.978  0.00  0.00    +0.000 N 
ATOM      6  C   UNL     1      -0.423  13.454  19.713  0.00  0.00    +0.000 C 
ATOM      7  N   UNL     1       0.187  11.699  21.258  0.00  0.00    +0.000 NA
ATOM      8  C   UNL     1       0.686  10.458  21.125  0.00  0.00    +0.000 A 
ATOM      9  C   UNL     1       0.993   9.493  22.157  0.00  0.00    +0.000 A 
ATOM     10  O   UNL     1       0.875   9.654  23.369  0.00  0.00    +0.000 OA
ATOM     11  N   UNL     1       1.464   8.303  21.628  0.00  0.00    +0.000 N 
ATOM     12  H   UNL     1       1.724   7.620  22.321  0.00  0.00    +0.000 HD
ENDROOT
BRANCH   1  16
ATOM     13  C   UNL     1       3.045   4.175  19.103  0.00  0.00    +0.000 A 
ATOM     14  C   UNL     1       3.339   5.303  18.335  0.00  0.00    +0.000 A 
ATOM     15  C   UNL     1       2.902   6.567  18.734  0.00  0.00    +0.000 A 
ATOM     16  C   UNL     1       2.153   6.711  19.907  0.00  0.00    +0.000 A 
ATOM     17  C   UNL     1       1.843   5.580  20.672  0.00  0.00    +0.000 A 
ATOM     18  C   UNL     1       2.290   4.316  20.269  0.00  0.00    +0.000 A 
BRANCH  13  20
ATOM     19  C   UNL     1       2.595   2.301  17.733  0.00  0.00    +0.000 C 
ATOM     20  O   UNL     1       3.496   2.991  18.591  0.00  0.00    +0.000 OA
ENDBRANCH  13  20
ENDBRANCH   1  16
TORSDOF 2
ENDMDL
MODEL 8
REMARK VINA RESULT:      -6.6      3.817      4.641
REMARK  Name = 
REMARK  4 active torsions:
REMARK  status: ('A' for Active; 'I' for Inactive)
REMARK    1  A    between atoms: C_1  and  O_2
REMARK    2  A    between atoms: O_2  and  C_3
REMARK    3  A    between atoms: C_6  and  C_7
REMARK    4  A    between atoms: N_11  and  C_12
REMARK                            x       y       z     vdW  Elec       q    Type
REMARK                         _______ _______ _______ _____ _____    ______ ____
ROOT
ATOM      1  C   UNL     1       3.009   6.791  18.591  0.00  0.00    +0.000 A 
ATOM      2  N   UNL     1       3.638   7.153  17.508  0.00  0.00    +0.000 NA
ATOM      3  C   UNL     1       4.443   6.156  16.965  0.00  0.00    +0.000 A 
ATOM      4  C   UNL     1       5.249   6.228  15.867  0.00  0.00    +0.000 A 
ATOM      5  N   UNL     1       5.824   4.990  15.784  0.00  0.00    +0.000 N 
ATOM      6  C   UNL     1       6.775   4.550  14.790  0.00  0.00    +0.000 C 
ATOM      7  N   UNL     1       5.434   4.130  16.756  0.00  0.00    +0.000 NA
ATOM      8  C   UNL     1       4.578   4.865  17.488  0.00  0.00    +0.000 A 
ATOM      9  C   UNL     1       3.845   4.482  18.673  0.00  0.00    +0.000 A 
ATOM     10  O   UNL     1       3.854   3.380  19.216  0.00  0.00    +0.000 OA
ATOM     11  N   UNL     1       3.083   5.526  19.169  0.00  0.00    +0.000 N 
ATOM     12  H   UNL     1       2.528   5.284  19.974  0.00  0.00    +0.000 HD
ENDROOT
BRANCH   1  16
ATOM     13  C   UNL     1       0.394   9.527  20.617  0.00  0.00    +0.000 A 
ATOM     14  C   UNL     1       0.876   8.386  21.262  0.00  0.00    +0.000 A 
ATOM     15  C   UNL     1       1.747   7.515  20.605  0.00  0.00    +0.000 A 
ATOM     16  C   UNL     1       2.136   7.776  19.286  0.00  0.00    +0.000 A 
ATOM     17  C   UNL     1       1.643   8.911  18.632  0.00  0.00    +0.000 A 
ATOM     18  C   UNL     1       0.775   9.784  19.298  0.00  0.00    +0.000 A 
BRANCH  13  20
ATOM     19  C   UNL     1      -0.533   9.991  22.742  0.00  0.00    +0.000 C 
ATOM     20  O   UNL     1      -0.478  10.282  21.350  0.00  0.00    +0.000 OA
ENDBRANCH  13  20
ENDBRANCH   1  16
TORSDOF 2
ENDMDL
MODEL 9
REMARK VINA RESULT:      -6.6      4.640      7.588
REMARK  Name = 
REMARK  4 active torsions:
REMARK  status: ('A' for Active; 'I' for Inactive)
REMARK    1  A    between atoms: C_1  and  O_2
REMARK    2  A    between atoms: O_2  and  C_3
REMARK    3  A    between atoms: C_6  and  C_7
REMARK    4  A    between atoms: N_11  and  C_12
REMARK                            x       y       z     vdW  Elec       q    Type
REMARK                         _______ _______ _______ _____ _____    ______ ____
ROOT
ATOM      1  C   UNL     1       2.583   7.454  18.591  0.00  0.00    +0.000 A 
ATOM      2  N   UNL     1       2.243   7.133  19.807  0.00  0.00    +0.000 NA
ATOM      3  C   UNL     1       1.498   8.112  20.459  0.00  0.00    +0.000 A 
ATOM      4  C   UNL     1       1.025   8.099  21.738  0.00  0.00    +0.000 A 
ATOM      5  N   UNL     1       0.383   9.298  21.877  0.00  0.00    +0.000 N 
ATOM      6  C   UNL     1      -0.288   9.780  23.062  0.00  0.00    +0.000 C 
ATOM      7  N   UNL     1       0.412  10.075  20.768  0.00  0.00    +0.000 NA
ATOM      8  C   UNL     1       1.111   9.331  19.893  0.00  0.00    +0.000 A 
ATOM      9  C   UNL     1       1.476   9.647  18.530  0.00  0.00    +0.000 A 
ATOM     10  O   UNL     1       1.179  10.664  17.909  0.00  0.00    +0.000 OA
ATOM     11  N   UNL     1       2.230   8.640  17.952  0.00  0.00    +0.000 N 
ATOM     12  H   UNL     1       2.471   8.809  16.988  0.00  0.00    +0.000 HD
ENDROOT
BRANCH   1  16
ATOM     13  C   UNL     1       4.992   4.647  16.412  0.00  0.00    +0.000 A 
ATOM     14  C   UNL     1       3.918   4.215  17.191  0.00  0.00    +0.000 A 
ATOM     15  C   UNL     1       3.123   5.136  17.876  0.00  0.00    +0.000 A 
ATOM     16  C   UNL     1       3.406   6.504  17.793  0.00  0.00    +0.000 A 
ATOM     17  C   UNL     1       4.492   6.940  17.024  0.00  0.00    +0.000 A 
ATOM     18  C   UNL     1       5.282   6.011  16.335  0.00  0.00    +0.000 A 
BRANCH  13  20
ATOM     19  C   UNL     1       6.290   3.965  14.556  0.00  0.00    +0.000 C 
ATOM     20  O   UNL     1       5.716   3.650  15.819  0.00  0.00    +0.000 OA
ENDBRANCH  13  20
ENDBRANCH   1  16
TORSDOF 2
ENDMDL
