MODEL 1
REMARK VINA RESULT:      -6.8      0.000      0.000
REMARK  Name = 
REMARK  6 active torsions:
REMARK  status: ('A' for Active; 'I' for Inactive)
REMARK    1  A    between atoms: S_2  and  N_4
REMARK    2  A    between atoms: S_2  and  C_13
REMARK    3  A    between atoms: N_4  and  C_5
REMARK    4  A    between atoms: C_5  and  C_6
REMARK    5  A    between atoms: C_6  and  C_7
REMARK    6  A    between atoms: C_7  and  N_8
REMARK                            x       y       z     vdW  Elec       q    Type
REMARK                         _______ _______ _______ _____ _____    ______ ____
ROOT
ATOM      1  O   UNL     1       1.669   5.453  18.277  0.00  0.00    +0.000 OA
ATOM      2  S   UNL     1       2.702   6.247  18.906  0.00  0.00    +0.000 S 
ATOM      3  O   UNL     1       2.637   7.688  18.965  0.00  0.00    +0.000 OA
ENDROOT
BRANCH   2   4
ATOM      4  C   UNL     1       4.266   5.796  18.174  0.00  0.00    +0.000 A 
ATOM      5  C   UNL     1       5.334   5.398  19.001  0.00  0.00    +0.000 A 
ATOM      6  C   UNL     1       6.540   4.984  18.429  0.00  0.00    +0.000 A 
ATOM      7  C   UNL     1       6.631   4.967  17.050  0.00  0.00    +0.000 A 
ATOM      8  C   UNL     1       5.586   5.378  16.236  0.00  0.00    +0.000 A 
ATOM      9  C   UNL     1       4.390   5.806  16.778  0.00  0.00    +0.000 A 
ATOM     10  C   UNL     1       6.008   5.285  14.819  0.00  0.00    +0.000 C 
ATOM     11  C   UNL     1       7.224   4.376  15.002  0.00  0.00    +0.000 C 
ATOM     12  O   UNL     1       7.730   4.540  16.350  0.00  0.00    +0.000 OA
ENDBRANCH   2   4
BRANCH   2  13
ATOM     13  N   UNL     1       2.862   5.667  20.484  0.00  0.00    +0.000 NA
ATOM     14  H   UNL     1       3.334   6.338  21.091  0.00  0.00    +0.000 HD
BRANCH  13  15
ATOM     15  C   UNL     1       1.738   4.900  21.019  0.00  0.00    +0.000 C 
BRANCH  15  16
ATOM     16  C   UNL     1       2.206   3.611  21.672  0.00  0.00    +0.000 C 
BRANCH  16  17
ATOM     17  C   UNL     1       1.660   2.433  20.869  0.00  0.00    +0.000 C 
BRANCH  17  18
ATOM     18  N   UNL     1       2.297   2.297  19.583  0.00  0.00    +0.000 N 
ATOM     19  C   UNL     1       3.628   2.247  19.315  0.00  0.00    +0.000 A 
ATOM     20  N   UNL     1       3.805   2.150  18.019  0.00  0.00    +0.000 NA
ATOM     21  C   UNL     1       2.528   2.149  17.533  0.00  0.00    +0.000 A 
ATOM     22  N   UNL     1       1.568   2.238  18.457  0.00  0.00    +0.000 NA
ENDBRANCH  17  18
ENDBRANCH  16  17
ENDBRANCH  15  16
ENDBRANCH  13  15
ENDBRANCH   2  13
TORSDOF 6
ENDMDL
MODEL 2
REMARK VINA RESULT:      -6.6      5.015      7.767
REMARK  Name = 
REMARK  6 active torsions:
REMARK  status: ('A' for Active; 'I' for Inactive)
REMARK    1  A    between atoms: S_2  and  N_4
REMARK    2  A    between atoms: S_2  and  C_13
REMARK    3  A    between atoms: N_4  and  C_5
REMARK    4  A    between atoms: C_5  and  C_6
REMARK    5  A    between atoms: C_6  and  C_7
REMARK    6  A    between atoms: C_7  and  N_8
REMARK                            x       y       z     vdW  Elec       q    Type
REMARK                         _______ _______ _______ _____ _____    ______ ____
ROOT
ATOM      1  O   UNL     1       8.153   4.100  17.376  0.00  0.00    +0.000 OA
ATOM      2  S   UNL     1       7.468   5.187  18.041  0.00  0.00    +0.000 S 
ATOM      3  O   UNL     1       7.816   5.616  19.374  0.00  0.00    +0.000 OA
ENDROOT
BRANCH   2   4
ATOM      4  C   UNL     1       5.719   4.832  18.017  0.00  0.00    +0.000 A 
ATOM      5  C   UNL     1       5.160   4.152  16.919  0.00  0.00    +0.000 A 
ATOM      6  C   UNL     1       3.803   3.816  16.924  0.00  0.00    +0.000 A 
ATOM      7  C   UNL     1       3.056   4.158  18.035  0.00  0.00    +0.000 A 
ATOM      8  C   UNL     1       3.602   4.846  19.109  0.00  0.00    +0.000 A 
ATOM      9  C   UNL     1       4.936   5.202  19.120  0.00  0.00    +0.000 A 
ATOM     10  C   UNL     1       2.543   5.100  20.113  0.00  0.00    +0.000 C 
ATOM     11  C   UNL     1       1.509   4.089  19.616  0.00  0.00    +0.000 C 
ATOM     12  O   UNL     1       1.730   3.852  18.203  0.00  0.00    +0.000 OA
ENDBRANCH   2   4
BRANCH   2  13
ATOM     13  N   UNL     1       7.577   6.526  17.017  0.00  0.00    +0.000 NA
ATOM     14  H   UNL     1       7.281   6.304  16.066  0.00  0.00    +0.000 HD
BRANCH  13  15
ATOM     15  C   UNL     1       7.209   7.821  17.587  0.00  0.00    +0.000 C 
BRANCH  15  16
ATOM     16  C   UNL     1       8.400   8.498  18.243  0.00  0.00    +0.000 C 
BRANCH  16  17
ATOM     17  C   UNL     1       8.363   9.985  17.899  0.00  0.00    +0.000 C 
BRANCH  17  18
ATOM     18  N   UNL     1       9.447  10.719  18.501  0.00  0.00    +0.000 N 
ATOM     19  C   UNL     1       9.674  10.933  19.824  0.00  0.00    +0.000 A 
ATOM     20  N   UNL     1      10.747  11.674  19.965  0.00  0.00    +0.000 NA
ATOM     21  C   UNL     1      11.142  11.892  18.674  0.00  0.00    +0.000 A 
ATOM     22  N   UNL     1      10.374  11.325  17.741  0.00  0.00    +0.000 NA
ENDBRANCH  17  18
ENDBRANCH  16  17
ENDBRANCH  15  16
ENDBRANCH  13  15
ENDBRANCH   2  13
TORSDOF 6
ENDMDL
MODEL 3
REMARK VINA RESULT:      -6.6      2.329      4.001
REMARK  Name = 
REMARK  6 active torsions:
REMARK  status: ('A' for Active; 'I' for Inactive)
REMARK    1  A    between atoms: S_2  and  N_4
REMARK    2  A    between atoms: S_2  and  C_13
REMARK    3  A    between atoms: N_4  and  C_5
REMARK    4  A    between atoms: C_5  and  C_6
REMARK    5  A    between atoms: C_6  and  C_7
REMARK    6  A    between atoms: C_7  and  N_8
REMARK                            x       y       z     vdW  Elec       q    Type
REMARK                         _______ _______ _______ _____ _____    ______ ____
ROOT
ATOM      1  O   UNL     1       3.246   1.739  17.904  0.00  0.00    +0.000 OA
ATOM      2  S   UNL     1       2.893   3.141  17.960  0.00  0.00    +0.000 S 
ATOM      3  O   UNL     1       1.760   3.680  17.248  0.00  0.00    +0.000 OA
ENDROOT
BRANCH   2   4
ATOM      4  C   UNL     1       4.333   4.091  17.502  0.00  0.00    +0.000 A 
ATOM      5  C   UNL     1       4.524   4.464  16.158  0.00  0.00    +0.000 A 
ATOM      6  C   UNL     1       5.617   5.260  15.804  0.00  0.00    +0.000 A 
ATOM      7  C   UNL     1       6.472   5.669  16.810  0.00  0.00    +0.000 A 
ATOM      8  C   UNL     1       6.295   5.286  18.131  0.00  0.00    +0.000 A 
ATOM      9  C   UNL     1       5.232   4.486  18.502  0.00  0.00    +0.000 A 
ATOM     10  C   UNL     1       7.394   5.846  18.951  0.00  0.00    +0.000 C 
ATOM     11  C   UNL     1       7.896   6.904  17.969  0.00  0.00    +0.000 C 
ATOM     12  O   UNL     1       7.554   6.490  16.623  0.00  0.00    +0.000 OA
ENDBRANCH   2   4
BRANCH   2  13
ATOM     13  N   UNL     1       2.713   3.528  19.595  0.00  0.00    +0.000 NA
ATOM     14  H   UNL     1       3.564   3.930  19.988  0.00  0.00    +0.000 HD
BRANCH  13  15
ATOM     15  C   UNL     1       1.420   4.076  20.001  0.00  0.00    +0.000 C 
BRANCH  15  16
ATOM     16  C   UNL     1       1.565   5.474  20.576  0.00  0.00    +0.000 C 
BRANCH  16  17
ATOM     17  C   UNL     1       2.778   6.141  19.931  0.00  0.00    +0.000 C 
BRANCH  17  18
ATOM     18  N   UNL     1       2.423   7.300  19.151  0.00  0.00    +0.000 N 
ATOM     19  C   UNL     1       2.818   7.605  17.888  0.00  0.00    +0.000 A 
ATOM     20  N   UNL     1       2.305   8.762  17.541  0.00  0.00    +0.000 NA
ATOM     21  C   UNL     1       1.595   9.128  18.650  0.00  0.00    +0.000 A 
ATOM     22  N   UNL     1       1.639   8.261  19.665  0.00  0.00    +0.000 NA
ENDBRANCH  17  18
ENDBRANCH  16  17
ENDBRANCH  15  16
ENDBRANCH  13  15
ENDBRANCH   2  13
TORSDOF 6
ENDMDL
MODEL 4
REMARK VINA RESULT:      -6.5      2.789      4.171
REMARK  Name = 
REMARK  6 active torsions:
REMARK  status: ('A' for Active; 'I' for Inactive)
REMARK    1  A    between atoms: S_2  and  N_4
REMARK    2  A    between atoms: S_2  and  C_13
REMARK    3  A    between atoms: N_4  and  C_5
REMARK    4  A    between atoms: C_5  and  C_6
REMARK    5  A    between atoms: C_6  and  C_7
REMARK    6  A    between atoms: C_7  and  N_8
REMARK                            x       y       z     vdW  Elec       q    Type
REMARK                         _______ _______ _______ _____ _____    ______ ____
ROOT
ATOM      1  O   UNL     1       4.877   1.987  20.222  0.00  0.00    +0.000 OA
ATOM      2  S   UNL     1       3.978   2.670  19.318  0.00  0.00    +0.000 S 
ATOM      3  O   UNL     1       3.022   1.962  18.501  0.00  0.00    +0.000 OA
ENDROOT
BRANCH   2   4
ATOM      4  C   UNL     1       4.957   3.707  18.245  0.00  0.00    +0.000 A 
ATOM      5  C   UNL     1       5.832   4.658  18.803  0.00  0.00    +0.000 A 
ATOM      6  C   UNL     1       6.647   5.429  17.968  0.00  0.00    +0.000 A 
ATOM      7  C   UNL     1       6.570   5.209  16.606  0.00  0.00    +0.000 A 
ATOM      8  C   UNL     1       5.693   4.286  16.055  0.00  0.00    +0.000 A 
ATOM      9  C   UNL     1       4.867   3.525  16.858  0.00  0.00    +0.000 A 
ATOM     10  C   UNL     1       5.816   4.319  14.579  0.00  0.00    +0.000 C 
ATOM     11  C   UNL     1       7.155   5.051  14.478  0.00  0.00    +0.000 C 
ATOM     12  O   UNL     1       7.340   5.852  15.671  0.00  0.00    +0.000 OA
ENDBRANCH   2   4
BRANCH   2  13
ATOM     13  N   UNL     1       3.134   3.805  20.243  0.00  0.00    +0.000 NA
ATOM     14  H   UNL     1       3.751   4.524  20.620  0.00  0.00    +0.000 HD
BRANCH  13  15
ATOM     15  C   UNL     1       1.810   4.193  19.758  0.00  0.00    +0.000 C 
BRANCH  15  16
ATOM     16  C   UNL     1       1.880   5.433  18.884  0.00  0.00    +0.000 C 
BRANCH  16  17
ATOM     17  C   UNL     1       2.453   6.579  19.713  0.00  0.00    +0.000 C 
BRANCH  17  18
ATOM     18  N   UNL     1       2.121   7.874  19.173  0.00  0.00    +0.000 N 
ATOM     19  C   UNL     1       1.284   8.805  19.700  0.00  0.00    +0.000 A 
ATOM     20  N   UNL     1       1.223   9.838  18.893  0.00  0.00    +0.000 NA
ATOM     21  C   UNL     1       2.052   9.478  17.868  0.00  0.00    +0.000 A 
ATOM     22  N   UNL     1       2.627   8.279  17.996  0.00  0.00    +0.000 NA
ENDBRANCH  17  18
ENDBRANCH  16  17
ENDBRANCH  15  16
ENDBRANCH  13  15
ENDBRANCH   2  13
TORSDOF 6
ENDMDL
MODEL 5
REMARK VINA RESULT:      -6.5      5.011      7.768
REMARK  Name = 
REMARK  6 active torsions:
REMARK  status: ('A' for Active; 'I' for Inactive)
REMARK    1  A    between atoms: S_2  and  N_4
REMARK    2  A    between atoms: S_2  and  C_13
REMARK    3  A    between atoms: N_4  and  C_5
REMARK    4  A    between atoms: C_5  and  C_6
REMARK    5  A    between atoms: C_6  and  C_7
REMARK    6  A    between atoms: C_7  and  N_8
REMARK                            x       y       z     vdW  Elec       q    Type
REMARK                         _______ _______ _______ _____ _____    ______ ____
ROOT
ATOM      1  O   UNL     1       6.488   6.300  15.819  0.00  0.00    +0.000 OA
ATOM      2  S   UNL     1       6.941   5.512  16.945  0.00  0.00    +0.000 S 
ATOM      3  O   UNL     1       7.865   4.414  16.795  0.00  0.00    +0.000 OA
ENDROOT
BRANCH   2   4
ATOM      4  C   UNL     1       5.501   4.907  17.808  0.00  0.00    +0.000 A 
ATOM      5  C   UNL     1       5.153   5.457  19.057  0.00  0.00    +0.000 A 
ATOM      6  C   UNL     1       3.992   5.030  19.707  0.00  0.00    +0.000 A 
ATOM      7  C   UNL     1       3.210   4.079  19.078  0.00  0.00    +0.000 A 
ATOM      8  C   UNL     1       3.563   3.523  17.857  0.00  0.00    +0.000 A 
ATOM      9  C   UNL     1       4.713   3.917  17.204  0.00  0.00    +0.000 A 
ATOM     10  C   UNL     1       2.551   2.511  17.474  0.00  0.00    +0.000 C 
ATOM     11  C   UNL     1       1.433   2.932  18.428  0.00  0.00    +0.000 C 
ATOM     12  O   UNL     1       2.022   3.602  19.570  0.00  0.00    +0.000 OA
ENDBRANCH   2   4
BRANCH   2  13
ATOM     13  N   UNL     1       7.599   6.598  18.060  0.00  0.00    +0.000 NA
ATOM     14  H   UNL     1       8.308   6.158  18.648  0.00  0.00    +0.000 HD
BRANCH  13  15
ATOM     15  C   UNL     1       7.817   7.966  17.594  0.00  0.00    +0.000 C 
BRANCH  15  16
ATOM     16  C   UNL     1       8.593   8.783  18.612  0.00  0.00    +0.000 C 
BRANCH  16  17
ATOM     17  C   UNL     1       8.721  10.213  18.092  0.00  0.00    +0.000 C 
BRANCH  17  18
ATOM     18  N   UNL     1       9.366  11.090  19.036  0.00  0.00    +0.000 N 
ATOM     19  C   UNL     1       9.529  10.899  20.372  0.00  0.00    +0.000 A 
ATOM     20  N   UNL     1      10.139  11.940  20.886  0.00  0.00    +0.000 NA
ATOM     21  C   UNL     1      10.326  12.753  19.804  0.00  0.00    +0.000 A 
ATOM     22  N   UNL     1       9.867  12.273  18.646  0.00  0.00    +0.000 NA
ENDBRANCH  17  18
ENDBRANCH  16  17
ENDBRANCH  15  16
ENDBRANCH  13  15
ENDBRANCH   2  13
TORSDOF 6
ENDMDL
MODEL 6
REMARK VINA RESULT:      -6.4      2.628      4.059
REMARK  Name = 
REMARK  6 active torsions:
REMARK  status: ('A' for Active; 'I' for Inactive)
REMARK    1  A    between atoms: S_2  and  N_4
REMARK    2  A    between atoms: S_2  and  C_13
REMARK    3  A    between atoms: N_4  and  C_5
REMARK    4  A    between atoms: C_5  and  C_6
REMARK    5  A    between atoms: C_6  and  C_7
REMARK    6  A    between atoms: C_7  and  N_8
REMARK                            x       y       z     vdW  Elec       q    Type
REMARK                         _______ _______ _______ _____ _____    ______ ____
ROOT
ATOM      1  O   UNL     1       3.204   2.674  20.294  0.00  0.00    +0.000 OA
ATOM      2  S   UNL     1       2.793   3.030  18.953  0.00  0.00    +0.000 S 
ATOM      3  O   UNL     1       2.208   2.072  18.046  0.00  0.00    +0.000 OA
ENDROOT
BRANCH   2   4
ATOM      4  C   UNL     1       4.185   3.786  18.132  0.00  0.00    +0.000 A 
ATOM      5  C   UNL     1       5.278   4.245  18.891  0.00  0.00    +0.000 A 
ATOM      6  C   UNL     1       6.398   4.781  18.248  0.00  0.00    +0.000 A 
ATOM      7  C   UNL     1       6.392   4.823  16.866  0.00  0.00    +0.000 A 
ATOM      8  C   UNL     1       5.307   4.389  16.119  0.00  0.00    +0.000 A 
ATOM      9  C   UNL     1       4.184   3.871  16.732  0.00  0.00    +0.000 A 
ATOM     10  C   UNL     1       5.589   4.605  14.680  0.00  0.00    +0.000 C 
ATOM     11  C   UNL     1       7.104   4.796  14.771  0.00  0.00    +0.000 C 
ATOM     12  O   UNL     1       7.435   5.274  16.099  0.00  0.00    +0.000 OA
ENDBRANCH   2   4
BRANCH   2  13
ATOM     13  N   UNL     1       1.719   4.325  19.107  0.00  0.00    +0.000 NA
ATOM     14  H   UNL     1       0.860   4.173  18.578  0.00  0.00    +0.000 HD
BRANCH  13  15
ATOM     15  C   UNL     1       1.636   4.956  20.423  0.00  0.00    +0.000 C 
BRANCH  15  16
ATOM     16  C   UNL     1       2.500   6.203  20.497  0.00  0.00    +0.000 C 
BRANCH  16  17
ATOM     17  C   UNL     1       1.587   7.423  20.582  0.00  0.00    +0.000 C 
BRANCH  17  18
ATOM     18  N   UNL     1       1.685   8.270  19.419  0.00  0.00    +0.000 N 
ATOM     19  C   UNL     1       2.302   7.994  18.240  0.00  0.00    +0.000 A 
ATOM     20  N   UNL     1       2.198   9.032  17.445  0.00  0.00    +0.000 NA
ATOM     21  C   UNL     1       1.499   9.931  18.201  0.00  0.00    +0.000 A 
ATOM     22  N   UNL     1       1.163   9.506  19.422  0.00  0.00    +0.000 NA
ENDBRANCH  17  18
ENDBRANCH  16  17
ENDBRANCH  15  16
ENDBRANCH  13  15
ENDBRANCH   2  13
TORSDOF 6
ENDMDL
MODEL 7
REMARK VINA RESULT:      -6.4      3.071      5.668
REMARK  Name = 
REMARK  6 active torsions:
REMARK  status: ('A' for Active; 'I' for Inactive)
REMARK    1  A    between atoms: S_2  and  N_4
REMARK    2  A    between atoms: S_2  and  C_13
REMARK    3  A    between atoms: N_4  and  C_5
REMARK    4  A    between atoms: C_5  and  C_6
REMARK    5  A    between atoms: C_6  and  C_7
REMARK    6  A    between atoms: C_7  and  N_8
REMARK                            x       y       z     vdW  Elec       q    Type
REMARK                         _______ _______ _______ _____ _____    ______ ____
ROOT
ATOM      1  O   UNL     1       4.081   6.952  17.365  0.00  0.00    +0.000 OA
ATOM      2  S   UNL     1       3.048   6.450  18.245  0.00  0.00    +0.000 S 
ATOM      3  O   UNL     1       2.061   5.492  17.808  0.00  0.00    +0.000 OA
ENDROOT
BRANCH   2   4
ATOM      4  C   UNL     1       2.185   7.851  18.937  0.00  0.00    +0.000 A 
ATOM      5  C   UNL     1       1.835   8.934  18.107  0.00  0.00    +0.000 A 
ATOM      6  C   UNL     1       1.105  10.005  18.631  0.00  0.00    +0.000 A 
ATOM      7  C   UNL     1       0.735   9.947  19.961  0.00  0.00    +0.000 A 
ATOM      8  C   UNL     1       1.096   8.890  20.783  0.00  0.00    +0.000 A 
ATOM      9  C   UNL     1       1.832   7.829  20.293  0.00  0.00    +0.000 A 
ATOM     10  C   UNL     1       0.592   9.144  22.153  0.00  0.00    +0.000 C 
ATOM     11  C   UNL     1      -0.428  10.235  21.822  0.00  0.00    +0.000 C 
ATOM     12  O   UNL     1      -0.022  10.897  20.598  0.00  0.00    +0.000 OA
ENDBRANCH   2   4
BRANCH   2  13
ATOM     13  N   UNL     1       3.835   5.810  19.596  0.00  0.00    +0.000 NA
ATOM     14  H   UNL     1       3.180   5.383  20.252  0.00  0.00    +0.000 HD
BRANCH  13  15
ATOM     15  C   UNL     1       5.121   5.158  19.358  0.00  0.00    +0.000 C 
BRANCH  15  16
ATOM     16  C   UNL     1       4.948   3.827  18.648  0.00  0.00    +0.000 C 
BRANCH  16  17
ATOM     17  C   UNL     1       4.381   2.816  19.642  0.00  0.00    +0.000 C 
BRANCH  17  18
ATOM     18  N   UNL     1       2.946   2.711  19.567  0.00  0.00    +0.000 N 
ATOM     19  C   UNL     1       2.207   2.086  18.613  0.00  0.00    +0.000 A 
ATOM     20  N   UNL     1       0.932   2.239  18.883  0.00  0.00    +0.000 NA
ATOM     21  C   UNL     1       0.948   2.981  20.030  0.00  0.00    +0.000 A 
ATOM     22  N   UNL     1       2.163   3.295  20.488  0.00  0.00    +0.000 NA
ENDBRANCH  17  18
ENDBRANCH  16  17
ENDBRANCH  15  16
ENDBRANCH  13  15
ENDBRANCH   2  13
TORSDOF 6
ENDMDL
MODEL 8
REMARK VINA RESULT:      -6.4      2.325      3.945
REMARK  Name = 
REMARK  6 active torsions:
REMARK  status: ('A' for Active; 'I' for Inactive)
REMARK    1  A    between atoms: S_2  and  N_4
REMARK    2  A    between atoms: S_2  and  C_13
REMARK    3  A    between atoms: N_4  and  C_5
REMARK    4  A    between atoms: C_5  and  C_6
REMARK    5  A    between atoms: C_6  and  C_7
REMARK    6  A    between atoms: C_7  and  N_8
REMARK                            x       y       z     vdW  Elec       q    Type
REMARK                         _______ _______ _______ _____ _____    ______ ____
ROOT
ATOM      1  O   UNL     1       4.201   2.134  19.616  0.00  0.00    +0.000 OA
ATOM      2  S   UNL     1       3.722   2.567  18.321  0.00  0.00    +0.000 S 
ATOM      3  O   UNL     1       3.401   1.634  17.267  0.00  0.00    +0.000 OA
ENDROOT
BRANCH   2   4
ATOM      4  C   UNL     1       4.887   3.752  17.671  0.00  0.00    +0.000 A 
ATOM      5  C   UNL     1       4.910   4.022  16.289  0.00  0.00    +0.000 A 
ATOM      6  C   UNL     1       5.777   4.995  15.783  0.00  0.00    +0.000 A 
ATOM      7  C   UNL     1       6.580   5.675  16.680  0.00  0.00    +0.000 A 
ATOM      8  C   UNL     1       6.572   5.396  18.038  0.00  0.00    +0.000 A 
ATOM      9  C   UNL     1       5.736   4.428  18.559  0.00  0.00    +0.000 A 
ATOM     10  C   UNL     1       7.567   6.256  18.718  0.00  0.00    +0.000 C 
ATOM     11  C   UNL     1       7.764   7.295  17.613  0.00  0.00    +0.000 C 
ATOM     12  O   UNL     1       7.441   6.686  16.338  0.00  0.00    +0.000 OA
ENDBRANCH   2   4
BRANCH   2  13
ATOM     13  N   UNL     1       2.358   3.522  18.606  0.00  0.00    +0.000 NA
ATOM     14  H   UNL     1       1.963   3.891  17.741  0.00  0.00    +0.000 HD
BRANCH  13  15
ATOM     15  C   UNL     1       1.451   3.073  19.661  0.00  0.00    +0.000 C 
BRANCH  15  16
ATOM     16  C   UNL     1       0.945   4.238  20.493  0.00  0.00    +0.000 C 
BRANCH  16  17
ATOM     17  C   UNL     1       2.130   5.135  20.843  0.00  0.00    +0.000 C 
BRANCH  17  18
ATOM     18  N   UNL     1       2.052   6.427  20.209  0.00  0.00    +0.000 N 
ATOM     19  C   UNL     1       1.569   7.584  20.733  0.00  0.00    +0.000 A 
ATOM     20  N   UNL     1       1.643   8.533  19.831  0.00  0.00    +0.000 NA
ATOM     21  C   UNL     1       2.185   7.890  18.753  0.00  0.00    +0.000 A 
ATOM     22  N   UNL     1       2.453   6.595  18.938  0.00  0.00    +0.000 NA
ENDBRANCH  17  18
ENDBRANCH  16  17
ENDBRANCH  15  16
ENDBRANCH  13  15
ENDBRANCH   2  13
TORSDOF 6
ENDMDL
MODEL 9
REMARK VINA RESULT:      -6.4      2.446      4.642
REMARK  Name = 
REMARK  6 active torsions:
REMARK  status: ('A' for Active; 'I' for Inactive)
REMARK    1  A    between atoms: S_2  and  N_4
REMARK    2  A    between atoms: S_2  and  C_13
REMARK    3  A    between atoms: N_4  and  C_5
REMARK    4  A    between atoms: C_5  and  C_6
REMARK    5  A    between atoms: C_6  and  C_7
REMARK    6  A    between atoms: C_7  and  N_8
REMARK                            x       y       z     vdW  Elec       q    Type
REMARK                         _______ _______ _______ _____ _____    ______ ____
ROOT
ATOM      1  O   UNL     1       6.610   6.015  17.891  0.00  0.00    +0.000 OA
ATOM      2  S   UNL     1       5.382   5.583  17.260  0.00  0.00    +0.000 S 
ATOM      3  O   UNL     1       5.165   5.696  15.837  0.00  0.00    +0.000 OA
ENDROOT
BRANCH   2   4
ATOM      4  C   UNL     1       4.023   6.390  18.088  0.00  0.00    +0.000 A 
ATOM      5  C   UNL     1       3.574   5.903  19.331  0.00  0.00    +0.000 A 
ATOM      6  C   UNL     1       2.552   6.569  20.013  0.00  0.00    +0.000 A 
ATOM      7  C   UNL     1       2.026   7.710  19.437  0.00  0.00    +0.000 A 
ATOM      8  C   UNL     1       2.454   8.180  18.204  0.00  0.00    +0.000 A 
ATOM      9  C   UNL     1       3.451   7.529  17.504  0.00  0.00    +0.000 A 
ATOM     10  C   UNL     1       1.671   9.384  17.844  0.00  0.00    +0.000 C 
ATOM     11  C   UNL     1       1.105   9.711  19.226  0.00  0.00    +0.000 C 
ATOM     12  O   UNL     1       1.057   8.493  20.010  0.00  0.00    +0.000 OA
ENDBRANCH   2   4
BRANCH   2  13
ATOM     13  N   UNL     1       5.159   3.966  17.695  0.00  0.00    +0.000 NA
ATOM     14  H   UNL     1       5.299   3.817  18.695  0.00  0.00    +0.000 HD
BRANCH  13  15
ATOM     15  C   UNL     1       4.081   3.247  17.019  0.00  0.00    +0.000 C 
BRANCH  15  16
ATOM     16  C   UNL     1       3.544   2.115  17.877  0.00  0.00    +0.000 C 
BRANCH  16  17
ATOM     17  C   UNL     1       3.976   2.353  19.321  0.00  0.00    +0.000 C 
BRANCH  17  18
ATOM     18  N   UNL     1       2.861   2.610  20.198  0.00  0.00    +0.000 N 
ATOM     19  C   UNL     1       2.839   2.551  21.555  0.00  0.00    +0.000 A 
ATOM     20  N   UNL     1       1.628   2.822  21.980  0.00  0.00    +0.000 NA
ATOM     21  C   UNL     1       0.936   3.039  20.822  0.00  0.00    +0.000 A 
ATOM     22  N   UNL     1       1.652   2.919  19.701  0.00  0.00    +0.000 NA
ENDBRANCH  17  18
ENDBRANCH  16  17
ENDBRANCH  15  16
ENDBRANCH  13  15
ENDBRANCH   2  13
TORSDOF 6
ENDMDL
