MODEL 1
REMARK VINA RESULT:      -7.2      0.000      0.000
REMARK  Name = 
REMARK  3 active torsions:
REMARK  status: ('A' for Active; 'I' for Inactive)
REMARK    1  A    between atoms: C_1  and  C_2
REMARK    2  A    between atoms: C_5  and  N_6
REMARK    3  A    between atoms: N_17  and  C_18
REMARK                            x       y       z     vdW  Elec       q    Type
REMARK                         _______ _______ _______ _____ _____    ______ ____
ROOT
ATOM      1  N   UNL     1       5.425   3.869  17.167  0.00  0.00    +0.000 N 
ATOM      2  C   UNL     1       4.595   4.639  17.904  0.00  0.00    +0.000 A 
ATOM      3  N   UNL     1       4.145   5.865  17.706  0.00  0.00    +0.000 NA
ATOM      4  C   UNL     1       3.312   6.118  18.748  0.00  0.00    +0.000 A 
ATOM      5  C   UNL     1       3.232   5.054  19.591  0.00  0.00    +0.000 A 
ATOM      6  N   UNL     1       4.056   4.110  19.059  0.00  0.00    +0.000 N 
ATOM      7  C   UNL     1       2.426   5.040  20.752  0.00  0.00    +0.000 A 
ATOM      8  O   UNL     1       2.326   4.090  21.520  0.00  0.00    +0.000 OA
ATOM      9  N   UNL     1       1.755   6.229  20.932  0.00  0.00    +0.000 N 
ATOM     10  C   UNL     1       1.803   7.349  20.119  0.00  0.00    +0.000 A 
ATOM     11  O   UNL     1       1.138   8.337  20.432  0.00  0.00    +0.000 OA
ATOM     12  N   UNL     1       2.608   7.278  18.985  0.00  0.00    +0.000 N 
ATOM     13  C   UNL     1       2.709   8.404  18.074  0.00  0.00    +0.000 C 
ATOM     14  H   UNL     1       5.680   2.944  17.489  0.00  0.00    +0.000 HD
ATOM     15  H   UNL     1       4.214   3.181  19.421  0.00  0.00    +0.000 HD
ATOM     16  H   UNL     1       1.165   6.301  21.744  0.00  0.00    +0.000 HD
ENDROOT
BRANCH   1  21
ATOM     17  C   UNL     1       7.366   4.517  11.809  0.00  0.00    +0.000 C 
ATOM     18  C   UNL     1       6.803   4.401  13.192  0.00  0.00    +0.000 A 
ATOM     19  C   UNL     1       5.607   3.720  13.426  0.00  0.00    +0.000 A 
ATOM     20  C   UNL     1       5.116   3.571  14.727  0.00  0.00    +0.000 A 
ATOM     21  C   UNL     1       5.804   4.096  15.826  0.00  0.00    +0.000 A 
ATOM     22  C   UNL     1       6.985   4.813  15.576  0.00  0.00    +0.000 A 
ATOM     23  C   UNL     1       7.482   4.961  14.277  0.00  0.00    +0.000 A 
ENDBRANCH   1  21
TORSDOF 1
ENDMDL
MODEL 2
REMARK VINA RESULT:      -7.1      4.425      6.344
REMARK  Name = 
REMARK  3 active torsions:
REMARK  status: ('A' for Active; 'I' for Inactive)
REMARK    1  A    between atoms: C_1  and  C_2
REMARK    2  A    between atoms: C_5  and  N_6
REMARK    3  A    between atoms: N_17  and  C_18
REMARK                            x       y       z     vdW  Elec       q    Type
REMARK                         _______ _______ _______ _____ _____    ______ ____
ROOT
ATOM      1  N   UNL     1       1.989   7.472  21.003  0.00  0.00    +0.000 N 
ATOM      2  C   UNL     1       1.147   8.513  20.823  0.00  0.00    +0.000 A 
ATOM      3  N   UNL     1       0.531   8.954  19.741  0.00  0.00    +0.000 NA
ATOM      4  C   UNL     1      -0.219  10.008  20.154  0.00  0.00    +0.000 A 
ATOM      5  C   UNL     1      -0.083  10.222  21.490  0.00  0.00    +0.000 A 
ATOM      6  N   UNL     1       0.795   9.274  21.919  0.00  0.00    +0.000 N 
ATOM      7  C   UNL     1      -0.760  11.248  22.186  0.00  0.00    +0.000 A 
ATOM      8  O   UNL     1      -0.665  11.454  23.390  0.00  0.00    +0.000 OA
ATOM      9  N   UNL     1      -1.552  12.005  21.352  0.00  0.00    +0.000 N 
ATOM     10  C   UNL     1      -1.725  11.845  19.987  0.00  0.00    +0.000 A 
ATOM     11  O   UNL     1      -2.472  12.619  19.390  0.00  0.00    +0.000 OA
ATOM     12  N   UNL     1      -1.035  10.801  19.377  0.00  0.00    +0.000 N 
ATOM     13  C   UNL     1      -1.165  10.556  17.953  0.00  0.00    +0.000 C 
ATOM     14  H   UNL     1       2.387   7.292  21.916  0.00  0.00    +0.000 HD
ATOM     15  H   UNL     1       1.103   9.130  22.869  0.00  0.00    +0.000 HD
ATOM     16  H   UNL     1      -2.062  12.764  21.773  0.00  0.00    +0.000 HD
ENDROOT
BRANCH   1  21
ATOM     17  C   UNL     1       2.357   3.127  17.277  0.00  0.00    +0.000 C 
ATOM     18  C   UNL     1       2.338   4.252  18.265  0.00  0.00    +0.000 A 
ATOM     19  C   UNL     1       2.908   5.489  17.957  0.00  0.00    +0.000 A 
ATOM     20  C   UNL     1       2.838   6.550  18.866  0.00  0.00    +0.000 A 
ATOM     21  C   UNL     1       2.200   6.405  20.102  0.00  0.00    +0.000 A 
ATOM     22  C   UNL     1       1.665   5.146  20.418  0.00  0.00    +0.000 A 
ATOM     23  C   UNL     1       1.729   4.084  19.511  0.00  0.00    +0.000 A 
ENDBRANCH   1  21
TORSDOF 1
ENDMDL
MODEL 3
REMARK VINA RESULT:      -7.1      2.895      7.125
REMARK  Name = 
REMARK  3 active torsions:
REMARK  status: ('A' for Active; 'I' for Inactive)
REMARK    1  A    between atoms: C_1  and  C_2
REMARK    2  A    between atoms: C_5  and  N_6
REMARK    3  A    between atoms: N_17  and  C_18
REMARK                            x       y       z     vdW  Elec       q    Type
REMARK                         _______ _______ _______ _____ _____    ______ ____
ROOT
ATOM      1  N   UNL     1       1.656   6.914  20.802  0.00  0.00    +0.000 N 
ATOM      2  C   UNL     1       2.575   6.318  20.011  0.00  0.00    +0.000 A 
ATOM      3  N   UNL     1       3.167   6.731  18.905  0.00  0.00    +0.000 NA
ATOM      4  C   UNL     1       4.028   5.739  18.563  0.00  0.00    +0.000 A 
ATOM      5  C   UNL     1       3.986   4.713  19.453  0.00  0.00    +0.000 A 
ATOM      6  N   UNL     1       3.053   5.075  20.376  0.00  0.00    +0.000 N 
ATOM      7  C   UNL     1       4.789   3.555  19.345  0.00  0.00    +0.000 A 
ATOM      8  O   UNL     1       4.779   2.623  20.141  0.00  0.00    +0.000 OA
ATOM      9  N   UNL     1       5.597   3.587  18.231  0.00  0.00    +0.000 N 
ATOM     10  C   UNL     1       5.680   4.594  17.284  0.00  0.00    +0.000 A 
ATOM     11  O   UNL     1       6.458   4.458  16.341  0.00  0.00    +0.000 OA
ATOM     12  N   UNL     1       4.867   5.709  17.469  0.00  0.00    +0.000 N 
ATOM     13  C   UNL     1       4.895   6.814  16.529  0.00  0.00    +0.000 C 
ATOM     14  H   UNL     1       1.294   6.431  21.615  0.00  0.00    +0.000 HD
ATOM     15  H   UNL     1       2.787   4.551  21.196  0.00  0.00    +0.000 HD
ATOM     16  H   UNL     1       6.195   2.791  18.080  0.00  0.00    +0.000 HD
ENDROOT
BRANCH   1  21
ATOM     17  C   UNL     1      -0.191  12.334  20.475  0.00  0.00    +0.000 C 
ATOM     18  C   UNL     1       0.359  10.946  20.592  0.00  0.00    +0.000 A 
ATOM     19  C   UNL     1       0.453  10.311  21.832  0.00  0.00    +0.000 A 
ATOM     20  C   UNL     1       0.918   8.996  21.924  0.00  0.00    +0.000 A 
ATOM     21  C   UNL     1       1.301   8.280  20.785  0.00  0.00    +0.000 A 
ATOM     22  C   UNL     1       1.240   8.941  19.547  0.00  0.00    +0.000 A 
ATOM     23  C   UNL     1       0.771  10.255  19.449  0.00  0.00    +0.000 A 
ENDBRANCH   1  21
TORSDOF 1
ENDMDL
MODEL 4
REMARK VINA RESULT:      -7.1      2.893      7.096
REMARK  Name = 
REMARK  3 active torsions:
REMARK  status: ('A' for Active; 'I' for Inactive)
REMARK    1  A    between atoms: C_1  and  C_2
REMARK    2  A    between atoms: C_5  and  N_6
REMARK    3  A    between atoms: N_17  and  C_18
REMARK                            x       y       z     vdW  Elec       q    Type
REMARK                         _______ _______ _______ _____ _____    ______ ____
ROOT
ATOM      1  N   UNL     1       1.618   6.875  20.717  0.00  0.00    +0.000 N 
ATOM      2  C   UNL     1       2.562   6.297  19.942  0.00  0.00    +0.000 A 
ATOM      3  N   UNL     1       3.158   6.718  18.842  0.00  0.00    +0.000 NA
ATOM      4  C   UNL     1       4.048   5.746  18.517  0.00  0.00    +0.000 A 
ATOM      5  C   UNL     1       4.020   4.724  19.414  0.00  0.00    +0.000 A 
ATOM      6  N   UNL     1       3.066   5.069  20.322  0.00  0.00    +0.000 N 
ATOM      7  C   UNL     1       4.853   3.587  19.325  0.00  0.00    +0.000 A 
ATOM      8  O   UNL     1       4.856   2.660  20.127  0.00  0.00    +0.000 OA
ATOM      9  N   UNL     1       5.675   3.631  18.221  0.00  0.00    +0.000 N 
ATOM     10  C   UNL     1       5.745   4.634  17.269  0.00  0.00    +0.000 A 
ATOM     11  O   UNL     1       6.539   4.511  16.337  0.00  0.00    +0.000 OA
ATOM     12  N   UNL     1       4.902   5.729  17.435  0.00  0.00    +0.000 N 
ATOM     13  C   UNL     1       4.916   6.829  16.488  0.00  0.00    +0.000 C 
ATOM     14  H   UNL     1       1.257   6.388  21.528  0.00  0.00    +0.000 HD
ATOM     15  H   UNL     1       2.802   4.543  21.142  0.00  0.00    +0.000 HD
ATOM     16  H   UNL     1       6.295   2.850  18.083  0.00  0.00    +0.000 HD
ENDROOT
BRANCH   1  21
ATOM     17  C   UNL     1       0.456  12.490  20.837  0.00  0.00    +0.000 C 
ATOM     18  C   UNL     1       0.687  11.012  20.776  0.00  0.00    +0.000 A 
ATOM     19  C   UNL     1       0.915  10.370  19.557  0.00  0.00    +0.000 A 
ATOM     20  C   UNL     1       1.182   8.998  19.516  0.00  0.00    +0.000 A 
ATOM     21  C   UNL     1       1.229   8.232  20.685  0.00  0.00    +0.000 A 
ATOM     22  C   UNL     1       0.959   8.879  21.901  0.00  0.00    +0.000 A 
ATOM     23  C   UNL     1       0.696  10.252  21.949  0.00  0.00    +0.000 A 
ENDBRANCH   1  21
TORSDOF 1
ENDMDL
MODEL 5
REMARK VINA RESULT:      -7.1      2.384      4.013
REMARK  Name = 
REMARK  3 active torsions:
REMARK  status: ('A' for Active; 'I' for Inactive)
REMARK    1  A    between atoms: C_1  and  C_2
REMARK    2  A    between atoms: C_5  and  N_6
REMARK    3  A    between atoms: N_17  and  C_18
REMARK                            x       y       z     vdW  Elec       q    Type
REMARK                         _______ _______ _______ _____ _____    ______ ____
ROOT
ATOM      1  N   UNL     1       3.165   5.593  20.121  0.00  0.00    +0.000 N 
ATOM      2  C   UNL     1       2.454   6.742  20.093  0.00  0.00    +0.000 A 
ATOM      3  N   UNL     1       2.471   7.752  19.242  0.00  0.00    +0.000 NA
ATOM      4  C   UNL     1       1.520   8.614  19.684  0.00  0.00    +0.000 A 
ATOM      5  C   UNL     1       0.901   8.144  20.800  0.00  0.00    +0.000 A 
ATOM      6  N   UNL     1       1.500   6.952  21.068  0.00  0.00    +0.000 N 
ATOM      7  C   UNL     1      -0.138   8.835  21.463  0.00  0.00    +0.000 A 
ATOM      8  O   UNL     1      -0.719   8.428  22.461  0.00  0.00    +0.000 OA
ATOM      9  N   UNL     1      -0.431  10.037  20.857  0.00  0.00    +0.000 N 
ATOM     10  C   UNL     1       0.167  10.574  19.729  0.00  0.00    +0.000 A 
ATOM     11  O   UNL     1      -0.216  11.670  19.321  0.00  0.00    +0.000 OA
ATOM     12  N   UNL     1       1.173   9.825  19.124  0.00  0.00    +0.000 N 
ATOM     13  C   UNL     1       1.847  10.310  17.934  0.00  0.00    +0.000 C 
ATOM     14  H   UNL     1       3.030   4.930  20.874  0.00  0.00    +0.000 HD
ATOM     15  H   UNL     1       1.266   6.320  21.819  0.00  0.00    +0.000 HD
ATOM     16  H   UNL     1      -1.157  10.593  21.277  0.00  0.00    +0.000 HD
ENDROOT
BRANCH   1  21
ATOM     17  C   UNL     1       6.029   3.740  15.510  0.00  0.00    +0.000 C 
ATOM     18  C   UNL     1       5.312   4.164  16.755  0.00  0.00    +0.000 A 
ATOM     19  C   UNL     1       5.999   4.762  17.812  0.00  0.00    +0.000 A 
ATOM     20  C   UNL     1       5.312   5.202  18.948  0.00  0.00    +0.000 A 
ATOM     21  C   UNL     1       3.925   5.056  19.059  0.00  0.00    +0.000 A 
ATOM     22  C   UNL     1       3.249   4.418  18.007  0.00  0.00    +0.000 A 
ATOM     23  C   UNL     1       3.931   3.980  16.867  0.00  0.00    +0.000 A 
ENDBRANCH   1  21
TORSDOF 1
ENDMDL
MODEL 6
REMARK VINA RESULT:      -7.0      3.139      7.578
REMARK  Name = 
REMARK  3 active torsions:
REMARK  status: ('A' for Active; 'I' for Inactive)
REMARK    1  A    between atoms: C_1  and  C_2
REMARK    2  A    between atoms: C_5  and  N_6
REMARK    3  A    between atoms: N_17  and  C_18
REMARK                            x       y       z     vdW  Elec       q    Type
REMARK                         _______ _______ _______ _____ _____    ______ ____
ROOT
ATOM      1  N   UNL     1       2.286   8.249  19.057  0.00  0.00    +0.000 N 
ATOM      2  C   UNL     1       2.666   6.956  18.969  0.00  0.00    +0.000 A 
ATOM      3  N   UNL     1       2.507   5.946  19.805  0.00  0.00    +0.000 NA
ATOM      4  C   UNL     1       3.054   4.871  19.182  0.00  0.00    +0.000 A 
ATOM      5  C   UNL     1       3.544   5.200  17.958  0.00  0.00    +0.000 A 
ATOM      6  N   UNL     1       3.305   6.533  17.821  0.00  0.00    +0.000 N 
ATOM      7  C   UNL     1       4.157   4.269  17.089  0.00  0.00    +0.000 A 
ATOM      8  O   UNL     1       4.594   4.538  15.976  0.00  0.00    +0.000 OA
ATOM      9  N   UNL     1       4.211   3.007  17.636  0.00  0.00    +0.000 N 
ATOM     10  C   UNL     1       3.740   2.610  18.876  0.00  0.00    +0.000 A 
ATOM     11  O   UNL     1       3.875   1.434  19.213  0.00  0.00    +0.000 OA
ATOM     12  N   UNL     1       3.135   3.583  19.668  0.00  0.00    +0.000 N 
ATOM     13  C   UNL     1       2.608   3.253  20.979  0.00  0.00    +0.000 C 
ATOM     14  H   UNL     1       2.514   8.898  18.314  0.00  0.00    +0.000 HD
ATOM     15  H   UNL     1       3.521   7.100  17.014  0.00  0.00    +0.000 HD
ATOM     16  H   UNL     1       4.642   2.287  17.079  0.00  0.00    +0.000 HD
ENDROOT
BRANCH   1  21
ATOM     17  C   UNL     1      -1.114  10.647  23.006  0.00  0.00    +0.000 C 
ATOM     18  C   UNL     1      -0.289   9.979  21.949  0.00  0.00    +0.000 A 
ATOM     19  C   UNL     1      -0.419  10.333  20.604  0.00  0.00    +0.000 A 
ATOM     20  C   UNL     1       0.394   9.742  19.632  0.00  0.00    +0.000 A 
ATOM     21  C   UNL     1       1.355   8.785  19.974  0.00  0.00    +0.000 A 
ATOM     22  C   UNL     1       1.450   8.407  21.322  0.00  0.00    +0.000 A 
ATOM     23  C   UNL     1       0.643   8.999  22.299  0.00  0.00    +0.000 A 
ENDBRANCH   1  21
TORSDOF 1
ENDMDL
MODEL 7
REMARK VINA RESULT:      -7.0      3.082      7.084
REMARK  Name = 
REMARK  3 active torsions:
REMARK  status: ('A' for Active; 'I' for Inactive)
REMARK    1  A    between atoms: C_1  and  C_2
REMARK    2  A    between atoms: C_5  and  N_6
REMARK    3  A    between atoms: N_17  and  C_18
REMARK                            x       y       z     vdW  Elec       q    Type
REMARK                         _______ _______ _______ _____ _____    ______ ____
ROOT
ATOM      1  N   UNL     1       2.835   8.223  18.131  0.00  0.00    +0.000 N 
ATOM      2  C   UNL     1       3.052   6.889  18.137  0.00  0.00    +0.000 A 
ATOM      3  N   UNL     1       2.442   5.915  18.788  0.00  0.00    +0.000 NA
ATOM      4  C   UNL     1       3.052   4.771  18.383  0.00  0.00    +0.000 A 
ATOM      5  C   UNL     1       4.032   5.025  17.475  0.00  0.00    +0.000 A 
ATOM      6  N   UNL     1       4.040   6.377  17.322  0.00  0.00    +0.000 N 
ATOM      7  C   UNL     1       4.820   4.015  16.879  0.00  0.00    +0.000 A 
ATOM      8  O   UNL     1       5.701   4.216  16.050  0.00  0.00    +0.000 OA
ATOM      9  N   UNL     1       4.488   2.759  17.337  0.00  0.00    +0.000 N 
ATOM     10  C   UNL     1       3.511   2.437  18.264  0.00  0.00    +0.000 A 
ATOM     11  O   UNL     1       3.348   1.255  18.566  0.00  0.00    +0.000 OA
ATOM     12  N   UNL     1       2.767   3.487  18.794  0.00  0.00    +0.000 N 
ATOM     13  C   UNL     1       1.717   3.238  19.765  0.00  0.00    +0.000 C 
ATOM     14  H   UNL     1       3.424   8.831  17.576  0.00  0.00    +0.000 HD
ATOM     15  H   UNL     1       4.633   6.905  16.699  0.00  0.00    +0.000 HD
ATOM     16  H   UNL     1       5.013   1.985  16.964  0.00  0.00    +0.000 HD
ENDROOT
BRANCH   1  21
ATOM     17  C   UNL     1      -1.513  11.237  20.347  0.00  0.00    +0.000 C 
ATOM     18  C   UNL     1      -0.430  10.395  19.745  0.00  0.00    +0.000 A 
ATOM     19  C   UNL     1      -0.267  10.315  18.361  0.00  0.00    +0.000 A 
ATOM     20  C   UNL     1       0.780   9.569  17.810  0.00  0.00    +0.000 A 
ATOM     21  C   UNL     1       1.689   8.884  18.624  0.00  0.00    +0.000 A 
ATOM     22  C   UNL     1       1.493   8.939  20.013  0.00  0.00    +0.000 A 
ATOM     23  C   UNL     1       0.450   9.688  20.568  0.00  0.00    +0.000 A 
ENDBRANCH   1  21
TORSDOF 1
ENDMDL
MODEL 8
REMARK VINA RESULT:      -7.0      3.114      7.344
REMARK  Name = 
REMARK  3 active torsions:
REMARK  status: ('A' for Active; 'I' for Inactive)
REMARK    1  A    between atoms: C_1  and  C_2
REMARK    2  A    between atoms: C_5  and  N_6
REMARK    3  A    between atoms: N_17  and  C_18
REMARK                            x       y       z     vdW  Elec       q    Type
REMARK                         _______ _______ _______ _____ _____    ______ ____
ROOT
ATOM      1  N   UNL     1       2.157   9.285  17.890  0.00  0.00    +0.000 N 
ATOM      2  C   UNL     1       2.607   8.051  18.204  0.00  0.00    +0.000 A 
ATOM      3  N   UNL     1       2.263   7.223  19.174  0.00  0.00    +0.000 NA
ATOM      4  C   UNL     1       3.014   6.108  18.983  0.00  0.00    +0.000 A 
ATOM      5  C   UNL     1       3.817   6.230  17.892  0.00  0.00    +0.000 A 
ATOM      6  N   UNL     1       3.565   7.472  17.397  0.00  0.00    +0.000 N 
ATOM      7  C   UNL     1       4.695   5.212  17.455  0.00  0.00    +0.000 A 
ATOM      8  O   UNL     1       5.418   5.292  16.469  0.00  0.00    +0.000 OA
ATOM      9  N   UNL     1       4.650   4.103  18.269  0.00  0.00    +0.000 N 
ATOM     10  C   UNL     1       3.864   3.922  19.395  0.00  0.00    +0.000 A 
ATOM     11  O   UNL     1       3.952   2.862  20.014  0.00  0.00    +0.000 OA
ATOM     12  N   UNL     1       3.014   4.965  19.752  0.00  0.00    +0.000 N 
ATOM     13  C   UNL     1       2.151   4.856  20.914  0.00  0.00    +0.000 C 
ATOM     14  H   UNL     1       2.556   9.788  17.108  0.00  0.00    +0.000 HD
ATOM     15  H   UNL     1       3.975   7.881  16.570  0.00  0.00    +0.000 HD
ATOM     16  H   UNL     1       5.255   3.336  18.027  0.00  0.00    +0.000 HD
ENDROOT
BRANCH   1  21
ATOM     17  C   UNL     1      -2.444  12.188  19.709  0.00  0.00    +0.000 C 
ATOM     18  C   UNL     1      -1.271  11.365  19.270  0.00  0.00    +0.000 A 
ATOM     19  C   UNL     1      -1.399  10.413  18.257  0.00  0.00    +0.000 A 
ATOM     20  C   UNL     1      -0.287   9.688  17.818  0.00  0.00    +0.000 A 
ATOM     21  C   UNL     1       0.979   9.893  18.377  0.00  0.00    +0.000 A 
ATOM     22  C   UNL     1       1.089  10.824  19.422  0.00  0.00    +0.000 A 
ATOM     23  C   UNL     1      -0.019  11.555  19.861  0.00  0.00    +0.000 A 
ENDBRANCH   1  21
TORSDOF 1
ENDMDL
MODEL 9
REMARK VINA RESULT:      -6.9      0.296      1.111
REMARK  Name = 
REMARK  3 active torsions:
REMARK  status: ('A' for Active; 'I' for Inactive)
REMARK    1  A    between atoms: C_1  and  C_2
REMARK    2  A    between atoms: C_5  and  N_6
REMARK    3  A    between atoms: N_17  and  C_18
REMARK                            x       y       z     vdW  Elec       q    Type
REMARK                         _______ _______ _______ _____ _____    ______ ____
ROOT
ATOM      1  N   UNL     1       5.703   3.879  17.455  0.00  0.00    +0.000 N 
ATOM      2  C   UNL     1       4.808   4.664  18.093  0.00  0.00    +0.000 A 
ATOM      3  N   UNL     1       4.359   5.874  17.811  0.00  0.00    +0.000 NA
ATOM      4  C   UNL     1       3.443   6.154  18.774  0.00  0.00    +0.000 A 
ATOM      5  C   UNL     1       3.310   5.123  19.650  0.00  0.00    +0.000 A 
ATOM      6  N   UNL     1       4.185   4.173  19.222  0.00  0.00    +0.000 N 
ATOM      7  C   UNL     1       2.416   5.143  20.744  0.00  0.00    +0.000 A 
ATOM      8  O   UNL     1       2.268   4.222  21.539  0.00  0.00    +0.000 OA
ATOM      9  N   UNL     1       1.718   6.327  20.822  0.00  0.00    +0.000 N 
ATOM     10  C   UNL     1       1.815   7.415  19.971  0.00  0.00    +0.000 A 
ATOM     11  O   UNL     1       1.115   8.403  20.191  0.00  0.00    +0.000 OA
ATOM     12  N   UNL     1       2.707   7.312  18.907  0.00  0.00    +0.000 N 
ATOM     13  C   UNL     1       2.866   8.402  17.962  0.00  0.00    +0.000 C 
ATOM     14  H   UNL     1       5.943   2.971  17.833  0.00  0.00    +0.000 HD
ATOM     15  H   UNL     1       4.327   3.261  19.633  0.00  0.00    +0.000 HD
ATOM     16  H   UNL     1       1.065   6.421  21.583  0.00  0.00    +0.000 HD
ENDROOT
BRANCH   1  21
ATOM     17  C   UNL     1       7.228   4.851  12.012  0.00  0.00    +0.000 C 
ATOM     18  C   UNL     1       6.894   4.551  13.441  0.00  0.00    +0.000 A 
ATOM     19  C   UNL     1       7.618   5.129  14.485  0.00  0.00    +0.000 A 
ATOM     20  C   UNL     1       7.265   4.885  15.816  0.00  0.00    +0.000 A 
ATOM     21  C   UNL     1       6.183   4.060  16.139  0.00  0.00    +0.000 A 
ATOM     22  C   UNL     1       5.486   3.452  15.083  0.00  0.00    +0.000 A 
ATOM     23  C   UNL     1       5.833   3.697  13.750  0.00  0.00    +0.000 A 
ENDBRANCH   1  21
TORSDOF 1
ENDMDL
