MODEL 1
REMARK VINA RESULT:      -7.3      0.000      0.000
REMARK  Name = 
REMARK  4 active torsions:
REMARK  status: ('A' for Active; 'I' for Inactive)
REMARK    1  A    between atoms: C_2  and  C_15
REMARK    2  A    between atoms: N_3  and  C_4
REMARK    3  A    between atoms: C_4  and  C_5
REMARK    4  A    between atoms: C_5  and  C_6
REMARK                            x       y       z     vdW  Elec       q    Type
REMARK                         _______ _______ _______ _____ _____    ______ ____
ROOT
ATOM      1  C   UNL     1       4.290   6.358  17.838  0.00  0.00    +0.000 C 
ENDROOT
BRANCH   1   2
ATOM      2  C   UNL     1       4.278   5.089  18.636  0.00  0.00    +0.000 A 
ATOM      3  C   UNL     1       5.324   4.192  18.744  0.00  0.00    +0.000 A 
ATOM      4  N   UNL     1       4.925   3.156  19.545  0.00  0.00    +0.000 N 
ATOM      5  C   UNL     1       3.631   3.350  19.965  0.00  0.00    +0.000 A 
ATOM      6  C   UNL     1       2.825   2.548  20.783  0.00  0.00    +0.000 A 
ATOM      7  C   UNL     1       1.530   2.995  21.054  0.00  0.00    +0.000 A 
ATOM      8  C   UNL     1       1.066   4.199  20.528  0.00  0.00    +0.000 A 
ATOM      9  C   UNL     1       1.885   4.988  19.710  0.00  0.00    +0.000 A 
ATOM     10  C   UNL     1       3.197   4.558  19.418  0.00  0.00    +0.000 A 
ATOM     11  H   UNL     1       5.493   2.358  19.793  0.00  0.00    +0.000 HD
ENDBRANCH   1   2
BRANCH   1  12
ATOM     12  C   UNL     1       5.650   6.612  17.182  0.00  0.00    +0.000 C 
BRANCH  12  15
ATOM     13  O   UNL     1       7.670   4.898  16.328  0.00  0.00    +0.000 OA
ATOM     14  C   UNL     1       6.812   5.213  15.505  0.00  0.00    +0.000 C 
ATOM     15  N   UNL     1       5.757   6.030  15.855  0.00  0.00    +0.000 N 
ATOM     16  H   UNL     1       5.047   6.229  15.159  0.00  0.00    +0.000 HD
BRANCH  14  17
ATOM     17  C   UNL     1       6.846   4.736  14.128  0.00  0.00    +0.000 A 
ATOM     18  C   UNL     1       7.717   5.165  13.141  0.00  0.00    +0.000 A 
ATOM     19  C   UNL     1       7.503   4.519  11.892  0.00  0.00    +0.000 A 
ATOM     20  C   UNL     1       6.463   3.617  11.957  0.00  0.00    +0.000 A 
ATOM     21  S   UNL     1       5.767   3.553  13.520  0.00  0.00    +0.000 S 
ENDBRANCH  14  17
ENDBRANCH  12  15
ENDBRANCH   1  12
TORSDOF 4
ENDMDL
MODEL 2
REMARK VINA RESULT:      -7.2      3.251      4.313
REMARK  Name = 
REMARK  4 active torsions:
REMARK  status: ('A' for Active; 'I' for Inactive)
REMARK    1  A    between atoms: C_2  and  C_15
REMARK    2  A    between atoms: N_3  and  C_4
REMARK    3  A    between atoms: C_4  and  C_5
REMARK    4  A    between atoms: C_5  and  C_6
REMARK                            x       y       z     vdW  Elec       q    Type
REMARK                         _______ _______ _______ _____ _____    ______ ____
ROOT
ATOM      1  C   UNL     1       2.516   3.137  17.329  0.00  0.00    +0.000 C 
ENDROOT
BRANCH   1   2
ATOM      2  C   UNL     1       2.120   3.813  18.607  0.00  0.00    +0.000 A 
ATOM      3  C   UNL     1       1.651   3.183  19.743  0.00  0.00    +0.000 A 
ATOM      4  N   UNL     1       1.383   4.135  20.688  0.00  0.00    +0.000 N 
ATOM      5  C   UNL     1       1.663   5.388  20.195  0.00  0.00    +0.000 A 
ATOM      6  C   UNL     1       1.533   6.641  20.805  0.00  0.00    +0.000 A 
ATOM      7  C   UNL     1       1.898   7.765  20.061  0.00  0.00    +0.000 A 
ATOM      8  C   UNL     1       2.376   7.635  18.760  0.00  0.00    +0.000 A 
ATOM      9  C   UNL     1       2.499   6.373  18.163  0.00  0.00    +0.000 A 
ATOM     10  C   UNL     1       2.134   5.221  18.892  0.00  0.00    +0.000 A 
ATOM     11  H   UNL     1       1.027   3.954  21.616  0.00  0.00    +0.000 HD
ENDBRANCH   1   2
BRANCH   1  12
ATOM     12  C   UNL     1       3.989   2.719  17.332  0.00  0.00    +0.000 C 
BRANCH  12  15
ATOM     13  O   UNL     1       5.483   3.685  19.473  0.00  0.00    +0.000 OA
ATOM     14  C   UNL     1       5.579   4.284  18.402  0.00  0.00    +0.000 C 
ATOM     15  N   UNL     1       4.899   3.849  17.283  0.00  0.00    +0.000 N 
ATOM     16  H   UNL     1       5.041   4.344  16.409  0.00  0.00    +0.000 HD
BRANCH  14  17
ATOM     17  C   UNL     1       6.418   5.465  18.246  0.00  0.00    +0.000 A 
ATOM     18  C   UNL     1       6.230   6.479  17.323  0.00  0.00    +0.000 A 
ATOM     19  C   UNL     1       7.218   7.499  17.408  0.00  0.00    +0.000 A 
ATOM     20  C   UNL     1       8.145   7.228  18.392  0.00  0.00    +0.000 A 
ATOM     21  S   UNL     1       7.806   5.760  19.205  0.00  0.00    +0.000 S 
ENDBRANCH  14  17
ENDBRANCH  12  15
ENDBRANCH   1  12
TORSDOF 4
ENDMDL
MODEL 3
REMARK VINA RESULT:      -7.1      1.801      2.309
REMARK  Name = 
REMARK  4 active torsions:
REMARK  status: ('A' for Active; 'I' for Inactive)
REMARK    1  A    between atoms: C_2  and  C_15
REMARK    2  A    between atoms: N_3  and  C_4
REMARK    3  A    between atoms: C_4  and  C_5
REMARK    4  A    between atoms: C_5  and  C_6
REMARK                            x       y       z     vdW  Elec       q    Type
REMARK                         _______ _______ _______ _____ _____    ______ ____
ROOT
ATOM      1  C   UNL     1       5.924   5.810  18.469  0.00  0.00    +0.000 C 
ENDROOT
BRANCH   1   2
ATOM      2  C   UNL     1       4.446   5.615  18.313  0.00  0.00    +0.000 A 
ATOM      3  C   UNL     1       3.509   6.621  18.169  0.00  0.00    +0.000 A 
ATOM      4  N   UNL     1       2.271   6.048  18.070  0.00  0.00    +0.000 N 
ATOM      5  C   UNL     1       2.371   4.679  18.149  0.00  0.00    +0.000 A 
ATOM      6  C   UNL     1       1.368   3.703  18.102  0.00  0.00    +0.000 A 
ATOM      7  C   UNL     1       1.760   2.366  18.206  0.00  0.00    +0.000 A 
ATOM      8  C   UNL     1       3.103   2.025  18.347  0.00  0.00    +0.000 A 
ATOM      9  C   UNL     1       4.094   3.015  18.395  0.00  0.00    +0.000 A 
ATOM     10  C   UNL     1       3.725   4.374  18.295  0.00  0.00    +0.000 A 
ATOM     11  H   UNL     1       1.401   6.551  17.959  0.00  0.00    +0.000 HD
ENDBRANCH   1   2
BRANCH   1  12
ATOM     12  C   UNL     1       6.508   6.698  17.367  0.00  0.00    +0.000 C 
BRANCH  12  15
ATOM     13  O   UNL     1       7.896   4.492  16.390  0.00  0.00    +0.000 OA
ATOM     14  C   UNL     1       7.110   5.048  15.624  0.00  0.00    +0.000 C 
ATOM     15  N   UNL     1       6.357   6.127  16.040  0.00  0.00    +0.000 N 
ATOM     16  H   UNL     1       5.688   6.528  15.392  0.00  0.00    +0.000 HD
BRANCH  14  17
ATOM     17  C   UNL     1       6.916   4.599  14.251  0.00  0.00    +0.000 A 
ATOM     18  C   UNL     1       5.950   3.709  13.817  0.00  0.00    +0.000 A 
ATOM     19  C   UNL     1       6.013   3.459  12.418  0.00  0.00    +0.000 A 
ATOM     20  C   UNL     1       7.038   4.161  11.821  0.00  0.00    +0.000 A 
ATOM     21  S   UNL     1       7.900   5.118  12.949  0.00  0.00    +0.000 S 
ENDBRANCH  14  17
ENDBRANCH  12  15
ENDBRANCH   1  12
TORSDOF 4
ENDMDL
MODEL 4
REMARK VINA RESULT:      -7.1      1.599      1.955
REMARK  Name = 
REMARK  4 active torsions:
REMARK  status: ('A' for Active; 'I' for Inactive)
REMARK    1  A    between atoms: C_2  and  C_15
REMARK    2  A    between atoms: N_3  and  C_4
REMARK    3  A    between atoms: C_4  and  C_5
REMARK    4  A    between atoms: C_5  and  C_6
REMARK                            x       y       z     vdW  Elec       q    Type
REMARK                         _______ _______ _______ _____ _____    ______ ____
ROOT
ATOM      1  C   UNL     1       3.585   7.052  17.495  0.00  0.00    +0.000 C 
ENDROOT
BRANCH   1   2
ATOM      2  C   UNL     1       2.835   6.459  18.650  0.00  0.00    +0.000 A 
ATOM      3  C   UNL     1       2.580   7.086  19.855  0.00  0.00    +0.000 A 
ATOM      4  N   UNL     1       1.886   6.219  20.655  0.00  0.00    +0.000 N 
ATOM      5  C   UNL     1       1.680   5.028  20.001  0.00  0.00    +0.000 A 
ATOM      6  C   UNL     1       1.030   3.867  20.437  0.00  0.00    +0.000 A 
ATOM      7  C   UNL     1       0.965   2.789  19.551  0.00  0.00    +0.000 A 
ATOM      8  C   UNL     1       1.527   2.876  18.280  0.00  0.00    +0.000 A 
ATOM      9  C   UNL     1       2.176   4.045  17.860  0.00  0.00    +0.000 A 
ATOM     10  C   UNL     1       2.258   5.147  18.736  0.00  0.00    +0.000 A 
ATOM     11  H   UNL     1       1.569   6.417  21.594  0.00  0.00    +0.000 HD
ENDBRANCH   1   2
BRANCH   1  12
ATOM     12  C   UNL     1       5.001   6.482  17.376  0.00  0.00    +0.000 C 
BRANCH  12  15
ATOM     13  O   UNL     1       7.482   5.969  16.221  0.00  0.00    +0.000 OA
ATOM     14  C   UNL     1       6.485   5.580  15.613  0.00  0.00    +0.000 C 
ATOM     15  N   UNL     1       5.220   5.763  16.133  0.00  0.00    +0.000 N 
ATOM     16  H   UNL     1       4.429   5.388  15.621  0.00  0.00    +0.000 HD
BRANCH  14  17
ATOM     17  C   UNL     1       6.577   4.898  14.329  0.00  0.00    +0.000 A 
ATOM     18  C   UNL     1       7.539   5.120  13.359  0.00  0.00    +0.000 A 
ATOM     19  C   UNL     1       7.364   4.304  12.206  0.00  0.00    +0.000 A 
ATOM     20  C   UNL     1       6.262   3.484  12.325  0.00  0.00    +0.000 A 
ATOM     21  S   UNL     1       5.462   3.700  13.824  0.00  0.00    +0.000 S 
ENDBRANCH  14  17
ENDBRANCH  12  15
ENDBRANCH   1  12
TORSDOF 4
ENDMDL
MODEL 5
REMARK VINA RESULT:      -7.1      3.259      7.242
REMARK  Name = 
REMARK  4 active torsions:
REMARK  status: ('A' for Active; 'I' for Inactive)
REMARK    1  A    between atoms: C_2  and  C_15
REMARK    2  A    between atoms: N_3  and  C_4
REMARK    3  A    between atoms: C_4  and  C_5
REMARK    4  A    between atoms: C_5  and  C_6
REMARK                            x       y       z     vdW  Elec       q    Type
REMARK                         _______ _______ _______ _____ _____    ______ ____
ROOT
ATOM      1  C   UNL     1       4.650   3.871  16.666  0.00  0.00    +0.000 C 
ENDROOT
BRANCH   1   2
ATOM      2  C   UNL     1       5.785   4.460  15.883  0.00  0.00    +0.000 A 
ATOM      3  C   UNL     1       6.743   5.326  16.374  0.00  0.00    +0.000 A 
ATOM      4  N   UNL     1       7.595   5.652  15.354  0.00  0.00    +0.000 N 
ATOM      5  C   UNL     1       7.216   5.020  14.195  0.00  0.00    +0.000 A 
ATOM      6  C   UNL     1       7.788   5.069  12.918  0.00  0.00    +0.000 A 
ATOM      7  C   UNL     1       7.188   4.312  11.909  0.00  0.00    +0.000 A 
ATOM      8  C   UNL     1       6.061   3.537  12.173  0.00  0.00    +0.000 A 
ATOM      9  C   UNL     1       5.500   3.500  13.456  0.00  0.00    +0.000 A 
ATOM     10  C   UNL     1       6.085   4.257  14.493  0.00  0.00    +0.000 A 
ATOM     11  H   UNL     1       8.390   6.271  15.433  0.00  0.00    +0.000 HD
ENDBRANCH   1   2
BRANCH   1  12
ATOM     12  C   UNL     1       4.558   4.461  18.076  0.00  0.00    +0.000 C 
BRANCH  12  15
ATOM     13  O   UNL     1       2.954   5.365  20.164  0.00  0.00    +0.000 OA
ATOM     14  C   UNL     1       3.058   6.092  19.177  0.00  0.00    +0.000 C 
ATOM     15  N   UNL     1       3.861   5.735  18.113  0.00  0.00    +0.000 N 
ATOM     16  H   UNL     1       3.955   6.383  17.339  0.00  0.00    +0.000 HD
BRANCH  14  17
ATOM     17  C   UNL     1       2.361   7.368  19.076  0.00  0.00    +0.000 A 
ATOM     18  C   UNL     1       2.260   8.151  17.939  0.00  0.00    +0.000 A 
ATOM     19  C   UNL     1       1.520   9.347  18.152  0.00  0.00    +0.000 A 
ATOM     20  C   UNL     1       1.083   9.450  19.456  0.00  0.00    +0.000 A 
ATOM     21  S   UNL     1       1.559   8.102  20.399  0.00  0.00    +0.000 S 
ENDBRANCH  14  17
ENDBRANCH  12  15
ENDBRANCH   1  12
TORSDOF 4
ENDMDL
MODEL 6
REMARK VINA RESULT:      -7.0      5.639      7.547
REMARK  Name = 
REMARK  4 active torsions:
REMARK  status: ('A' for Active; 'I' for Inactive)
REMARK    1  A    between atoms: C_2  and  C_15
REMARK    2  A    between atoms: N_3  and  C_4
REMARK    3  A    between atoms: C_4  and  C_5
REMARK    4  A    between atoms: C_5  and  C_6
REMARK                            x       y       z     vdW  Elec       q    Type
REMARK                         _______ _______ _______ _____ _____    ______ ____
ROOT
ATOM      1  C   UNL     1       2.652   7.692  17.677  0.00  0.00    +0.000 C 
ENDROOT
BRANCH   1   2
ATOM      2  C   UNL     1       2.281   6.847  18.858  0.00  0.00    +0.000 A 
ATOM      3  C   UNL     1       2.214   7.275  20.170  0.00  0.00    +0.000 A 
ATOM      4  N   UNL     1       1.858   6.213  20.955  0.00  0.00    +0.000 N 
ATOM      5  C   UNL     1       1.693   5.086  20.186  0.00  0.00    +0.000 A 
ATOM      6  C   UNL     1       1.342   3.784  20.566  0.00  0.00    +0.000 A 
ATOM      7  C   UNL     1       1.242   2.821  19.560  0.00  0.00    +0.000 A 
ATOM      8  C   UNL     1       1.482   3.151  18.228  0.00  0.00    +0.000 A 
ATOM      9  C   UNL     1       1.834   4.458  17.865  0.00  0.00    +0.000 A 
ATOM     10  C   UNL     1       1.944   5.451  18.862  0.00  0.00    +0.000 A 
ATOM     11  H   UNL     1       1.737   6.242  21.958  0.00  0.00    +0.000 HD
ENDBRANCH   1   2
BRANCH   1  12
ATOM     12  C   UNL     1       2.335   9.173  17.908  0.00  0.00    +0.000 C 
BRANCH  12  15
ATOM     13  O   UNL     1       0.763  10.881  19.444  0.00  0.00    +0.000 OA
ATOM     14  C   UNL     1       0.228  10.336  18.479  0.00  0.00    +0.000 C 
ATOM     15  N   UNL     1       0.945   9.502  17.646  0.00  0.00    +0.000 N 
ATOM     16  H   UNL     1       0.479   9.110  16.836  0.00  0.00    +0.000 HD
BRANCH  14  17
ATOM     17  C   UNL     1      -1.176  10.547  18.150  0.00  0.00    +0.000 A 
ATOM     18  C   UNL     1      -1.888   9.882  17.167  0.00  0.00    +0.000 A 
ATOM     19  C   UNL     1      -3.242  10.309  17.076  0.00  0.00    +0.000 A 
ATOM     20  C   UNL     1      -3.525  11.301  17.991  0.00  0.00    +0.000 A 
ATOM     21  S   UNL     1      -2.162  11.695  18.951  0.00  0.00    +0.000 S 
ENDBRANCH  14  17
ENDBRANCH  12  15
ENDBRANCH   1  12
TORSDOF 4
ENDMDL
MODEL 7
REMARK VINA RESULT:      -7.0      1.266      1.430
REMARK  Name = 
REMARK  4 active torsions:
REMARK  status: ('A' for Active; 'I' for Inactive)
REMARK    1  A    between atoms: C_2  and  C_15
REMARK    2  A    between atoms: N_3  and  C_4
REMARK    3  A    between atoms: C_4  and  C_5
REMARK    4  A    between atoms: C_5  and  C_6
REMARK                            x       y       z     vdW  Elec       q    Type
REMARK                         _______ _______ _______ _____ _____    ______ ____
ROOT
ATOM      1  C   UNL     1       4.163   6.559  18.037  0.00  0.00    +0.000 C 
ENDROOT
BRANCH   1   2
ATOM      2  C   UNL     1       4.201   5.139  18.518  0.00  0.00    +0.000 A 
ATOM      3  C   UNL     1       5.318   4.473  18.984  0.00  0.00    +0.000 A 
ATOM      4  N   UNL     1       4.954   3.196  19.313  0.00  0.00    +0.000 N 
ATOM      5  C   UNL     1       3.616   3.003  19.068  0.00  0.00    +0.000 A 
ATOM      6  C   UNL     1       2.827   1.860  19.249  0.00  0.00    +0.000 A 
ATOM      7  C   UNL     1       1.473   1.948  18.915  0.00  0.00    +0.000 A 
ATOM      8  C   UNL     1       0.935   3.135  18.424  0.00  0.00    +0.000 A 
ATOM      9  C   UNL     1       1.739   4.269  18.248  0.00  0.00    +0.000 A 
ATOM     10  C   UNL     1       3.110   4.207  18.575  0.00  0.00    +0.000 A 
ATOM     11  H   UNL     1       5.575   2.488  19.680  0.00  0.00    +0.000 HD
ENDBRANCH   1   2
BRANCH   1  12
ATOM     12  C   UNL     1       5.341   6.885  17.114  0.00  0.00    +0.000 C 
BRANCH  12  15
ATOM     13  O   UNL     1       7.657   5.939  15.893  0.00  0.00    +0.000 OA
ATOM     14  C   UNL     1       6.582   5.641  15.372  0.00  0.00    +0.000 C 
ATOM     15  N   UNL     1       5.387   6.040  15.934  0.00  0.00    +0.000 N 
ATOM     16  H   UNL     1       4.523   5.735  15.499  0.00  0.00    +0.000 HD
BRANCH  14  17
ATOM     17  C   UNL     1       6.505   4.846  14.154  0.00  0.00    +0.000 A 
ATOM     18  C   UNL     1       5.489   3.967  13.821  0.00  0.00    +0.000 A 
ATOM     19  C   UNL     1       5.696   3.329  12.566  0.00  0.00    +0.000 A 
ATOM     20  C   UNL     1       6.875   3.732  11.978  0.00  0.00    +0.000 A 
ATOM     21  S   UNL     1       7.710   4.880  12.937  0.00  0.00    +0.000 S 
ENDBRANCH  14  17
ENDBRANCH  12  15
ENDBRANCH   1  12
TORSDOF 4
ENDMDL
MODEL 8
REMARK VINA RESULT:      -6.9      2.985      4.249
REMARK  Name = 
REMARK  4 active torsions:
REMARK  status: ('A' for Active; 'I' for Inactive)
REMARK    1  A    between atoms: C_2  and  C_15
REMARK    2  A    between atoms: N_3  and  C_4
REMARK    3  A    between atoms: C_4  and  C_5
REMARK    4  A    between atoms: C_5  and  C_6
REMARK                            x       y       z     vdW  Elec       q    Type
REMARK                         _______ _______ _______ _____ _____    ______ ____
ROOT
ATOM      1  C   UNL     1       2.309   2.623  17.781  0.00  0.00    +0.000 C 
ENDROOT
BRANCH   1   2
ATOM      2  C   UNL     1       2.013   3.479  18.977  0.00  0.00    +0.000 A 
ATOM      3  C   UNL     1       1.597   3.023  20.213  0.00  0.00    +0.000 A 
ATOM      4  N   UNL     1       1.418   4.103  21.034  0.00  0.00    +0.000 N 
ATOM      5  C   UNL     1       1.705   5.266  20.361  0.00  0.00    +0.000 A 
ATOM      6  C   UNL     1       1.653   6.594  20.803  0.00  0.00    +0.000 A 
ATOM      7  C   UNL     1       2.006   7.594  19.895  0.00  0.00    +0.000 A 
ATOM      8  C   UNL     1       2.398   7.273  18.598  0.00  0.00    +0.000 A 
ATOM      9  C   UNL     1       2.444   5.939  18.171  0.00  0.00    +0.000 A 
ATOM     10  C   UNL     1       2.089   4.909  19.068  0.00  0.00    +0.000 A 
ATOM     11  H   UNL     1       1.114   4.060  21.997  0.00  0.00    +0.000 HD
ENDBRANCH   1   2
BRANCH   1  12
ATOM     12  C   UNL     1       3.773   2.177  17.741  0.00  0.00    +0.000 C 
BRANCH  12  15
ATOM     13  O   UNL     1       4.822   4.039  15.956  0.00  0.00    +0.000 OA
ATOM     14  C   UNL     1       5.197   4.105  17.126  0.00  0.00    +0.000 C 
ATOM     15  N   UNL     1       4.700   3.243  18.081  0.00  0.00    +0.000 N 
ATOM     16  H   UNL     1       5.000   3.361  19.042  0.00  0.00    +0.000 HD
BRANCH  14  17
ATOM     17  C   UNL     1       6.166   5.097  17.575  0.00  0.00    +0.000 A 
ATOM     18  C   UNL     1       7.053   4.947  18.626  0.00  0.00    +0.000 A 
ATOM     19  C   UNL     1       7.873   6.092  18.829  0.00  0.00    +0.000 A 
ATOM     20  C   UNL     1       7.580   7.094  17.928  0.00  0.00    +0.000 A 
ATOM     21  S   UNL     1       6.333   6.638  16.847  0.00  0.00    +0.000 S 
ENDBRANCH  14  17
ENDBRANCH  12  15
ENDBRANCH   1  12
TORSDOF 4
ENDMDL
MODEL 9
REMARK VINA RESULT:      -6.9      4.872      6.433
REMARK  Name = 
REMARK  4 active torsions:
REMARK  status: ('A' for Active; 'I' for Inactive)
REMARK    1  A    between atoms: C_2  and  C_15
REMARK    2  A    between atoms: N_3  and  C_4
REMARK    3  A    between atoms: C_4  and  C_5
REMARK    4  A    between atoms: C_5  and  C_6
REMARK                            x       y       z     vdW  Elec       q    Type
REMARK                         _______ _______ _______ _____ _____    ______ ____
ROOT
ATOM      1  C   UNL     1       7.745   6.255  18.730  0.00  0.00    +0.000 C 
ENDROOT
BRANCH   1   2
ATOM      2  C   UNL     1       6.858   5.315  17.972  0.00  0.00    +0.000 A 
ATOM      3  C   UNL     1       7.248   4.506  16.921  0.00  0.00    +0.000 A 
ATOM      4  N   UNL     1       6.155   3.808  16.483  0.00  0.00    +0.000 N 
ATOM      5  C   UNL     1       5.047   4.143  17.224  0.00  0.00    +0.000 A 
ATOM      6  C   UNL     1       3.728   3.685  17.121  0.00  0.00    +0.000 A 
ATOM      7  C   UNL     1       2.791   4.202  18.019  0.00  0.00    +0.000 A 
ATOM      8  C   UNL     1       3.164   5.137  18.981  0.00  0.00    +0.000 A 
ATOM      9  C   UNL     1       4.489   5.587  19.069  0.00  0.00    +0.000 A 
ATOM     10  C   UNL     1       5.455   5.083  18.172  0.00  0.00    +0.000 A 
ATOM     11  H   UNL     1       6.153   3.143  15.723  0.00  0.00    +0.000 HD
ENDBRANCH   1   2
BRANCH   1  12
ATOM     12  C   UNL     1       7.923   7.591  18.002  0.00  0.00    +0.000 C 
BRANCH  12  15
ATOM     13  O   UNL     1       7.992  10.336  17.549  0.00  0.00    +0.000 OA
ATOM     14  C   UNL     1       8.703   9.895  18.451  0.00  0.00    +0.000 C 
ATOM     15  N   UNL     1       8.702   8.551  18.764  0.00  0.00    +0.000 N 
ATOM     16  H   UNL     1       9.269   8.236  19.543  0.00  0.00    +0.000 HD
BRANCH  14  17
ATOM     17  C   UNL     1       9.570  10.756  19.246  0.00  0.00    +0.000 A 
ATOM     18  C   UNL     1       9.381  11.094  20.574  0.00  0.00    +0.000 A 
ATOM     19  C   UNL     1      10.393  11.959  21.077  0.00  0.00    +0.000 A 
ATOM     20  C   UNL     1      11.326  12.266  20.110  0.00  0.00    +0.000 A 
ATOM     21  S   UNL     1      10.978  11.502  18.618  0.00  0.00    +0.000 S 
ENDBRANCH  14  17
ENDBRANCH  12  15
ENDBRANCH   1  12
TORSDOF 4
ENDMDL
