MODEL 1
REMARK VINA RESULT:      -7.7      0.000      0.000
REMARK  Name = 
REMARK  7 active torsions:
REMARK  status: ('A' for Active; 'I' for Inactive)
REMARK    1  A    between atoms: C_1  and  C_2
REMARK    2  A    between atoms: C_7  and  C_8
REMARK    3  A    between atoms: C_7  and  C_9
REMARK    4  A    between atoms: C_13  and  C_14
REMARK    5  A    between atoms: C_15  and  C_16
REMARK    6  A    between atoms: C_17  and  C_18
REMARK    7  A    between atoms: C_18  and  O_20
REMARK                            x       y       z     vdW  Elec       q    Type
REMARK                         _______ _______ _______ _____ _____    ______ ____
ROOT
ATOM      1  C   UNL     1       5.198   6.713  15.520  0.00  0.00    +0.000 C 
ATOM      2  C   UNL     1       5.860   5.803  16.551  0.00  0.00    +0.000 C 
ATOM      3  C   UNL     1       6.219   6.033  17.845  0.00  0.00    +0.000 C 
ATOM      4  C   UNL     1       5.768   4.954  18.935  0.00  0.00    +0.000 C 
ATOM      5  O   UNL     1       6.250   5.021  20.063  0.00  0.00    +0.000 OA
ATOM      6  C   UNL     1       4.786   3.782  18.515  0.00  0.00    +0.000 C 
ATOM      7  C   UNL     1       3.863   3.062  19.578  0.00  0.00    +0.000 C 
ATOM      8  C   UNL     1       3.311   3.998  20.673  0.00  0.00    +0.000 C 
ATOM      9  C   UNL     1       4.656   1.938  20.319  0.00  0.00    +0.000 C 
ATOM     10  C   UNL     1       2.716   2.277  18.868  0.00  0.00    +0.000 C 
ATOM     11  C   UNL     1       2.027   3.033  17.752  0.00  0.00    +0.000 C 
ATOM     12  C   UNL     1       3.057   3.299  16.630  0.00  0.00    +0.000 C 
ATOM     13  C   UNL     1       4.146   4.247  17.140  0.00  0.00    +0.000 C 
ATOM     14  C   UNL     1       3.308   5.597  17.481  0.00  0.00    +0.000 C 
ATOM     15  C   UNL     1       5.552   4.384  16.245  0.00  0.00    +0.000 C 
ENDROOT
BRANCH  15  16
ATOM     16  C   UNL     1       6.359   4.144  14.962  0.00  0.00    +0.000 C 
ATOM     17  C   UNL     1       5.667   3.997  13.789  0.00  0.00    +0.000 C 
BRANCH  17  18
ATOM     18  C   UNL     1       6.197   3.453  12.529  0.00  0.00    +0.000 C 
ATOM     19  O   UNL     1       7.027   3.999  11.862  0.00  0.00    +0.000 OA
BRANCH  18  20
ATOM     20  O   UNL     1       5.701   2.232  12.238  0.00  0.00    +0.000 OA
ATOM     21  H   UNL     1       5.940   1.776  11.405  0.00  0.00    +0.000 HD
ENDBRANCH  18  20
ENDBRANCH  17  18
ENDBRANCH  15  16
TORSDOF 3
ENDMDL
MODEL 2
REMARK VINA RESULT:      -7.6      0.929      1.297
REMARK  Name = 
REMARK  7 active torsions:
REMARK  status: ('A' for Active; 'I' for Inactive)
REMARK    1  A    between atoms: C_1  and  C_2
REMARK    2  A    between atoms: C_7  and  C_8
REMARK    3  A    between atoms: C_7  and  C_9
REMARK    4  A    between atoms: C_13  and  C_14
REMARK    5  A    between atoms: C_15  and  C_16
REMARK    6  A    between atoms: C_17  and  C_18
REMARK    7  A    between atoms: C_18  and  O_20
REMARK                            x       y       z     vdW  Elec       q    Type
REMARK                         _______ _______ _______ _____ _____    ______ ____
ROOT
ATOM      1  C   UNL     1       4.793   7.009  15.732  0.00  0.00    +0.000 C 
ATOM      2  C   UNL     1       5.501   5.952  16.574  0.00  0.00    +0.000 C 
ATOM      3  C   UNL     1       6.069   6.027  17.810  0.00  0.00    +0.000 C 
ATOM      4  C   UNL     1       5.672   4.899  18.872  0.00  0.00    +0.000 C 
ATOM      5  O   UNL     1       6.319   4.818  19.912  0.00  0.00    +0.000 OA
ATOM      6  C   UNL     1       4.521   3.867  18.521  0.00  0.00    +0.000 C 
ATOM      7  C   UNL     1       3.694   3.141  19.656  0.00  0.00    +0.000 C 
ATOM      8  C   UNL     1       3.411   4.019  20.893  0.00  0.00    +0.000 C 
ATOM      9  C   UNL     1       4.464   1.885  20.176  0.00  0.00    +0.000 C 
ATOM     10  C   UNL     1       2.379   2.534  19.076  0.00  0.00    +0.000 C 
ATOM     11  C   UNL     1       1.616   3.449  18.142  0.00  0.00    +0.000 C 
ATOM     12  C   UNL     1       2.491   3.721  16.897  0.00  0.00    +0.000 C 
ATOM     13  C   UNL     1       3.738   4.513  17.303  0.00  0.00    +0.000 C 
ATOM     14  C   UNL     1       3.106   5.898  17.872  0.00  0.00    +0.000 C 
ATOM     15  C   UNL     1       5.003   4.601  16.212  0.00  0.00    +0.000 C 
ENDROOT
BRANCH  15  16
ATOM     16  C   UNL     1       5.581   4.406  14.805  0.00  0.00    +0.000 C 
ATOM     17  C   UNL     1       6.902   4.711  14.608  0.00  0.00    +0.000 C 
BRANCH  17  18
ATOM     18  C   UNL     1       7.566   4.904  13.309  0.00  0.00    +0.000 C 
ATOM     19  O   UNL     1       7.249   4.335  12.305  0.00  0.00    +0.000 OA
BRANCH  18  20
ATOM     20  O   UNL     1       8.529   5.849  13.350  0.00  0.00    +0.000 OA
ATOM     21  H   UNL     1       8.725   6.404  12.568  0.00  0.00    +0.000 HD
ENDBRANCH  18  20
ENDBRANCH  17  18
ENDBRANCH  15  16
TORSDOF 3
ENDMDL
MODEL 3
REMARK VINA RESULT:      -7.4      3.159      5.853
REMARK  Name = 
REMARK  7 active torsions:
REMARK  status: ('A' for Active; 'I' for Inactive)
REMARK    1  A    between atoms: C_1  and  C_2
REMARK    2  A    between atoms: C_7  and  C_8
REMARK    3  A    between atoms: C_7  and  C_9
REMARK    4  A    between atoms: C_13  and  C_14
REMARK    5  A    between atoms: C_15  and  C_16
REMARK    6  A    between atoms: C_17  and  C_18
REMARK    7  A    between atoms: C_18  and  O_20
REMARK                            x       y       z     vdW  Elec       q    Type
REMARK                         _______ _______ _______ _____ _____    ______ ____
ROOT
ATOM      1  C   UNL     1       1.636   4.635  17.756  0.00  0.00    +0.000 C 
ATOM      2  C   UNL     1       2.740   5.183  18.655  0.00  0.00    +0.000 C 
ATOM      3  C   UNL     1       3.602   4.550  19.499  0.00  0.00    +0.000 C 
ATOM      4  C   UNL     1       5.153   4.919  19.378  0.00  0.00    +0.000 C 
ATOM      5  O   UNL     1       5.919   4.529  20.255  0.00  0.00    +0.000 OA
ATOM      6  C   UNL     1       5.645   5.845  18.189  0.00  0.00    +0.000 C 
ATOM      7  C   UNL     1       7.135   5.785  17.664  0.00  0.00    +0.000 C 
ATOM      8  C   UNL     1       7.752   4.371  17.671  0.00  0.00    +0.000 C 
ATOM      9  C   UNL     1       8.064   6.675  18.550  0.00  0.00    +0.000 C 
ATOM     10  C   UNL     1       7.249   6.447  16.256  0.00  0.00    +0.000 C 
ATOM     11  C   UNL     1       6.155   6.060  15.282  0.00  0.00    +0.000 C 
ATOM     12  C   UNL     1       4.804   6.569  15.835  0.00  0.00    +0.000 C 
ATOM     13  C   UNL     1       4.463   5.831  17.133  0.00  0.00    +0.000 C 
ATOM     14  C   UNL     1       4.336   4.287  16.637  0.00  0.00    +0.000 C 
ATOM     15  C   UNL     1       3.254   6.461  18.102  0.00  0.00    +0.000 C 
ENDROOT
BRANCH  15  16
ATOM     16  C   UNL     1       2.076   7.415  18.333  0.00  0.00    +0.000 C 
ATOM     17  C   UNL     1       2.126   8.650  17.742  0.00  0.00    +0.000 C 
BRANCH  17  18
ATOM     18  C   UNL     1       1.287   9.810  18.079  0.00  0.00    +0.000 C 
ATOM     19  O   UNL     1       0.212   9.730  18.598  0.00  0.00    +0.000 OA
BRANCH  18  20
ATOM     20  O   UNL     1       1.890  10.987  17.806  0.00  0.00    +0.000 OA
ATOM     21  H   UNL     1       2.045  11.272  16.882  0.00  0.00    +0.000 HD
ENDBRANCH  18  20
ENDBRANCH  17  18
ENDBRANCH  15  16
TORSDOF 3
ENDMDL
MODEL 4
REMARK VINA RESULT:      -7.3      3.183      3.941
REMARK  Name = 
REMARK  7 active torsions:
REMARK  status: ('A' for Active; 'I' for Inactive)
REMARK    1  A    between atoms: C_1  and  C_2
REMARK    2  A    between atoms: C_7  and  C_8
REMARK    3  A    between atoms: C_7  and  C_9
REMARK    4  A    between atoms: C_13  and  C_14
REMARK    5  A    between atoms: C_15  and  C_16
REMARK    6  A    between atoms: C_17  and  C_18
REMARK    7  A    between atoms: C_18  and  O_20
REMARK                            x       y       z     vdW  Elec       q    Type
REMARK                         _______ _______ _______ _____ _____    ______ ____
ROOT
ATOM      1  C   UNL     1       2.464   7.549  17.242  0.00  0.00    +0.000 C 
ATOM      2  C   UNL     1       3.024   6.926  18.518  0.00  0.00    +0.000 C 
ATOM      3  C   UNL     1       2.463   6.751  19.747  0.00  0.00    +0.000 C 
ATOM      4  C   UNL     1       2.575   5.297  20.404  0.00  0.00    +0.000 C 
ATOM      5  O   UNL     1       2.270   5.163  21.586  0.00  0.00    +0.000 OA
ATOM      6  C   UNL     1       3.154   4.095  19.548  0.00  0.00    +0.000 C 
ATOM      7  C   UNL     1       2.775   2.596  19.876  0.00  0.00    +0.000 C 
ATOM      8  C   UNL     1       1.320   2.400  20.351  0.00  0.00    +0.000 C 
ATOM      9  C   UNL     1       3.687   2.036  21.014  0.00  0.00    +0.000 C 
ATOM     10  C   UNL     1       3.107   1.667  18.667  0.00  0.00    +0.000 C 
ATOM     11  C   UNL     1       2.687   2.209  17.317  0.00  0.00    +0.000 C 
ATOM     12  C   UNL     1       3.486   3.502  17.036  0.00  0.00    +0.000 C 
ATOM     13  C   UNL     1       3.089   4.586  18.042  0.00  0.00    +0.000 C 
ATOM     14  C   UNL     1       1.511   4.806  17.720  0.00  0.00    +0.000 C 
ATOM     15  C   UNL     1       4.072   5.933  18.177  0.00  0.00    +0.000 C 
ENDROOT
BRANCH  15  16
ATOM     16  C   UNL     1       5.212   6.823  17.664  0.00  0.00    +0.000 C 
ATOM     17  C   UNL     1       6.495   6.471  17.989  0.00  0.00    +0.000 C 
BRANCH  17  18
ATOM     18  C   UNL     1       7.686   7.328  17.882  0.00  0.00    +0.000 C 
ATOM     19  O   UNL     1       7.870   8.110  16.995  0.00  0.00    +0.000 OA
BRANCH  18  20
ATOM     20  O   UNL     1       8.521   7.194  18.935  0.00  0.00    +0.000 OA
ATOM     21  H   UNL     1       8.200   6.848  19.792  0.00  0.00    +0.000 HD
ENDBRANCH  18  20
ENDBRANCH  17  18
ENDBRANCH  15  16
TORSDOF 3
ENDMDL
MODEL 5
REMARK VINA RESULT:      -7.2      3.311      5.470
REMARK  Name = 
REMARK  7 active torsions:
REMARK  status: ('A' for Active; 'I' for Inactive)
REMARK    1  A    between atoms: C_1  and  C_2
REMARK    2  A    between atoms: C_7  and  C_8
REMARK    3  A    between atoms: C_7  and  C_9
REMARK    4  A    between atoms: C_13  and  C_14
REMARK    5  A    between atoms: C_15  and  C_16
REMARK    6  A    between atoms: C_17  and  C_18
REMARK    7  A    between atoms: C_18  and  O_20
REMARK                            x       y       z     vdW  Elec       q    Type
REMARK                         _______ _______ _______ _____ _____    ______ ____
ROOT
ATOM      1  C   UNL     1       5.440   6.875  17.912  0.00  0.00    +0.000 C 
ATOM      2  C   UNL     1       4.242   6.122  17.340  0.00  0.00    +0.000 C 
ATOM      3  C   UNL     1       4.169   4.943  16.663  0.00  0.00    +0.000 C 
ATOM      4  C   UNL     1       3.093   3.872  17.166  0.00  0.00    +0.000 C 
ATOM      5  O   UNL     1       2.858   2.898  16.457  0.00  0.00    +0.000 OA
ATOM      6  C   UNL     1       2.299   4.136  18.513  0.00  0.00    +0.000 C 
ATOM      7  C   UNL     1       1.693   2.945  19.357  0.00  0.00    +0.000 C 
ATOM      8  C   UNL     1       2.563   1.670  19.366  0.00  0.00    +0.000 C 
ATOM      9  C   UNL     1       0.301   2.523  18.787  0.00  0.00    +0.000 C 
ATOM     10  C   UNL     1       1.356   3.413  20.806  0.00  0.00    +0.000 C 
ATOM     11  C   UNL     1       2.427   4.254  21.467  0.00  0.00    +0.000 C 
ATOM     12  C   UNL     1       2.581   5.569  20.668  0.00  0.00    +0.000 C 
ATOM     13  C   UNL     1       3.120   5.264  19.267  0.00  0.00    +0.000 C 
ATOM     14  C   UNL     1       4.575   4.611  19.583  0.00  0.00    +0.000 C 
ATOM     15  C   UNL     1       3.018   6.465  18.106  0.00  0.00    +0.000 C 
ENDROOT
BRANCH  15  16
ATOM     16  C   UNL     1       2.773   7.923  17.697  0.00  0.00    +0.000 C 
ATOM     17  C   UNL     1       1.902   8.662  18.452  0.00  0.00    +0.000 C 
BRANCH  17  18
ATOM     18  C   UNL     1       1.287   9.942  18.068  0.00  0.00    +0.000 C 
ATOM     19  O   UNL     1       0.171  10.261  18.356  0.00  0.00    +0.000 OA
BRANCH  18  20
ATOM     20  O   UNL     1       2.144  10.757  17.416  0.00  0.00    +0.000 OA
ATOM     21  H   UNL     1       2.627  11.464  17.890  0.00  0.00    +0.000 HD
ENDBRANCH  18  20
ENDBRANCH  17  18
ENDBRANCH  15  16
TORSDOF 3
ENDMDL
MODEL 6
REMARK VINA RESULT:      -7.2      3.144      6.537
REMARK  Name = 
REMARK  7 active torsions:
REMARK  status: ('A' for Active; 'I' for Inactive)
REMARK    1  A    between atoms: C_1  and  C_2
REMARK    2  A    between atoms: C_7  and  C_8
REMARK    3  A    between atoms: C_7  and  C_9
REMARK    4  A    between atoms: C_13  and  C_14
REMARK    5  A    between atoms: C_15  and  C_16
REMARK    6  A    between atoms: C_17  and  C_18
REMARK    7  A    between atoms: C_18  and  O_20
REMARK                            x       y       z     vdW  Elec       q    Type
REMARK                         _______ _______ _______ _____ _____    ______ ____
ROOT
ATOM      1  C   UNL     1       1.099   4.249  18.734  0.00  0.00    +0.000 C 
ATOM      2  C   UNL     1       2.393   4.327  19.539  0.00  0.00    +0.000 C 
ATOM      3  C   UNL     1       3.368   3.400  19.755  0.00  0.00    +0.000 C 
ATOM      4  C   UNL     1       4.882   3.859  19.521  0.00  0.00    +0.000 C 
ATOM      5  O   UNL     1       5.785   3.121  19.906  0.00  0.00    +0.000 OA
ATOM      6  C   UNL     1       5.178   5.280  18.884  0.00  0.00    +0.000 C 
ATOM      7  C   UNL     1       6.525   5.568  18.108  0.00  0.00    +0.000 C 
ATOM      8  C   UNL     1       7.045   4.375  17.279  0.00  0.00    +0.000 C 
ATOM      9  C   UNL     1       7.666   5.938  19.108  0.00  0.00    +0.000 C 
ATOM     10  C   UNL     1       6.391   6.853  17.233  0.00  0.00    +0.000 C 
ATOM     11  C   UNL     1       5.102   6.952  16.444  0.00  0.00    +0.000 C 
ATOM     12  C   UNL     1       3.923   7.045  17.440  0.00  0.00    +0.000 C 
ATOM     13  C   UNL     1       3.808   5.739  18.231  0.00  0.00    +0.000 C 
ATOM     14  C   UNL     1       3.491   4.649  17.067  0.00  0.00    +0.000 C 
ATOM     15  C   UNL     1       2.860   5.734  19.609  0.00  0.00    +0.000 C 
ENDROOT
BRANCH  15  16
ATOM     16  C   UNL     1       1.812   6.382  20.523  0.00  0.00    +0.000 C 
ATOM     17  C   UNL     1       1.712   7.748  20.514  0.00  0.00    +0.000 C 
BRANCH  17  18
ATOM     18  C   UNL     1       1.022   8.576  21.515  0.00  0.00    +0.000 C 
ATOM     19  O   UNL     1      -0.161   8.752  21.537  0.00  0.00    +0.000 OA
BRANCH  18  20
ATOM     20  O   UNL     1       1.859   9.061  22.457  0.00  0.00    +0.000 OA
ATOM     21  H   UNL     1       2.071   8.541  23.259  0.00  0.00    +0.000 HD
ENDBRANCH  18  20
ENDBRANCH  17  18
ENDBRANCH  15  16
TORSDOF 3
ENDMDL
MODEL 7
REMARK VINA RESULT:      -7.1      3.543      4.281
REMARK  Name = 
REMARK  7 active torsions:
REMARK  status: ('A' for Active; 'I' for Inactive)
REMARK    1  A    between atoms: C_1  and  C_2
REMARK    2  A    between atoms: C_7  and  C_8
REMARK    3  A    between atoms: C_7  and  C_9
REMARK    4  A    between atoms: C_13  and  C_14
REMARK    5  A    between atoms: C_15  and  C_16
REMARK    6  A    between atoms: C_17  and  C_18
REMARK    7  A    between atoms: C_18  and  O_20
REMARK                            x       y       z     vdW  Elec       q    Type
REMARK                         _______ _______ _______ _____ _____    ______ ____
ROOT
ATOM      1  C   UNL     1       3.633   7.059  16.814  0.00  0.00    +0.000 C 
ATOM      2  C   UNL     1       3.559   6.686  18.292  0.00  0.00    +0.000 C 
ATOM      3  C   UNL     1       2.607   6.945  19.232  0.00  0.00    +0.000 C 
ATOM      4  C   UNL     1       2.096   5.716  20.118  0.00  0.00    +0.000 C 
ATOM      5  O   UNL     1       1.403   5.952  21.104  0.00  0.00    +0.000 OA
ATOM      6  C   UNL     1       2.565   4.245  19.758  0.00  0.00    +0.000 C 
ATOM      7  C   UNL     1       1.702   2.984  20.167  0.00  0.00    +0.000 C 
ATOM      8  C   UNL     1       0.178   3.208  20.088  0.00  0.00    +0.000 C 
ATOM      9  C   UNL     1       2.009   2.567  21.641  0.00  0.00    +0.000 C 
ATOM     10  C   UNL     1       2.137   1.731  19.346  0.00  0.00    +0.000 C 
ATOM     11  C   UNL     1       2.339   1.980  17.867  0.00  0.00    +0.000 C 
ATOM     12  C   UNL     1       3.510   2.974  17.692  0.00  0.00    +0.000 C 
ATOM     13  C   UNL     1       3.125   4.336  18.278  0.00  0.00    +0.000 C 
ATOM     14  C   UNL     1       1.860   4.773  17.355  0.00  0.00    +0.000 C 
ATOM     15  C   UNL     1       4.344   5.451  18.542  0.00  0.00    +0.000 C 
ENDROOT
BRANCH  15  16
ATOM     16  C   UNL     1       5.786   5.938  18.351  0.00  0.00    +0.000 C 
ATOM     17  C   UNL     1       6.748   5.433  19.186  0.00  0.00    +0.000 C 
BRANCH  17  18
ATOM     18  C   UNL     1       8.097   5.982  19.391  0.00  0.00    +0.000 C 
ATOM     19  O   UNL     1       8.488   6.999  18.897  0.00  0.00    +0.000 OA
BRANCH  18  20
ATOM     20  O   UNL     1       8.831   5.253  20.258  0.00  0.00    +0.000 OA
ATOM     21  H   UNL     1       8.588   4.329  20.473  0.00  0.00    +0.000 HD
ENDBRANCH  18  20
ENDBRANCH  17  18
ENDBRANCH  15  16
TORSDOF 3
ENDMDL
MODEL 8
REMARK VINA RESULT:      -6.9      7.839     10.228
REMARK  Name = 
REMARK  7 active torsions:
REMARK  status: ('A' for Active; 'I' for Inactive)
REMARK    1  A    between atoms: C_1  and  C_2
REMARK    2  A    between atoms: C_7  and  C_8
REMARK    3  A    between atoms: C_7  and  C_9
REMARK    4  A    between atoms: C_13  and  C_14
REMARK    5  A    between atoms: C_15  and  C_16
REMARK    6  A    between atoms: C_17  and  C_18
REMARK    7  A    between atoms: C_18  and  O_20
REMARK                            x       y       z     vdW  Elec       q    Type
REMARK                         _______ _______ _______ _____ _____    ______ ____
ROOT
ATOM      1  C   UNL     1      11.579  12.089  17.694  0.00  0.00    +0.000 C 
ATOM      2  C   UNL     1      10.823  12.126  19.020  0.00  0.00    +0.000 C 
ATOM      3  C   UNL     1      11.064  12.823  20.166  0.00  0.00    +0.000 C 
ATOM      4  C   UNL     1       9.839  13.625  20.808  0.00  0.00    +0.000 C 
ATOM      5  O   UNL     1       9.967  14.085  21.940  0.00  0.00    +0.000 OA
ATOM      6  C   UNL     1       8.472  13.732  20.013  0.00  0.00    +0.000 C 
ATOM      7  C   UNL     1       7.465  14.924  20.266  0.00  0.00    +0.000 C 
ATOM      8  C   UNL     1       8.147  16.279  20.550  0.00  0.00    +0.000 C 
ATOM      9  C   UNL     1       6.557  14.622  21.501  0.00  0.00    +0.000 C 
ATOM     10  C   UNL     1       6.442  15.038  19.094  0.00  0.00    +0.000 C 
ATOM     11  C   UNL     1       7.047  14.925  17.710  0.00  0.00    +0.000 C 
ATOM     12  C   UNL     1       7.650  13.510  17.553  0.00  0.00    +0.000 C 
ATOM     13  C   UNL     1       8.826  13.338  18.519  0.00  0.00    +0.000 C 
ATOM     14  C   UNL     1       9.874  14.469  18.003  0.00  0.00    +0.000 C 
ATOM     15  C   UNL     1       9.395  11.789  18.798  0.00  0.00    +0.000 C 
ENDROOT
BRANCH  15  16
ATOM     16  C   UNL     1       9.462  10.298  18.447  0.00  0.00    +0.000 C 
ATOM     17  C   UNL     1       8.321   9.697  17.985  0.00  0.00    +0.000 C 
BRANCH  17  18
ATOM     18  C   UNL     1       8.074   8.249  17.897  0.00  0.00    +0.000 C 
ATOM     19  O   UNL     1       7.535   7.718  16.970  0.00  0.00    +0.000 OA
BRANCH  18  20
ATOM     20  O   UNL     1       8.587   7.568  18.943  0.00  0.00    +0.000 OA
ATOM     21  H   UNL     1       9.402   7.034  18.847  0.00  0.00    +0.000 HD
ENDBRANCH  18  20
ENDBRANCH  17  18
ENDBRANCH  15  16
TORSDOF 3
ENDMDL
MODEL 9
REMARK VINA RESULT:      -6.8      1.297      1.500
REMARK  Name = 
REMARK  7 active torsions:
REMARK  status: ('A' for Active; 'I' for Inactive)
REMARK    1  A    between atoms: C_1  and  C_2
REMARK    2  A    between atoms: C_7  and  C_8
REMARK    3  A    between atoms: C_7  and  C_9
REMARK    4  A    between atoms: C_13  and  C_14
REMARK    5  A    between atoms: C_15  and  C_16
REMARK    6  A    between atoms: C_17  and  C_18
REMARK    7  A    between atoms: C_18  and  O_20
REMARK                            x       y       z     vdW  Elec       q    Type
REMARK                         _______ _______ _______ _____ _____    ______ ____
ROOT
ATOM      1  C   UNL     1       4.663   7.305  17.147  0.00  0.00    +0.000 C 
ATOM      2  C   UNL     1       5.215   5.925  17.493  0.00  0.00    +0.000 C 
ATOM      3  C   UNL     1       5.785   5.451  18.636  0.00  0.00    +0.000 C 
ATOM      4  C   UNL     1       5.233   4.066  19.212  0.00  0.00    +0.000 C 
ATOM      5  O   UNL     1       5.860   3.512  20.111  0.00  0.00    +0.000 OA
ATOM      6  C   UNL     1       3.951   3.402  18.556  0.00  0.00    +0.000 C 
ATOM      7  C   UNL     1       3.029   2.412  19.374  0.00  0.00    +0.000 C 
ATOM      8  C   UNL     1       2.866   2.783  20.863  0.00  0.00    +0.000 C 
ATOM      9  C   UNL     1       3.617   0.965  19.343  0.00  0.00    +0.000 C 
ATOM     10  C   UNL     1       1.644   2.246  18.675  0.00  0.00    +0.000 C 
ATOM     11  C   UNL     1       1.017   3.538  18.194  0.00  0.00    +0.000 C 
ATOM     12  C   UNL     1       1.926   4.147  17.101  0.00  0.00    +0.000 C 
ATOM     13  C   UNL     1       3.269   4.558  17.712  0.00  0.00    +0.000 C 
ATOM     14  C   UNL     1       2.833   5.691  18.793  0.00  0.00    +0.000 C 
ATOM     15  C   UNL     1       4.537   4.890  16.673  0.00  0.00    +0.000 C 
ENDROOT
BRANCH  15  16
ATOM     16  C   UNL     1       5.087   5.172  15.269  0.00  0.00    +0.000 C 
ATOM     17  C   UNL     1       6.172   4.450  14.850  0.00  0.00    +0.000 C 
BRANCH  17  18
ATOM     18  C   UNL     1       7.039   4.768  13.705  0.00  0.00    +0.000 C 
ATOM     19  O   UNL     1       7.942   5.552  13.747  0.00  0.00    +0.000 OA
BRANCH  18  20
ATOM     20  O   UNL     1       6.756   4.026  12.613  0.00  0.00    +0.000 OA
ATOM     21  H   UNL     1       5.947   3.476  12.573  0.00  0.00    +0.000 HD
ENDBRANCH  18  20
ENDBRANCH  17  18
ENDBRANCH  15  16
TORSDOF 3
ENDMDL
