MODEL 1
REMARK VINA RESULT:      -6.8      0.000      0.000
REMARK  Name = 
REMARK  9 active torsions:
REMARK  status: ('A' for Active; 'I' for Inactive)
REMARK    1  A    between atoms: C_1  and  C_2
REMARK    2  A    between atoms: C_3  and  C_4
REMARK    3  A    between atoms: C_4  and  O_6
REMARK    4  A    between atoms: C_7  and  C_8
REMARK    5  A    between atoms: N_10  and  C_11
REMARK    6  A    between atoms: C_11  and  C_12
REMARK    7  A    between atoms: C_11  and  C_13
REMARK    8  A    between atoms: C_11  and  C_14
REMARK    9  A    between atoms: N_16  and  C_17
REMARK                            x       y       z     vdW  Elec       q    Type
REMARK                         _______ _______ _______ _____ _____    ______ ____
ROOT
ATOM      1  C   UNL     1       4.375   2.399  19.286  0.00  0.00    +0.000 C 
ATOM      2  C   UNL     1       3.645   3.702  19.340  0.00  0.00    +0.000 A 
ATOM      3  C   UNL     1       2.661   4.120  20.235  0.00  0.00    +0.000 A 
ATOM      4  C   UNL     1       2.443   5.490  19.900  0.00  0.00    +0.000 A 
ATOM      5  N   UNL     1       3.243   5.896  18.899  0.00  0.00    +0.000 NA
ATOM      6  N   UNL     1       3.944   4.790  18.535  0.00  0.00    +0.000 N 
ENDROOT
BRANCH   6   7
ATOM      7  C   UNL     1       4.870   4.873  17.455  0.00  0.00    +0.000 A 
ATOM      8  C   UNL     1       4.584   4.205  16.255  0.00  0.00    +0.000 A 
ATOM      9  C   UNL     1       5.462   4.305  15.169  0.00  0.00    +0.000 A 
ATOM     10  C   UNL     1       6.639   5.040  15.292  0.00  0.00    +0.000 A 
ATOM     11 CL   UNL     1       7.728   5.146  13.965  0.00  0.00    +0.000 Cl
ATOM     12  C   UNL     1       6.946   5.680  16.490  0.00  0.00    +0.000 A 
ATOM     13  C   UNL     1       6.063   5.600  17.570  0.00  0.00    +0.000 A 
ENDBRANCH   6   7
BRANCH   4  14
ATOM     14  C   UNL     1       1.486   6.405  20.540  0.00  0.00    +0.000 C 
ATOM     15  O   UNL     1       0.397   5.991  20.927  0.00  0.00    +0.000 OA
ATOM     16  N   UNL     1       1.889   7.719  20.633  0.00  0.00    +0.000 N 
ATOM     17  H   UNL     1       2.844   7.906  20.337  0.00  0.00    +0.000 HD
BRANCH  16  18
ATOM     18  C   UNL     1       1.062   8.807  21.184  0.00  0.00    +0.000 C 
ATOM     19  C   UNL     1       1.678   9.348  22.485  0.00  0.00    +0.000 C 
ATOM     20  C   UNL     1       0.995   9.958  20.164  0.00  0.00    +0.000 C 
ATOM     21  C   UNL     1      -0.379   8.333  21.449  0.00  0.00    +0.000 C 
ENDBRANCH  16  18
ENDBRANCH   4  14
BRANCH   3  22
ATOM     22  C   UNL     1       2.034   3.263  21.241  0.00  0.00    +0.000 C 
ATOM     23  O   UNL     1       2.637   2.880  22.237  0.00  0.00    +0.000 OA
BRANCH  22  24
ATOM     24  O   UNL     1       0.735   2.935  21.065  0.00  0.00    +0.000 OA
ATOM     25  H   UNL     1       0.560   2.101  20.573  0.00  0.00    +0.000 HD
ENDBRANCH  22  24
ENDBRANCH   3  22
TORSDOF 5
ENDMDL
MODEL 2
REMARK VINA RESULT:      -6.7      3.793      5.816
REMARK  Name = 
REMARK  9 active torsions:
REMARK  status: ('A' for Active; 'I' for Inactive)
REMARK    1  A    between atoms: C_1  and  C_2
REMARK    2  A    between atoms: C_3  and  C_4
REMARK    3  A    between atoms: C_4  and  O_6
REMARK    4  A    between atoms: C_7  and  C_8
REMARK    5  A    between atoms: N_10  and  C_11
REMARK    6  A    between atoms: C_11  and  C_12
REMARK    7  A    between atoms: C_11  and  C_13
REMARK    8  A    between atoms: C_11  and  C_14
REMARK    9  A    between atoms: N_16  and  C_17
REMARK                            x       y       z     vdW  Elec       q    Type
REMARK                         _______ _______ _______ _____ _____    ______ ____
ROOT
ATOM      1  C   UNL     1       2.169   8.532  17.613  0.00  0.00    +0.000 C 
ATOM      2  C   UNL     1       1.707   8.818  19.006  0.00  0.00    +0.000 A 
ATOM      3  C   UNL     1       1.096   9.966  19.510  0.00  0.00    +0.000 A 
ATOM      4  C   UNL     1       0.748   9.618  20.848  0.00  0.00    +0.000 A 
ATOM      5  N   UNL     1       1.089   8.351  21.144  0.00  0.00    +0.000 NA
ATOM      6  N   UNL     1       1.710   7.883  20.029  0.00  0.00    +0.000 N 
ENDROOT
BRANCH   6   7
ATOM      7  C   UNL     1       2.238   6.559  20.026  0.00  0.00    +0.000 A 
ATOM      8  C   UNL     1       1.548   5.545  20.709  0.00  0.00    +0.000 A 
ATOM      9  C   UNL     1       2.029   4.231  20.686  0.00  0.00    +0.000 A 
ATOM     10  C   UNL     1       3.214   3.935  20.014  0.00  0.00    +0.000 A 
ATOM     11 CL   UNL     1       3.817   2.325  20.004  0.00  0.00    +0.000 Cl
ATOM     12  C   UNL     1       3.921   4.942  19.361  0.00  0.00    +0.000 A 
ATOM     13  C   UNL     1       3.434   6.251  19.364  0.00  0.00    +0.000 A 
ENDBRANCH   6   7
BRANCH   4  14
ATOM     14  C   UNL     1       0.083  10.485  21.833  0.00  0.00    +0.000 C 
ATOM     15  O   UNL     1       0.303  10.343  23.032  0.00  0.00    +0.000 OA
ATOM     16  N   UNL     1      -0.796  11.410  21.314  0.00  0.00    +0.000 N 
ATOM     17  H   UNL     1      -0.825  11.465  20.298  0.00  0.00    +0.000 HD
BRANCH  16  18
ATOM     18  C   UNL     1      -1.608  12.334  22.125  0.00  0.00    +0.000 C 
ATOM     19  C   UNL     1      -0.737  13.473  22.680  0.00  0.00    +0.000 C 
ATOM     20  C   UNL     1      -2.707  12.951  21.242  0.00  0.00    +0.000 C 
ATOM     21  C   UNL     1      -2.300  11.596  23.287  0.00  0.00    +0.000 C 
ENDBRANCH  16  18
ENDBRANCH   4  14
BRANCH   3  22
ATOM     22  C   UNL     1       0.920  11.211  18.761  0.00  0.00    +0.000 C 
ATOM     23  O   UNL     1       1.824  12.029  18.636  0.00  0.00    +0.000 OA
BRANCH  22  24
ATOM     24  O   UNL     1      -0.273  11.420  18.163  0.00  0.00    +0.000 OA
ATOM     25  H   UNL     1      -0.762  10.615  17.874  0.00  0.00    +0.000 HD
ENDBRANCH  22  24
ENDBRANCH   3  22
TORSDOF 5
ENDMDL
MODEL 3
REMARK VINA RESULT:      -6.7      3.719      5.652
REMARK  Name = 
REMARK  9 active torsions:
REMARK  status: ('A' for Active; 'I' for Inactive)
REMARK    1  A    between atoms: C_1  and  C_2
REMARK    2  A    between atoms: C_3  and  C_4
REMARK    3  A    between atoms: C_4  and  O_6
REMARK    4  A    between atoms: C_7  and  C_8
REMARK    5  A    between atoms: N_10  and  C_11
REMARK    6  A    between atoms: C_11  and  C_12
REMARK    7  A    between atoms: C_11  and  C_13
REMARK    8  A    between atoms: C_11  and  C_14
REMARK    9  A    between atoms: N_16  and  C_17
REMARK                            x       y       z     vdW  Elec       q    Type
REMARK                         _______ _______ _______ _____ _____    ______ ____
ROOT
ATOM      1  C   UNL     1       2.325   8.204  17.541  0.00  0.00    +0.000 C 
ATOM      2  C   UNL     1       1.871   8.526  18.929  0.00  0.00    +0.000 A 
ATOM      3  C   UNL     1       1.290   9.697  19.413  0.00  0.00    +0.000 A 
ATOM      4  C   UNL     1       0.932   9.381  20.757  0.00  0.00    +0.000 A 
ATOM      5  N   UNL     1       1.240   8.112  21.074  0.00  0.00    +0.000 NA
ATOM      6  N   UNL     1       1.849   7.608  19.968  0.00  0.00    +0.000 N 
ENDROOT
BRANCH   6   7
ATOM      7  C   UNL     1       2.341   6.271  19.987  0.00  0.00    +0.000 A 
ATOM      8  C   UNL     1       3.591   5.992  19.414  0.00  0.00    +0.000 A 
ATOM      9  C   UNL     1       4.108   4.692  19.457  0.00  0.00    +0.000 A 
ATOM     10  C   UNL     1       3.366   3.666  20.039  0.00  0.00    +0.000 A 
ATOM     11 CL   UNL     1       3.992   2.065  20.073  0.00  0.00    +0.000 Cl
ATOM     12  C   UNL     1       2.110   3.928  20.582  0.00  0.00    +0.000 A 
ATOM     13  C   UNL     1       1.598   5.228  20.559  0.00  0.00    +0.000 A 
ENDBRANCH   6   7
BRANCH   4  14
ATOM     14  C   UNL     1       0.291  10.282  21.726  0.00  0.00    +0.000 C 
ATOM     15  O   UNL     1       0.554  10.195  22.922  0.00  0.00    +0.000 OA
ATOM     16  N   UNL     1      -0.618  11.174  21.199  0.00  0.00    +0.000 N 
ATOM     17  H   UNL     1      -0.683  11.184  20.184  0.00  0.00    +0.000 HD
BRANCH  16  18
ATOM     18  C   UNL     1      -1.413  12.123  21.998  0.00  0.00    +0.000 C 
ATOM     19  C   UNL     1      -0.561  13.336  22.403  0.00  0.00    +0.000 C 
ATOM     20  C   UNL     1      -2.600  12.624  21.155  0.00  0.00    +0.000 C 
ATOM     21  C   UNL     1      -1.987  11.447  23.258  0.00  0.00    +0.000 C 
ENDBRANCH  16  18
ENDBRANCH   4  14
BRANCH   3  22
ATOM     22  C   UNL     1       1.148  10.934  18.644  0.00  0.00    +0.000 C 
ATOM     23  O   UNL     1       2.108  11.644  18.368  0.00  0.00    +0.000 OA
BRANCH  22  24
ATOM     24  O   UNL     1      -0.086  11.257  18.198  0.00  0.00    +0.000 OA
ATOM     25  H   UNL     1      -0.635  10.513  17.859  0.00  0.00    +0.000 HD
ENDBRANCH  22  24
ENDBRANCH   3  22
TORSDOF 5
ENDMDL
MODEL 4
REMARK VINA RESULT:      -6.6      1.086      1.202
REMARK  Name = 
REMARK  9 active torsions:
REMARK  status: ('A' for Active; 'I' for Inactive)
REMARK    1  A    between atoms: C_1  and  C_2
REMARK    2  A    between atoms: C_3  and  C_4
REMARK    3  A    between atoms: C_4  and  O_6
REMARK    4  A    between atoms: C_7  and  C_8
REMARK    5  A    between atoms: N_10  and  C_11
REMARK    6  A    between atoms: C_11  and  C_12
REMARK    7  A    between atoms: C_11  and  C_13
REMARK    8  A    between atoms: C_11  and  C_14
REMARK    9  A    between atoms: N_16  and  C_17
REMARK                            x       y       z     vdW  Elec       q    Type
REMARK                         _______ _______ _______ _____ _____    ______ ____
ROOT
ATOM      1  C   UNL     1       3.921   2.973  18.845  0.00  0.00    +0.000 C 
ATOM      2  C   UNL     1       3.444   4.389  18.870  0.00  0.00    +0.000 A 
ATOM      3  C   UNL     1       2.539   4.995  19.741  0.00  0.00    +0.000 A 
ATOM      4  C   UNL     1       2.584   6.376  19.386  0.00  0.00    +0.000 A 
ATOM      5  N   UNL     1       3.462   6.613  18.396  0.00  0.00    +0.000 NA
ATOM      6  N   UNL     1       3.952   5.392  18.058  0.00  0.00    +0.000 N 
ENDROOT
BRANCH   6   7
ATOM      7  C   UNL     1       4.895   5.287  16.995  0.00  0.00    +0.000 A 
ATOM      8  C   UNL     1       4.567   4.529  15.860  0.00  0.00    +0.000 A 
ATOM      9  C   UNL     1       5.463   4.444  14.789  0.00  0.00    +0.000 A 
ATOM     10  C   UNL     1       6.698   5.084  14.863  0.00  0.00    +0.000 A 
ATOM     11 CL   UNL     1       7.809   4.963  13.556  0.00  0.00    +0.000 Cl
ATOM     12  C   UNL     1       7.046   5.813  15.998  0.00  0.00    +0.000 A 
ATOM     13  C   UNL     1       6.145   5.917  17.062  0.00  0.00    +0.000 A 
ENDBRANCH   6   7
BRANCH   4  14
ATOM     14  C   UNL     1       1.802   7.462  19.998  0.00  0.00    +0.000 C 
ATOM     15  O   UNL     1       1.259   7.297  21.086  0.00  0.00    +0.000 OA
ATOM     16  N   UNL     1       1.709   8.620  19.256  0.00  0.00    +0.000 N 
ATOM     17  H   UNL     1       2.268   8.642  18.407  0.00  0.00    +0.000 HD
BRANCH  16  18
ATOM     18  C   UNL     1       0.928   9.804  19.656  0.00  0.00    +0.000 C 
ATOM     19  C   UNL     1       1.098  10.082  21.158  0.00  0.00    +0.000 C 
ATOM     20  C   UNL     1       1.435  11.031  18.876  0.00  0.00    +0.000 C 
ATOM     21  C   UNL     1      -0.566   9.625  19.326  0.00  0.00    +0.000 C 
ENDBRANCH  16  18
ENDBRANCH   4  14
BRANCH   3  22
ATOM     22  C   UNL     1       1.748   4.284  20.745  0.00  0.00    +0.000 C 
ATOM     23  O   UNL     1       2.206   3.985  21.842  0.00  0.00    +0.000 OA
BRANCH  22  24
ATOM     24  O   UNL     1       0.463   3.999  20.445  0.00  0.00    +0.000 OA
ATOM     25  H   UNL     1       0.020   3.330  21.017  0.00  0.00    +0.000 HD
ENDBRANCH  22  24
ENDBRANCH   3  22
TORSDOF 5
ENDMDL
MODEL 5
REMARK VINA RESULT:      -6.6      2.819      4.397
REMARK  Name = 
REMARK  9 active torsions:
REMARK  status: ('A' for Active; 'I' for Inactive)
REMARK    1  A    between atoms: C_1  and  C_2
REMARK    2  A    between atoms: C_3  and  C_4
REMARK    3  A    between atoms: C_4  and  O_6
REMARK    4  A    between atoms: C_7  and  C_8
REMARK    5  A    between atoms: N_10  and  C_11
REMARK    6  A    between atoms: C_11  and  C_12
REMARK    7  A    between atoms: C_11  and  C_13
REMARK    8  A    between atoms: C_11  and  C_14
REMARK    9  A    between atoms: N_16  and  C_17
REMARK                            x       y       z     vdW  Elec       q    Type
REMARK                         _______ _______ _______ _____ _____    ______ ____
ROOT
ATOM      1  C   UNL     1       2.225   6.110  20.991  0.00  0.00    +0.000 C 
ATOM      2  C   UNL     1       1.888   7.294  20.144  0.00  0.00    +0.000 A 
ATOM      3  C   UNL     1       1.168   8.439  20.482  0.00  0.00    +0.000 A 
ATOM      4  C   UNL     1       1.292   9.282  19.337  0.00  0.00    +0.000 A 
ATOM      5  N   UNL     1       2.049   8.720  18.379  0.00  0.00    +0.000 NA
ATOM      6  N   UNL     1       2.375   7.491  18.861  0.00  0.00    +0.000 N 
ENDROOT
BRANCH   6   7
ATOM      7  C   UNL     1       3.154   6.609  18.057  0.00  0.00    +0.000 A 
ATOM      8  C   UNL     1       4.251   7.118  17.346  0.00  0.00    +0.000 A 
ATOM      9  C   UNL     1       5.051   6.262  16.582  0.00  0.00    +0.000 A 
ATOM     10  C   UNL     1       4.738   4.906  16.498  0.00  0.00    +0.000 A 
ATOM     11 CL   UNL     1       5.708   3.857  15.542  0.00  0.00    +0.000 Cl
ATOM     12  C   UNL     1       3.632   4.398  17.175  0.00  0.00    +0.000 A 
ATOM     13  C   UNL     1       2.842   5.246  17.956  0.00  0.00    +0.000 A 
ENDBRANCH   6   7
BRANCH   4  14
ATOM     14  C   UNL     1       0.702  10.618  19.167  0.00  0.00    +0.000 C 
ATOM     15  O   UNL     1       1.369  11.623  19.396  0.00  0.00    +0.000 OA
ATOM     16  N   UNL     1      -0.619  10.640  18.776  0.00  0.00    +0.000 N 
ATOM     17  H   UNL     1      -1.025   9.735  18.552  0.00  0.00    +0.000 HD
BRANCH  16  18
ATOM     18  C   UNL     1      -1.416  11.868  18.605  0.00  0.00    +0.000 C 
ATOM     19  C   UNL     1      -0.565  12.981  17.972  0.00  0.00    +0.000 C 
ATOM     20  C   UNL     1      -2.602  11.575  17.669  0.00  0.00    +0.000 C 
ATOM     21  C   UNL     1      -1.990  12.354  19.949  0.00  0.00    +0.000 C 
ENDBRANCH  16  18
ENDBRANCH   4  14
BRANCH   3  22
ATOM     22  C   UNL     1       0.455   8.630  21.745  0.00  0.00    +0.000 C 
ATOM     23  O   UNL     1      -0.654   8.147  21.947  0.00  0.00    +0.000 OA
BRANCH  22  24
ATOM     24  O   UNL     1       1.079   9.328  22.719  0.00  0.00    +0.000 OA
ATOM     25  H   UNL     1       1.930   9.755  22.470  0.00  0.00    +0.000 HD
ENDBRANCH  22  24
ENDBRANCH   3  22
TORSDOF 5
ENDMDL
MODEL 6
REMARK VINA RESULT:      -6.6      0.162      1.340
REMARK  Name = 
REMARK  9 active torsions:
REMARK  status: ('A' for Active; 'I' for Inactive)
REMARK    1  A    between atoms: C_1  and  C_2
REMARK    2  A    between atoms: C_3  and  C_4
REMARK    3  A    between atoms: C_4  and  O_6
REMARK    4  A    between atoms: C_7  and  C_8
REMARK    5  A    between atoms: N_10  and  C_11
REMARK    6  A    between atoms: C_11  and  C_12
REMARK    7  A    between atoms: C_11  and  C_13
REMARK    8  A    between atoms: C_11  and  C_14
REMARK    9  A    between atoms: N_16  and  C_17
REMARK                            x       y       z     vdW  Elec       q    Type
REMARK                         _______ _______ _______ _____ _____    ______ ____
ROOT
ATOM      1  C   UNL     1       4.259   2.358  19.066  0.00  0.00    +0.000 C 
ATOM      2  C   UNL     1       3.593   3.689  19.208  0.00  0.00    +0.000 A 
ATOM      3  C   UNL     1       2.650   4.103  20.148  0.00  0.00    +0.000 A 
ATOM      4  C   UNL     1       2.489   5.497  19.893  0.00  0.00    +0.000 A 
ATOM      5  N   UNL     1       3.285   5.920  18.895  0.00  0.00    +0.000 NA
ATOM      6  N   UNL     1       3.925   4.805  18.455  0.00  0.00    +0.000 N 
ENDROOT
BRANCH   6   7
ATOM      7  C   UNL     1       4.829   4.904  17.357  0.00  0.00    +0.000 A 
ATOM      8  C   UNL     1       5.978   5.698  17.485  0.00  0.00    +0.000 A 
ATOM      9  C   UNL     1       6.897   5.779  16.433  0.00  0.00    +0.000 A 
ATOM     10  C   UNL     1       6.653   5.096  15.243  0.00  0.00    +0.000 A 
ATOM     11 CL   UNL     1       7.771   5.211  13.941  0.00  0.00    +0.000 Cl
ATOM     12  C   UNL     1       5.499   4.331  15.095  0.00  0.00    +0.000 A 
ATOM     13  C   UNL     1       4.588   4.231  16.151  0.00  0.00    +0.000 A 
ENDBRANCH   6   7
BRANCH   4  14
ATOM     14  C   UNL     1       1.592   6.419  20.605  0.00  0.00    +0.000 C 
ATOM     15  O   UNL     1       0.639   5.984  21.245  0.00  0.00    +0.000 OA
ATOM     16  N   UNL     1       1.883   7.758  20.468  0.00  0.00    +0.000 N 
ATOM     17  H   UNL     1       2.743   7.971  19.968  0.00  0.00    +0.000 HD
BRANCH  16  18
ATOM     18  C   UNL     1       1.080   8.849  21.048  0.00  0.00    +0.000 C 
ATOM     19  C   UNL     1       1.109  10.086  20.137  0.00  0.00    +0.000 C 
ATOM     20  C   UNL     1      -0.382   8.383  21.185  0.00  0.00    +0.000 C 
ATOM     21  C   UNL     1       1.584   9.226  22.454  0.00  0.00    +0.000 C 
ENDBRANCH  16  18
ENDBRANCH   4  14
BRANCH   3  22
ATOM     22  C   UNL     1       2.006   3.222  21.123  0.00  0.00    +0.000 C 
ATOM     23  O   UNL     1       2.599   2.798  22.109  0.00  0.00    +0.000 OA
BRANCH  22  24
ATOM     24  O   UNL     1       0.705   2.917  20.929  0.00  0.00    +0.000 OA
ATOM     25  H   UNL     1       0.453   2.642  20.018  0.00  0.00    +0.000 HD
ENDBRANCH  22  24
ENDBRANCH   3  22
TORSDOF 5
ENDMDL
MODEL 7
REMARK VINA RESULT:      -6.6      1.058      1.543
REMARK  Name = 
REMARK  9 active torsions:
REMARK  status: ('A' for Active; 'I' for Inactive)
REMARK    1  A    between atoms: C_1  and  C_2
REMARK    2  A    between atoms: C_3  and  C_4
REMARK    3  A    between atoms: C_4  and  O_6
REMARK    4  A    between atoms: C_7  and  C_8
REMARK    5  A    between atoms: N_10  and  C_11
REMARK    6  A    between atoms: C_11  and  C_12
REMARK    7  A    between atoms: C_11  and  C_13
REMARK    8  A    between atoms: C_11  and  C_14
REMARK    9  A    between atoms: N_16  and  C_17
REMARK                            x       y       z     vdW  Elec       q    Type
REMARK                         _______ _______ _______ _____ _____    ______ ____
ROOT
ATOM      1  C   UNL     1       3.894   2.942  18.808  0.00  0.00    +0.000 C 
ATOM      2  C   UNL     1       3.418   4.358  18.851  0.00  0.00    +0.000 A 
ATOM      3  C   UNL     1       2.530   4.959  19.743  0.00  0.00    +0.000 A 
ATOM      4  C   UNL     1       2.568   6.342  19.396  0.00  0.00    +0.000 A 
ATOM      5  N   UNL     1       3.427   6.585  18.392  0.00  0.00    +0.000 NA
ATOM      6  N   UNL     1       3.911   5.366  18.037  0.00  0.00    +0.000 N 
ENDROOT
BRANCH   6   7
ATOM      7  C   UNL     1       4.834   5.267  16.955  0.00  0.00    +0.000 A 
ATOM      8  C   UNL     1       6.021   6.013  16.997  0.00  0.00    +0.000 A 
ATOM      9  C   UNL     1       6.957   5.901  15.963  0.00  0.00    +0.000 A 
ATOM     10  C   UNL     1       6.695   5.074  14.873  0.00  0.00    +0.000 A 
ATOM     11 CL   UNL     1       7.835   4.952  13.591  0.00  0.00    +0.000 Cl
ATOM     12  C   UNL     1       5.504   4.354  14.808  0.00  0.00    +0.000 A 
ATOM     13  C   UNL     1       4.575   4.447  15.848  0.00  0.00    +0.000 A 
ENDBRANCH   6   7
BRANCH   4  14
ATOM     14  C   UNL     1       1.797   7.423  20.029  0.00  0.00    +0.000 C 
ATOM     15  O   UNL     1       1.286   7.256  21.132  0.00  0.00    +0.000 OA
ATOM     16  N   UNL     1       1.678   8.580  19.290  0.00  0.00    +0.000 N 
ATOM     17  H   UNL     1       2.212   8.605  18.425  0.00  0.00    +0.000 HD
BRANCH  16  18
ATOM     18  C   UNL     1       0.902   9.760  19.711  0.00  0.00    +0.000 C 
ATOM     19  C   UNL     1       1.075  10.011  21.218  0.00  0.00    +0.000 C 
ATOM     20  C   UNL     1       1.413  10.999  18.952  0.00  0.00    +0.000 C 
ATOM     21  C   UNL     1      -0.593   9.593  19.379  0.00  0.00    +0.000 C 
ENDBRANCH  16  18
ENDBRANCH   4  14
BRANCH   3  22
ATOM     22  C   UNL     1       1.757   4.241  20.757  0.00  0.00    +0.000 C 
ATOM     23  O   UNL     1       2.217   3.981  21.863  0.00  0.00    +0.000 OA
BRANCH  22  24
ATOM     24  O   UNL     1       0.484   3.904  20.455  0.00  0.00    +0.000 OA
ATOM     25  H   UNL     1      -0.221   4.460  20.860  0.00  0.00    +0.000 HD
ENDBRANCH  22  24
ENDBRANCH   3  22
TORSDOF 5
ENDMDL
MODEL 8
REMARK VINA RESULT:      -6.6      2.774      4.296
REMARK  Name = 
REMARK  9 active torsions:
REMARK  status: ('A' for Active; 'I' for Inactive)
REMARK    1  A    between atoms: C_1  and  C_2
REMARK    2  A    between atoms: C_3  and  C_4
REMARK    3  A    between atoms: C_4  and  O_6
REMARK    4  A    between atoms: C_7  and  C_8
REMARK    5  A    between atoms: N_10  and  C_11
REMARK    6  A    between atoms: C_11  and  C_12
REMARK    7  A    between atoms: C_11  and  C_13
REMARK    8  A    between atoms: C_11  and  C_14
REMARK    9  A    between atoms: N_16  and  C_17
REMARK                            x       y       z     vdW  Elec       q    Type
REMARK                         _______ _______ _______ _____ _____    ______ ____
ROOT
ATOM      1  C   UNL     1       2.282   6.013  20.866  0.00  0.00    +0.000 C 
ATOM      2  C   UNL     1       1.953   7.204  20.026  0.00  0.00    +0.000 A 
ATOM      3  C   UNL     1       1.207   8.334  20.359  0.00  0.00    +0.000 A 
ATOM      4  C   UNL     1       1.353   9.195  19.230  0.00  0.00    +0.000 A 
ATOM      5  N   UNL     1       2.145   8.657  18.287  0.00  0.00    +0.000 NA
ATOM      6  N   UNL     1       2.474   7.426  18.760  0.00  0.00    +0.000 N 
ENDROOT
BRANCH   6   7
ATOM      7  C   UNL     1       3.288   6.566  17.967  0.00  0.00    +0.000 A 
ATOM      8  C   UNL     1       2.962   5.205  17.877  0.00  0.00    +0.000 A 
ATOM      9  C   UNL     1       3.727   4.352  17.073  0.00  0.00    +0.000 A 
ATOM     10  C   UNL     1       4.835   4.847  16.389  0.00  0.00    +0.000 A 
ATOM     11 CL   UNL     1       5.787   3.795  15.418  0.00  0.00    +0.000 Cl
ATOM     12  C   UNL     1       5.185   6.191  16.498  0.00  0.00    +0.000 A 
ATOM     13  C   UNL     1       4.412   7.051  17.284  0.00  0.00    +0.000 A 
ENDBRANCH   6   7
BRANCH   4  14
ATOM     14  C   UNL     1       0.750  10.526  19.062  0.00  0.00    +0.000 C 
ATOM     15  O   UNL     1       1.411  11.537  19.279  0.00  0.00    +0.000 OA
ATOM     16  N   UNL     1      -0.576  10.535  18.687  0.00  0.00    +0.000 N 
ATOM     17  H   UNL     1      -0.977   9.626  18.472  0.00  0.00    +0.000 HD
BRANCH  16  18
ATOM     18  C   UNL     1      -1.385  11.756  18.521  0.00  0.00    +0.000 C 
ATOM     19  C   UNL     1      -2.544  11.507  17.541  0.00  0.00    +0.000 C 
ATOM     20  C   UNL     1      -1.980  12.158  19.882  0.00  0.00    +0.000 C 
ATOM     21  C   UNL     1      -0.525  12.932  18.020  0.00  0.00    +0.000 C 
ENDBRANCH  16  18
ENDBRANCH   4  14
BRANCH   3  22
ATOM     22  C   UNL     1       0.456   8.497  21.603  0.00  0.00    +0.000 C 
ATOM     23  O   UNL     1      -0.684   8.065  21.737  0.00  0.00    +0.000 OA
BRANCH  22  24
ATOM     24  O   UNL     1       1.076   9.108  22.636  0.00  0.00    +0.000 OA
ATOM     25  H   UNL     1       0.502   9.634  23.239  0.00  0.00    +0.000 HD
ENDBRANCH  22  24
ENDBRANCH   3  22
TORSDOF 5
ENDMDL
MODEL 9
REMARK VINA RESULT:      -6.5      3.778      5.857
REMARK  Name = 
REMARK  9 active torsions:
REMARK  status: ('A' for Active; 'I' for Inactive)
REMARK    1  A    between atoms: C_1  and  C_2
REMARK    2  A    between atoms: C_3  and  C_4
REMARK    3  A    between atoms: C_4  and  O_6
REMARK    4  A    between atoms: C_7  and  C_8
REMARK    5  A    between atoms: N_10  and  C_11
REMARK    6  A    between atoms: C_11  and  C_12
REMARK    7  A    between atoms: C_11  and  C_13
REMARK    8  A    between atoms: C_11  and  C_14
REMARK    9  A    between atoms: N_16  and  C_17
REMARK                            x       y       z     vdW  Elec       q    Type
REMARK                         _______ _______ _______ _____ _____    ______ ____
ROOT
ATOM      1  C   UNL     1       2.144   8.510  17.679  0.00  0.00    +0.000 C 
ATOM      2  C   UNL     1       1.672   8.790  19.070  0.00  0.00    +0.000 A 
ATOM      3  C   UNL     1       1.053   9.933  19.574  0.00  0.00    +0.000 A 
ATOM      4  C   UNL     1       0.698   9.579  20.909  0.00  0.00    +0.000 A 
ATOM      5  N   UNL     1       1.044   8.314  21.203  0.00  0.00    +0.000 NA
ATOM      6  N   UNL     1       1.674   7.851  20.091  0.00  0.00    +0.000 N 
ENDROOT
BRANCH   6   7
ATOM      7  C   UNL     1       2.208   6.530  20.087  0.00  0.00    +0.000 A 
ATOM      8  C   UNL     1       3.391   6.271  19.379  0.00  0.00    +0.000 A 
ATOM      9  C   UNL     1       3.952   4.989  19.395  0.00  0.00    +0.000 A 
ATOM     10  C   UNL     1       3.315   3.959  20.085  0.00  0.00    +0.000 A 
ATOM     11 CL   UNL     1       3.992   2.378  20.086  0.00  0.00    +0.000 Cl
ATOM     12  C   UNL     1       2.123   4.200  20.764  0.00  0.00    +0.000 A 
ATOM     13  C   UNL     1       1.570   5.484  20.768  0.00  0.00    +0.000 A 
ENDBRANCH   6   7
BRANCH   4  14
ATOM     14  C   UNL     1       0.023  10.440  21.892  0.00  0.00    +0.000 C 
ATOM     15  O   UNL     1       0.184  10.252  23.095  0.00  0.00    +0.000 OA
ATOM     16  N   UNL     1      -0.796  11.415  21.366  0.00  0.00    +0.000 N 
ATOM     17  H   UNL     1      -0.779  11.503  20.353  0.00  0.00    +0.000 HD
BRANCH  16  18
ATOM     18  C   UNL     1      -1.608  12.344  22.172  0.00  0.00    +0.000 C 
ATOM     19  C   UNL     1      -2.285  11.601  23.335  0.00  0.00    +0.000 C 
ATOM     20  C   UNL     1      -0.694  13.434  22.761  0.00  0.00    +0.000 C 
ATOM     21  C   UNL     1      -2.676  13.044  21.311  0.00  0.00    +0.000 C 
ENDBRANCH  16  18
ENDBRANCH   4  14
BRANCH   3  22
ATOM     22  C   UNL     1       0.875  11.179  18.828  0.00  0.00    +0.000 C 
ATOM     23  O   UNL     1       1.584  12.160  19.022  0.00  0.00    +0.000 OA
BRANCH  22  24
ATOM     24  O   UNL     1      -0.079  11.208  17.872  0.00  0.00    +0.000 OA
ATOM     25  H   UNL     1      -0.998  11.017  18.169  0.00  0.00    +0.000 HD
ENDBRANCH  22  24
ENDBRANCH   3  22
TORSDOF 5
ENDMDL
