MODEL 1
REMARK VINA RESULT:      -7.3      0.000      0.000
REMARK  Name = 
REMARK  12 active torsions:
REMARK  status: ('A' for Active; 'I' for Inactive)
REMARK    1  A    between atoms: C_1  and  O_2
REMARK    2  A    between atoms: O_2  and  C_3
REMARK    3  A    between atoms: C_5  and  C_6
REMARK    4  A    between atoms: C_8  and  C_9
REMARK    5  A    between atoms: C_9  and  O_10
REMARK    6  A    between atoms: C_12  and  O_13
REMARK    7  A    between atoms: O_13  and  C_14
REMARK    8  A    between atoms: C_15  and  O_16
REMARK    9  A    between atoms: O_16  and  C_17
REMARK   10  A    between atoms: C_18  and  O_19
REMARK   11  A    between atoms: O_19  and  C_20
REMARK   12  A    between atoms: C_26  and  O_27
REMARK                            x       y       z     vdW  Elec       q    Type
REMARK                         _______ _______ _______ _____ _____    ______ ____
ROOT
ATOM      1  C   UNL     1       6.197   5.057  14.954  0.00  0.00    +0.000 A 
ATOM      2  C   UNL     1       5.199   4.846  15.626  0.00  0.00    +0.000 A 
ATOM      3  C   UNL     1       5.372   4.913  17.025  0.00  0.00    +0.000 A 
ATOM      4  C   UNL     1       4.277   5.382  17.445  0.00  0.00    +0.000 A 
ATOM      5  C   UNL     1       3.161   4.560  17.884  0.00  0.00    +0.000 A 
ATOM      6  C   UNL     1       2.242   4.874  18.872  0.00  0.00    +0.000 A 
ATOM      7  C   UNL     1       2.535   6.097  19.497  0.00  0.00    +0.000 A 
ATOM      8  C   UNL     1       3.796   6.851  18.805  0.00  0.00    +0.000 A 
ATOM      9  C   UNL     1       4.773   6.585  17.333  0.00  0.00    +0.000 A 
ATOM     10  N   UNL     1       5.779   6.285  15.796  0.00  0.00    +0.000 NA
ENDROOT
BRANCH   1  13
ATOM     11  C   UNL     1       4.757   2.841  11.486  0.00  0.00    +0.000 A 
ATOM     12  C   UNL     1       4.833   3.844  12.572  0.00  0.00    +0.000 A 
ATOM     13  C   UNL     1       6.007   4.069  13.422  0.00  0.00    +0.000 A 
ATOM     14  C   UNL     1       7.110   3.345  12.849  0.00  0.00    +0.000 A 
ATOM     15  C   UNL     1       7.063   2.358  11.814  0.00  0.00    +0.000 A 
ATOM     16  C   UNL     1       5.890   2.087  11.161  0.00  0.00    +0.000 A 
BRANCH  11  18
ATOM     17  C   UNL     1       3.114   3.708   9.962  0.00  0.00    +0.000 C 
ATOM     18  O   UNL     1       3.543   2.638  10.838  0.00  0.00    +0.000 OA
ENDBRANCH  11  18
BRANCH  16  19
ATOM     19  O   UNL     1       5.847   1.106  10.214  0.00  0.00    +0.000 OA
ATOM     20  H   UNL     1       6.115   0.213  10.455  0.00  0.00    +0.000 HD
ENDBRANCH  16  19
ENDBRANCH   1  13
BRANCH   5  21
ATOM     21  O   UNL     1       3.199   3.281  17.342  0.00  0.00    +0.000 OA
ATOM     22  C   UNL     1       3.662   2.180  18.088  0.00  0.00    +0.000 C 
ENDBRANCH   5  21
BRANCH   6  23
ATOM     23  O   UNL     1       1.175   4.056  19.153  0.00  0.00    +0.000 OA
ATOM     24  C   UNL     1       1.268   3.364  20.422  0.00  0.00    +0.000 C 
ENDBRANCH   6  23
BRANCH   7  25
ATOM     25  O   UNL     1       1.493   6.483  20.380  0.00  0.00    +0.000 OA
ATOM     26  C   UNL     1       1.266   7.763  20.998  0.00  0.00    +0.000 C 
ENDBRANCH   7  25
BRANCH   3  27
ATOM     27  C   UNL     1       7.023   5.353  17.524  0.00  0.00    +0.000 C 
BRANCH  27  28
ATOM     28  O   UNL     1       7.854   4.270  18.038  0.00  0.00    +0.000 OA
ATOM     29  H   UNL     1       8.775   4.545  17.910  0.00  0.00    +0.000 HD
ENDBRANCH  27  28
ENDBRANCH   3  27
TORSDOF 8
ENDMDL
MODEL 2
REMARK VINA RESULT:      -7.1      4.709      8.294
REMARK  Name = 
REMARK  12 active torsions:
REMARK  status: ('A' for Active; 'I' for Inactive)
REMARK    1  A    between atoms: C_1  and  O_2
REMARK    2  A    between atoms: O_2  and  C_3
REMARK    3  A    between atoms: C_5  and  C_6
REMARK    4  A    between atoms: C_8  and  C_9
REMARK    5  A    between atoms: C_9  and  O_10
REMARK    6  A    between atoms: C_12  and  O_13
REMARK    7  A    between atoms: O_13  and  C_14
REMARK    8  A    between atoms: C_15  and  O_16
REMARK    9  A    between atoms: O_16  and  C_17
REMARK   10  A    between atoms: C_18  and  O_19
REMARK   11  A    between atoms: O_19  and  C_20
REMARK   12  A    between atoms: C_26  and  O_27
REMARK                            x       y       z     vdW  Elec       q    Type
REMARK                         _______ _______ _______ _____ _____    ______ ____
ROOT
ATOM      1  C   UNL     1       1.949   8.483  18.339  0.00  0.00    +0.000 A 
ATOM      2  C   UNL     1       1.365   9.085  19.227  0.00  0.00    +0.000 A 
ATOM      3  C   UNL     1       1.419  10.494  19.154  0.00  0.00    +0.000 A 
ATOM      4  C   UNL     1       0.297  10.863  19.603  0.00  0.00    +0.000 A 
ATOM      5  C   UNL     1       0.057  11.204  20.996  0.00  0.00    +0.000 A 
ATOM      6  C   UNL     1      -0.840  12.145  21.474  0.00  0.00    +0.000 A 
ATOM      7  C   UNL     1      -1.489  12.832  20.434  0.00  0.00    +0.000 A 
ATOM      8  C   UNL     1      -1.092  12.246  18.972  0.00  0.00    +0.000 A 
ATOM      9  C   UNL     1      -0.178  10.826  18.387  0.00  0.00    +0.000 A 
ATOM     10  N   UNL     1       0.782   9.342  17.803  0.00  0.00    +0.000 NA
ENDROOT
BRANCH   1  13
ATOM     11  C   UNL     1       3.857   4.666  19.235  0.00  0.00    +0.000 A 
ATOM     12  C   UNL     1       3.637   6.027  18.696  0.00  0.00    +0.000 A 
ATOM     13  C   UNL     1       2.525   6.906  19.076  0.00  0.00    +0.000 A 
ATOM     14  C   UNL     1       1.870   6.321  20.215  0.00  0.00    +0.000 A 
ATOM     15  C   UNL     1       2.051   5.003  20.744  0.00  0.00    +0.000 A 
ATOM     16  C   UNL     1       3.014   4.173  20.236  0.00  0.00    +0.000 A 
BRANCH  11  18
ATOM     17  C   UNL     1       6.069   4.601  18.297  0.00  0.00    +0.000 C 
ATOM     18  O   UNL     1       4.877   3.884  18.699  0.00  0.00    +0.000 OA
ENDBRANCH  11  18
BRANCH  16  19
ATOM     19  O   UNL     1       3.139   2.901  20.713  0.00  0.00    +0.000 OA
ATOM     20  H   UNL     1       2.484   2.571  21.337  0.00  0.00    +0.000 HD
ENDBRANCH  16  19
ENDBRANCH   1  13
BRANCH   5  21
ATOM     21  O   UNL     1       0.982  10.619  21.853  0.00  0.00    +0.000 OA
ATOM     22  C   UNL     1       0.679   9.446  22.571  0.00  0.00    +0.000 C 
ENDBRANCH   5  21
BRANCH   6  23
ATOM     23  O   UNL     1      -1.045  12.332  22.819  0.00  0.00    +0.000 OA
ATOM     24  C   UNL     1      -2.176  11.606  23.360  0.00  0.00    +0.000 C 
ENDBRANCH   6  23
BRANCH   7  25
ATOM     25  O   UNL     1      -2.522  13.664  20.937  0.00  0.00    +0.000 OA
ATOM     26  C   UNL     1      -3.939  13.585  20.695  0.00  0.00    +0.000 C 
ENDBRANCH   7  25
BRANCH   3  27
ATOM     27  C   UNL     1       2.293  11.107  17.730  0.00  0.00    +0.000 C 
BRANCH  27  28
ATOM     28  O   UNL     1       2.632  12.525  17.741  0.00  0.00    +0.000 OA
ATOM     29  H   UNL     1       1.909  12.984  17.286  0.00  0.00    +0.000 HD
ENDBRANCH  27  28
ENDBRANCH   3  27
TORSDOF 8
ENDMDL
MODEL 3
REMARK VINA RESULT:      -7.0      4.739      7.883
REMARK  Name = 
REMARK  12 active torsions:
REMARK  status: ('A' for Active; 'I' for Inactive)
REMARK    1  A    between atoms: C_1  and  O_2
REMARK    2  A    between atoms: O_2  and  C_3
REMARK    3  A    between atoms: C_5  and  C_6
REMARK    4  A    between atoms: C_8  and  C_9
REMARK    5  A    between atoms: C_9  and  O_10
REMARK    6  A    between atoms: C_12  and  O_13
REMARK    7  A    between atoms: O_13  and  C_14
REMARK    8  A    between atoms: C_15  and  O_16
REMARK    9  A    between atoms: O_16  and  C_17
REMARK   10  A    between atoms: C_18  and  O_19
REMARK   11  A    between atoms: O_19  and  C_20
REMARK   12  A    between atoms: C_26  and  O_27
REMARK                            x       y       z     vdW  Elec       q    Type
REMARK                         _______ _______ _______ _____ _____    ______ ____
ROOT
ATOM      1  C   UNL     1       2.161   8.468  17.845  0.00  0.00    +0.000 A 
ATOM      2  C   UNL     1       1.634   8.945  18.839  0.00  0.00    +0.000 A 
ATOM      3  C   UNL     1       1.649  10.353  18.929  0.00  0.00    +0.000 A 
ATOM      4  C   UNL     1       0.557  10.632  19.501  0.00  0.00    +0.000 A 
ATOM      5  C   UNL     1       0.418  10.801  20.938  0.00  0.00    +0.000 A 
ATOM      6  C   UNL     1      -0.461  11.651  21.589  0.00  0.00    +0.000 A 
ATOM      7  C   UNL     1      -1.205  12.433  20.688  0.00  0.00    +0.000 A 
ATOM      8  C   UNL     1      -0.908  12.033  19.142  0.00  0.00    +0.000 A 
ATOM      9  C   UNL     1      -0.010  10.721  18.327  0.00  0.00    +0.000 A 
ATOM     10  N   UNL     1       0.936   9.346  17.502  0.00  0.00    +0.000 NA
ENDROOT
BRANCH   1  13
ATOM     11  C   UNL     1       3.159   4.726  19.847  0.00  0.00    +0.000 A 
ATOM     12  C   UNL     1       2.394   5.909  19.397  0.00  0.00    +0.000 A 
ATOM     13  C   UNL     1       2.829   6.837  18.346  0.00  0.00    +0.000 A 
ATOM     14  C   UNL     1       3.965   6.250  17.685  0.00  0.00    +0.000 A 
ATOM     15  C   UNL     1       4.733   5.119  18.108  0.00  0.00    +0.000 A 
ATOM     16  C   UNL     1       4.350   4.384  19.198  0.00  0.00    +0.000 A 
BRANCH  11  18
ATOM     17  C   UNL     1       1.320   3.560  20.864  0.00  0.00    +0.000 C 
ATOM     18  O   UNL     1       2.698   3.999  20.941  0.00  0.00    +0.000 OA
ENDBRANCH  11  18
BRANCH  16  19
ATOM     19  O   UNL     1       5.121   3.341  19.623  0.00  0.00    +0.000 OA
ATOM     20  H   UNL     1       4.691   2.516  19.872  0.00  0.00    +0.000 HD
ENDBRANCH  16  19
ENDBRANCH   1  13
BRANCH   5  21
ATOM     21  O   UNL     1       1.419  10.150  21.648  0.00  0.00    +0.000 OA
ATOM     22  C   UNL     1       1.194   8.902  22.261  0.00  0.00    +0.000 C 
ENDBRANCH   5  21
BRANCH   6  23
ATOM     23  O   UNL     1      -0.566  11.674  22.958  0.00  0.00    +0.000 OA
ATOM     24  C   UNL     1      -1.595  10.808  23.495  0.00  0.00    +0.000 C 
ENDBRANCH   6  23
BRANCH   7  25
ATOM     25  O   UNL     1      -2.215  13.167  21.362  0.00  0.00    +0.000 OA
ATOM     26  C   UNL     1      -3.635  13.164  21.128  0.00  0.00    +0.000 C 
ENDBRANCH   7  25
BRANCH   3  27
ATOM     27  C   UNL     1       2.396  11.155  17.527  0.00  0.00    +0.000 C 
BRANCH  27  28
ATOM     28  O   UNL     1       2.737  12.563  17.693  0.00  0.00    +0.000 OA
ATOM     29  H   UNL     1       1.933  13.006  18.005  0.00  0.00    +0.000 HD
ENDBRANCH  27  28
ENDBRANCH   3  27
TORSDOF 8
ENDMDL
MODEL 4
REMARK VINA RESULT:      -6.9      4.189      7.248
REMARK  Name = 
REMARK  12 active torsions:
REMARK  status: ('A' for Active; 'I' for Inactive)
REMARK    1  A    between atoms: C_1  and  O_2
REMARK    2  A    between atoms: O_2  and  C_3
REMARK    3  A    between atoms: C_5  and  C_6
REMARK    4  A    between atoms: C_8  and  C_9
REMARK    5  A    between atoms: C_9  and  O_10
REMARK    6  A    between atoms: C_12  and  O_13
REMARK    7  A    between atoms: O_13  and  C_14
REMARK    8  A    between atoms: C_15  and  O_16
REMARK    9  A    between atoms: O_16  and  C_17
REMARK   10  A    between atoms: C_18  and  O_19
REMARK   11  A    between atoms: O_19  and  C_20
REMARK   12  A    between atoms: C_26  and  O_27
REMARK                            x       y       z     vdW  Elec       q    Type
REMARK                         _______ _______ _______ _____ _____    ______ ____
ROOT
ATOM      1  C   UNL     1       7.862   7.389  17.590  0.00  0.00    +0.000 A 
ATOM      2  C   UNL     1       6.741   7.164  18.021  0.00  0.00    +0.000 A 
ATOM      3  C   UNL     1       5.964   6.255  17.270  0.00  0.00    +0.000 A 
ATOM      4  C   UNL     1       5.283   5.646  18.142  0.00  0.00    +0.000 A 
ATOM      5  C   UNL     1       3.946   6.049  18.551  0.00  0.00    +0.000 A 
ATOM      6  C   UNL     1       2.922   5.214  18.966  0.00  0.00    +0.000 A 
ATOM      7  C   UNL     1       3.283   3.857  18.890  0.00  0.00    +0.000 A 
ATOM      8  C   UNL     1       4.835   3.661  18.452  0.00  0.00    +0.000 A 
ATOM      9  C   UNL     1       6.231   4.752  18.228  0.00  0.00    +0.000 A 
ATOM     10  N   UNL     1       7.670   5.910  17.996  0.00  0.00    +0.000 NA
ENDROOT
BRANCH   1  13
ATOM     11  C   UNL     1       8.492  11.697  17.820  0.00  0.00    +0.000 A 
ATOM     12  C   UNL     1       7.912  10.387  17.452  0.00  0.00    +0.000 A 
ATOM     13  C   UNL     1       8.267   9.109  18.079  0.00  0.00    +0.000 A 
ATOM     14  C   UNL     1       9.057   9.396  19.246  0.00  0.00    +0.000 A 
ATOM     15  C   UNL     1       9.645  10.648  19.615  0.00  0.00    +0.000 A 
ATOM     16  C   UNL     1       9.390  11.780  18.889  0.00  0.00    +0.000 A 
BRANCH  11  18
ATOM     17  C   UNL     1       7.120  13.659  17.608  0.00  0.00    +0.000 C 
ATOM     18  O   UNL     1       8.165  12.819  17.062  0.00  0.00    +0.000 OA
ENDBRANCH  11  18
BRANCH  16  19
ATOM     19  O   UNL     1      10.000  12.955  19.220  0.00  0.00    +0.000 OA
ATOM     20  H   UNL     1       9.556  13.554  19.830  0.00  0.00    +0.000 HD
ENDBRANCH  16  19
ENDBRANCH   1  13
BRANCH   5  21
ATOM     21  O   UNL     1       3.697   7.392  18.299  0.00  0.00    +0.000 OA
ATOM     22  C   UNL     1       2.667   7.799  17.430  0.00  0.00    +0.000 C 
ENDBRANCH   5  21
BRANCH   6  23
ATOM     23  O   UNL     1       1.720   5.708  19.408  0.00  0.00    +0.000 OA
ATOM     24  C   UNL     1       1.707   6.098  20.802  0.00  0.00    +0.000 C 
ENDBRANCH   6  23
BRANCH   7  25
ATOM     25  O   UNL     1       2.291   3.031  19.478  0.00  0.00    +0.000 OA
ATOM     26  C   UNL     1       1.222   2.312  18.835  0.00  0.00    +0.000 C 
ENDBRANCH   7  25
BRANCH   3  27
ATOM     27  C   UNL     1       6.814   5.576  15.861  0.00  0.00    +0.000 C 
BRANCH  27  28
ATOM     28  O   UNL     1       6.111   5.649  14.586  0.00  0.00    +0.000 OA
ATOM     29  H   UNL     1       6.425   4.900  14.055  0.00  0.00    +0.000 HD
ENDBRANCH  27  28
ENDBRANCH   3  27
TORSDOF 8
ENDMDL
MODEL 5
REMARK VINA RESULT:      -6.9      4.768      7.647
REMARK  Name = 
REMARK  12 active torsions:
REMARK  status: ('A' for Active; 'I' for Inactive)
REMARK    1  A    between atoms: C_1  and  O_2
REMARK    2  A    between atoms: O_2  and  C_3
REMARK    3  A    between atoms: C_5  and  C_6
REMARK    4  A    between atoms: C_8  and  C_9
REMARK    5  A    between atoms: C_9  and  O_10
REMARK    6  A    between atoms: C_12  and  O_13
REMARK    7  A    between atoms: O_13  and  C_14
REMARK    8  A    between atoms: C_15  and  O_16
REMARK    9  A    between atoms: O_16  and  C_17
REMARK   10  A    between atoms: C_18  and  O_19
REMARK   11  A    between atoms: O_19  and  C_20
REMARK   12  A    between atoms: C_26  and  O_27
REMARK                            x       y       z     vdW  Elec       q    Type
REMARK                         _______ _______ _______ _____ _____    ______ ____
ROOT
ATOM      1  C   UNL     1       2.295   8.257  17.885  0.00  0.00    +0.000 A 
ATOM      2  C   UNL     1       1.756   8.761  18.859  0.00  0.00    +0.000 A 
ATOM      3  C   UNL     1       1.733  10.172  18.888  0.00  0.00    +0.000 A 
ATOM      4  C   UNL     1       0.634  10.445  19.450  0.00  0.00    +0.000 A 
ATOM      5  C   UNL     1       0.492  10.672  20.880  0.00  0.00    +0.000 A 
ATOM      6  C   UNL     1      -0.409  11.525  21.495  0.00  0.00    +0.000 A 
ATOM      7  C   UNL     1      -1.176  12.246  20.564  0.00  0.00    +0.000 A 
ATOM      8  C   UNL     1      -0.870  11.787  19.036  0.00  0.00    +0.000 A 
ATOM      9  C   UNL     1       0.063  10.467  18.276  0.00  0.00    +0.000 A 
ATOM     10  N   UNL     1       1.046   9.085  17.508  0.00  0.00    +0.000 NA
ENDROOT
BRANCH   1  13
ATOM     11  C   UNL     1       4.875   4.949  19.073  0.00  0.00    +0.000 A 
ATOM     12  C   UNL     1       4.381   6.325  18.850  0.00  0.00    +0.000 A 
ATOM     13  C   UNL     1       3.009   6.668  18.454  0.00  0.00    +0.000 A 
ATOM     14  C   UNL     1       2.207   5.480  18.577  0.00  0.00    +0.000 A 
ATOM     15  C   UNL     1       2.660   4.137  18.774  0.00  0.00    +0.000 A 
ATOM     16  C   UNL     1       3.986   3.872  18.988  0.00  0.00    +0.000 A 
BRANCH  11  18
ATOM     17  C   UNL     1       7.125   5.142  18.253  0.00  0.00    +0.000 C 
ATOM     18  O   UNL     1       6.230   4.750  19.321  0.00  0.00    +0.000 OA
ENDBRANCH  11  18
BRANCH  16  19
ATOM     19  O   UNL     1       4.412   2.583  19.121  0.00  0.00    +0.000 OA
ATOM     20  H   UNL     1       4.154   1.936  18.455  0.00  0.00    +0.000 HD
ENDBRANCH  16  19
ENDBRANCH   1  13
BRANCH   5  21
ATOM     21  O   UNL     1       1.513  10.080  21.614  0.00  0.00    +0.000 OA
ATOM     22  C   UNL     1       1.308   8.882  22.325  0.00  0.00    +0.000 C 
ENDBRANCH   5  21
BRANCH   6  23
ATOM     23  O   UNL     1      -0.512  11.603  22.862  0.00  0.00    +0.000 OA
ATOM     24  C   UNL     1      -1.537  10.756  23.436  0.00  0.00    +0.000 C 
ENDBRANCH   6  23
BRANCH   7  25
ATOM     25  O   UNL     1      -2.205  12.980  21.207  0.00  0.00    +0.000 OA
ATOM     26  C   UNL     1      -3.613  13.003  20.911  0.00  0.00    +0.000 C 
ENDBRANCH   7  25
BRANCH   3  27
ATOM     27  C   UNL     1       2.455  10.933  17.451  0.00  0.00    +0.000 C 
BRANCH  27  28
ATOM     28  O   UNL     1       2.583  12.385  17.483  0.00  0.00    +0.000 OA
ATOM     29  H   UNL     1       2.423  12.696  16.578  0.00  0.00    +0.000 HD
ENDBRANCH  27  28
ENDBRANCH   3  27
TORSDOF 8
ENDMDL
MODEL 6
REMARK VINA RESULT:      -6.7      2.687      8.528
REMARK  Name = 
REMARK  12 active torsions:
REMARK  status: ('A' for Active; 'I' for Inactive)
REMARK    1  A    between atoms: C_1  and  O_2
REMARK    2  A    between atoms: O_2  and  C_3
REMARK    3  A    between atoms: C_5  and  C_6
REMARK    4  A    between atoms: C_8  and  C_9
REMARK    5  A    between atoms: C_9  and  O_10
REMARK    6  A    between atoms: C_12  and  O_13
REMARK    7  A    between atoms: O_13  and  C_14
REMARK    8  A    between atoms: C_15  and  O_16
REMARK    9  A    between atoms: O_16  and  C_17
REMARK   10  A    between atoms: C_18  and  O_19
REMARK   11  A    between atoms: O_19  and  C_20
REMARK   12  A    between atoms: C_26  and  O_27
REMARK                            x       y       z     vdW  Elec       q    Type
REMARK                         _______ _______ _______ _____ _____    ______ ____
ROOT
ATOM      1  C   UNL     1       2.535   6.152  19.160  0.00  0.00    +0.000 A 
ATOM      2  C   UNL     1       3.266   6.211  18.184  0.00  0.00    +0.000 A 
ATOM      3  C   UNL     1       4.307   5.259  18.136  0.00  0.00    +0.000 A 
ATOM      4  C   UNL     1       4.429   5.004  16.904  0.00  0.00    +0.000 A 
ATOM      5  C   UNL     1       5.364   5.688  16.025  0.00  0.00    +0.000 A 
ATOM      6  C   UNL     1       6.013   5.147  14.928  0.00  0.00    +0.000 A 
ATOM      7  C   UNL     1       5.725   3.781  14.763  0.00  0.00    +0.000 A 
ATOM      8  C   UNL     1       4.623   3.256  15.835  0.00  0.00    +0.000 A 
ATOM      9  C   UNL     1       3.561   4.037  17.040  0.00  0.00    +0.000 A 
ATOM     10  N   UNL     1       2.467   4.875  18.293  0.00  0.00    +0.000 NA
ENDROOT
BRANCH   1  13
ATOM     11  C   UNL     1       0.949   9.851  20.837  0.00  0.00    +0.000 A 
ATOM     12  C   UNL     1       1.617   8.535  20.738  0.00  0.00    +0.000 A 
ATOM     13  C   UNL     1       1.959   7.863  19.479  0.00  0.00    +0.000 A 
ATOM     14  C   UNL     1       1.767   8.807  18.411  0.00  0.00    +0.000 A 
ATOM     15  C   UNL     1       1.108  10.076  18.475  0.00  0.00    +0.000 A 
ATOM     16  C   UNL     1       0.675  10.577  19.673  0.00  0.00    +0.000 A 
BRANCH  11  18
ATOM     17  C   UNL     1      -0.230   9.407  22.884  0.00  0.00    +0.000 C 
ATOM     18  O   UNL     1       0.564  10.321  22.090  0.00  0.00    +0.000 OA
ENDBRANCH  11  18
BRANCH  16  19
ATOM     19  O   UNL     1       0.001  11.763  19.713  0.00  0.00    +0.000 OA
ATOM     20  H   UNL     1      -0.294  12.102  20.565  0.00  0.00    +0.000 HD
ENDBRANCH  16  19
ENDBRANCH   1  13
BRANCH   5  21
ATOM     21  O   UNL     1       5.727   6.940  16.508  0.00  0.00    +0.000 OA
ATOM     22  C   UNL     1       6.900   7.125  17.264  0.00  0.00    +0.000 C 
ENDBRANCH   5  21
BRANCH   6  23
ATOM     23  O   UNL     1       6.818   5.907  14.116  0.00  0.00    +0.000 OA
ATOM     24  C   UNL     1       8.185   5.440  14.020  0.00  0.00    +0.000 C 
ENDBRANCH   6  23
BRANCH   7  25
ATOM     25  O   UNL     1       6.256   3.289  13.543  0.00  0.00    +0.000 OA
ATOM     26  C   UNL     1       5.643   3.264  12.241  0.00  0.00    +0.000 C 
ENDBRANCH   7  25
BRANCH   3  27
ATOM     27  C   UNL     1       4.302   4.119  19.503  0.00  0.00    +0.000 C 
BRANCH  27  28
ATOM     28  O   UNL     1       5.389   3.147  19.538  0.00  0.00    +0.000 OA
ATOM     29  H   UNL     1       4.974   2.274  19.619  0.00  0.00    +0.000 HD
ENDBRANCH  27  28
ENDBRANCH   3  27
TORSDOF 8
ENDMDL
MODEL 7
REMARK VINA RESULT:      -6.6      5.694     12.127
REMARK  Name = 
REMARK  12 active torsions:
REMARK  status: ('A' for Active; 'I' for Inactive)
REMARK    1  A    between atoms: C_1  and  O_2
REMARK    2  A    between atoms: O_2  and  C_3
REMARK    3  A    between atoms: C_5  and  C_6
REMARK    4  A    between atoms: C_8  and  C_9
REMARK    5  A    between atoms: C_9  and  O_10
REMARK    6  A    between atoms: C_12  and  O_13
REMARK    7  A    between atoms: O_13  and  C_14
REMARK    8  A    between atoms: C_15  and  O_16
REMARK    9  A    between atoms: O_16  and  C_17
REMARK   10  A    between atoms: C_18  and  O_19
REMARK   11  A    between atoms: O_19  and  C_20
REMARK   12  A    between atoms: C_26  and  O_27
REMARK                            x       y       z     vdW  Elec       q    Type
REMARK                         _______ _______ _______ _____ _____    ______ ____
ROOT
ATOM      1  C   UNL     1      -1.480  12.263  19.859  0.00  0.00    +0.000 A 
ATOM      2  C   UNL     1      -0.763  11.320  20.158  0.00  0.00    +0.000 A 
ATOM      3  C   UNL     1      -0.785  10.223  19.271  0.00  0.00    +0.000 A 
ATOM      4  C   UNL     1       0.398   9.780  19.307  0.00  0.00    +0.000 A 
ATOM      5  C   UNL     1       0.836   8.717  20.198  0.00  0.00    +0.000 A 
ATOM      6  C   UNL     1       1.816   7.774  19.939  0.00  0.00    +0.000 A 
ATOM      7  C   UNL     1       2.337   7.896  18.639  0.00  0.00    +0.000 A 
ATOM      8  C   UNL     1       1.727   9.180  17.854  0.00  0.00    +0.000 A 
ATOM      9  C   UNL     1       0.701  10.569  18.311  0.00  0.00    +0.000 A 
ATOM     10  N   UNL     1      -0.373  12.005  18.812  0.00  0.00    +0.000 NA
ENDROOT
BRANCH   1  13
ATOM     11  C   UNL     1      -1.708  14.208  23.754  0.00  0.00    +0.000 A 
ATOM     12  C   UNL     1      -1.227  13.826  22.408  0.00  0.00    +0.000 A 
ATOM     13  C   UNL     1      -1.996  13.042  21.435  0.00  0.00    +0.000 A 
ATOM     14  C   UNL     1      -3.348  12.946  21.919  0.00  0.00    +0.000 A 
ATOM     15  C   UNL     1      -3.836  13.289  23.220  0.00  0.00    +0.000 A 
ATOM     16  C   UNL     1      -3.014  13.885  24.139  0.00  0.00    +0.000 A 
BRANCH  11  18
ATOM     17  C   UNL     1      -0.682  16.270  24.437  0.00  0.00    +0.000 C 
ATOM     18  O   UNL     1      -0.833  14.843  24.630  0.00  0.00    +0.000 OA
ENDBRANCH  11  18
BRANCH  16  19
ATOM     19  O   UNL     1      -3.477  14.158  25.393  0.00  0.00    +0.000 OA
ATOM     20  H   UNL     1      -3.251  15.001  25.799  0.00  0.00    +0.000 HD
ENDBRANCH  16  19
ENDBRANCH   1  13
BRANCH   5  21
ATOM     21  O   UNL     1       0.020   8.592  21.316  0.00  0.00    +0.000 OA
ATOM     22  C   UNL     1       0.401   9.117  22.566  0.00  0.00    +0.000 C 
ENDBRANCH   5  21
BRANCH   6  23
ATOM     23  O   UNL     1       2.209   6.860  20.886  0.00  0.00    +0.000 OA
ATOM     24  C   UNL     1       1.665   5.531  20.698  0.00  0.00    +0.000 C 
ENDBRANCH   6  23
BRANCH   7  25
ATOM     25  O   UNL     1       3.453   7.040  18.453  0.00  0.00    +0.000 OA
ATOM     26  C   UNL     1       4.291   6.894  17.291  0.00  0.00    +0.000 C 
ENDBRANCH   7  25
BRANCH   3  27
ATOM     27  C   UNL     1      -1.828  10.469  17.850  0.00  0.00    +0.000 C 
BRANCH  27  28
ATOM     28  O   UNL     1      -3.018   9.629  17.767  0.00  0.00    +0.000 OA
ATOM     29  H   UNL     1      -3.747  10.149  18.138  0.00  0.00    +0.000 HD
ENDBRANCH  27  28
ENDBRANCH   3  27
TORSDOF 8
ENDMDL
MODEL 8
REMARK VINA RESULT:      -6.6      5.707     12.143
REMARK  Name = 
REMARK  12 active torsions:
REMARK  status: ('A' for Active; 'I' for Inactive)
REMARK    1  A    between atoms: C_1  and  O_2
REMARK    2  A    between atoms: O_2  and  C_3
REMARK    3  A    between atoms: C_5  and  C_6
REMARK    4  A    between atoms: C_8  and  C_9
REMARK    5  A    between atoms: C_9  and  O_10
REMARK    6  A    between atoms: C_12  and  O_13
REMARK    7  A    between atoms: O_13  and  C_14
REMARK    8  A    between atoms: C_15  and  O_16
REMARK    9  A    between atoms: O_16  and  C_17
REMARK   10  A    between atoms: C_18  and  O_19
REMARK   11  A    between atoms: O_19  and  C_20
REMARK   12  A    between atoms: C_26  and  O_27
REMARK                            x       y       z     vdW  Elec       q    Type
REMARK                         _______ _______ _______ _____ _____    ______ ____
ROOT
ATOM      1  C   UNL     1      -1.357  12.259  20.286  0.00  0.00    +0.000 A 
ATOM      2  C   UNL     1      -0.678  11.265  20.491  0.00  0.00    +0.000 A 
ATOM      3  C   UNL     1      -0.689  10.291  19.469  0.00  0.00    +0.000 A 
ATOM      4  C   UNL     1       0.480   9.811  19.495  0.00  0.00    +0.000 A 
ATOM      5  C   UNL     1       0.851   8.630  20.258  0.00  0.00    +0.000 A 
ATOM      6  C   UNL     1       1.818   7.698  19.920  0.00  0.00    +0.000 A 
ATOM      7  C   UNL     1       2.399   7.969  18.669  0.00  0.00    +0.000 A 
ATOM      8  C   UNL     1       1.856   9.361  18.032  0.00  0.00    +0.000 A 
ATOM      9  C   UNL     1       0.847  10.711  18.623  0.00  0.00    +0.000 A 
ATOM     10  N   UNL     1      -0.211  12.104  19.261  0.00  0.00    +0.000 NA
ENDROOT
BRANCH   1  13
ATOM     11  C   UNL     1      -3.475  13.024  24.020  0.00  0.00    +0.000 A 
ATOM     12  C   UNL     1      -2.962  12.324  22.822  0.00  0.00    +0.000 A 
ATOM     13  C   UNL     1      -1.922  12.846  21.928  0.00  0.00    +0.000 A 
ATOM     14  C   UNL     1      -1.336  13.998  22.562  0.00  0.00    +0.000 A 
ATOM     15  C   UNL     1      -1.821  14.704  23.708  0.00  0.00    +0.000 A 
ATOM     16  C   UNL     1      -2.900  14.239  24.410  0.00  0.00    +0.000 A 
BRANCH  11  18
ATOM     17  C   UNL     1      -5.857  12.728  24.132  0.00  0.00    +0.000 C 
ATOM     18  O   UNL     1      -4.553  12.480  24.712  0.00  0.00    +0.000 OA
ENDBRANCH  11  18
BRANCH  16  19
ATOM     19  O   UNL     1      -3.384  14.951  25.468  0.00  0.00    +0.000 OA
ATOM     20  H   UNL     1      -4.311  15.213  25.468  0.00  0.00    +0.000 HD
ENDBRANCH  16  19
ENDBRANCH   1  13
BRANCH   5  21
ATOM     21  O   UNL     1      -0.016   8.389  21.317  0.00  0.00    +0.000 OA
ATOM     22  C   UNL     1       0.254   8.869  22.613  0.00  0.00    +0.000 C 
ENDBRANCH   5  21
BRANCH   6  23
ATOM     23  O   UNL     1       2.145   6.659  20.756  0.00  0.00    +0.000 OA
ATOM     24  C   UNL     1       1.488   5.407  20.442  0.00  0.00    +0.000 C 
ENDBRANCH   6  23
BRANCH   7  25
ATOM     25  O   UNL     1       3.500   7.109  18.419  0.00  0.00    +0.000 OA
ATOM     26  C   UNL     1       4.309   7.007  17.233  0.00  0.00    +0.000 C 
ENDBRANCH   7  25
BRANCH   3  27
ATOM     27  C   UNL     1      -1.661  10.749  18.050  0.00  0.00    +0.000 C 
BRANCH  27  28
ATOM     28  O   UNL     1      -2.090   9.659  17.181  0.00  0.00    +0.000 OA
ATOM     29  H   UNL     1      -1.474   9.646  16.432  0.00  0.00    +0.000 HD
ENDBRANCH  27  28
ENDBRANCH   3  27
TORSDOF 8
ENDMDL
MODEL 9
REMARK VINA RESULT:      -6.6      9.648     11.992
REMARK  Name = 
REMARK  12 active torsions:
REMARK  status: ('A' for Active; 'I' for Inactive)
REMARK    1  A    between atoms: C_1  and  O_2
REMARK    2  A    between atoms: O_2  and  C_3
REMARK    3  A    between atoms: C_5  and  C_6
REMARK    4  A    between atoms: C_8  and  C_9
REMARK    5  A    between atoms: C_9  and  O_10
REMARK    6  A    between atoms: C_12  and  O_13
REMARK    7  A    between atoms: O_13  and  C_14
REMARK    8  A    between atoms: C_15  and  O_16
REMARK    9  A    between atoms: O_16  and  C_17
REMARK   10  A    between atoms: C_18  and  O_19
REMARK   11  A    between atoms: O_19  and  C_20
REMARK   12  A    between atoms: C_26  and  O_27
REMARK                            x       y       z     vdW  Elec       q    Type
REMARK                         _______ _______ _______ _____ _____    ______ ____
ROOT
ATOM      1  C   UNL     1      -0.362  11.607  18.906  0.00  0.00    +0.000 A 
ATOM      2  C   UNL     1      -0.019  12.761  18.698  0.00  0.00    +0.000 A 
ATOM      3  C   UNL     1       0.859  13.323  19.649  0.00  0.00    +0.000 A 
ATOM      4  C   UNL     1       1.599  14.086  18.966  0.00  0.00    +0.000 A 
ATOM      5  C   UNL     1       1.331  15.501  18.760  0.00  0.00    +0.000 A 
ATOM      6  C   UNL     1       2.271  16.506  18.605  0.00  0.00    +0.000 A 
ATOM      7  C   UNL     1       3.585  16.025  18.737  0.00  0.00    +0.000 A 
ATOM      8  C   UNL     1       3.631  14.411  18.916  0.00  0.00    +0.000 A 
ATOM      9  C   UNL     1       2.430  13.093  18.797  0.00  0.00    +0.000 A 
ATOM     10  N   UNL     1       1.160  11.738  18.673  0.00  0.00    +0.000 NA
ENDROOT
BRANCH   1  13
ATOM     11  C   UNL     1      -3.865  11.072  16.365  0.00  0.00    +0.000 A 
ATOM     12  C   UNL     1      -2.487  10.949  16.891  0.00  0.00    +0.000 A 
ATOM     13  C   UNL     1      -2.047  11.434  18.204  0.00  0.00    +0.000 A 
ATOM     14  C   UNL     1      -3.219  11.798  18.955  0.00  0.00    +0.000 A 
ATOM     15  C   UNL     1      -4.557  11.942  18.468  0.00  0.00    +0.000 A 
ATOM     16  C   UNL     1      -4.869  11.612  17.176  0.00  0.00    +0.000 A 
BRANCH  11  18
ATOM     17  C   UNL     1      -3.028  10.042  14.362  0.00  0.00    +0.000 C 
ATOM     18  O   UNL     1      -4.125  10.686  15.053  0.00  0.00    +0.000 OA
ENDBRANCH  11  18
BRANCH  16  19
ATOM     19  O   UNL     1      -6.137  11.805  16.710  0.00  0.00    +0.000 OA
ATOM     20  H   UNL     1      -6.852  11.927  17.343  0.00  0.00    +0.000 HD
ENDBRANCH  16  19
ENDBRANCH   1  13
BRANCH   5  21
ATOM     21  O   UNL     1      -0.012  15.817  18.931  0.00  0.00    +0.000 OA
ATOM     22  C   UNL     1      -0.472  16.467  20.092  0.00  0.00    +0.000 C 
ENDBRANCH   5  21
BRANCH   6  23
ATOM     23  O   UNL     1       1.907  17.802  18.335  0.00  0.00    +0.000 OA
ATOM     24  C   UNL     1       1.508  18.040  16.964  0.00  0.00    +0.000 C 
ENDBRANCH   6  23
BRANCH   7  25
ATOM     25  O   UNL     1       4.533  17.028  18.405  0.00  0.00    +0.000 OA
ATOM     26  C   UNL     1       5.869  17.204  18.910  0.00  0.00    +0.000 C 
ENDBRANCH   7  25
BRANCH   3  27
ATOM     27  C   UNL     1       1.331  12.198  20.945  0.00  0.00    +0.000 C 
BRANCH  27  28
ATOM     28  O   UNL     1       0.354  11.987  22.006  0.00  0.00    +0.000 OA
ATOM     29  H   UNL     1       0.113  11.048  21.975  0.00  0.00    +0.000 HD
ENDBRANCH  27  28
ENDBRANCH   3  27
TORSDOF 8
ENDMDL
