MODEL 1
REMARK VINA RESULT:      -9.2      0.000      0.000
REMARK  Name = 
REMARK  8 active torsions:
REMARK  status: ('A' for Active; 'I' for Inactive)
REMARK    1  A    between atoms: C_1  and  C_2
REMARK    2  A    between atoms: C_5  and  N_6
REMARK    3  A    between atoms: C_11  and  C_12
REMARK    4  A    between atoms: C_16  and  C_17
REMARK    5  A    between atoms: C_18  and  C_19
REMARK    6  A    between atoms: C_23  and  C_24
REMARK    7  A    between atoms: C_24  and  O_25
REMARK    8  A    between atoms: C_29  and  C_30
REMARK                            x       y       z     vdW  Elec       q    Type
REMARK                         _______ _______ _______ _____ _____    ______ ____
ROOT
ATOM      1  C   UNL     1       3.701   5.133  17.450  0.00  0.00    +0.000 C 
ATOM      2  O   UNL     1       3.067   4.139  17.121  0.00  0.00    +0.000 OA
ATOM      3  N   UNL     1       4.977   5.473  16.928  0.00  0.00    +0.000 N 
ATOM      4  C   UNL     1       5.695   6.669  17.394  0.00  0.00    +0.000 C 
ATOM      5  C   UNL     1       7.195   6.542  17.366  0.00  0.00    +0.000 C 
ATOM      6  C   UNL     1       7.687   6.132  15.986  0.00  0.00    +0.000 C 
ATOM      7  C   UNL     1       6.983   4.849  15.555  0.00  0.00    +0.000 C 
ATOM      8  C   UNL     1       5.437   4.967  15.605  0.00  0.00    +0.000 C 
ATOM      9  C   UNL     1       4.856   3.647  15.095  0.00  0.00    +0.000 C 
ENDROOT
BRANCH   1  15
ATOM     10  C   UNL     1       2.057   9.749  18.117  0.00  0.00    +0.000 C 
ATOM     11  C   UNL     1       2.100   8.349  18.654  0.00  0.00    +0.000 A 
ATOM     12  C   UNL     1       1.659   8.026  19.930  0.00  0.00    +0.000 A 
ATOM     13  C   UNL     1       1.827   6.721  20.412  0.00  0.00    +0.000 A 
ATOM     14  C   UNL     1       2.550   5.756  19.673  0.00  0.00    +0.000 A 
ATOM     15  C   UNL     1       3.019   6.079  18.396  0.00  0.00    +0.000 A 
ATOM     16  C   UNL     1       2.670   7.340  17.873  0.00  0.00    +0.000 A 
BRANCH  14  17
ATOM     17  N   UNL     1       2.741   4.487  20.273  0.00  0.00    +0.000 N 
ATOM     18  N   UNL     1       3.859   3.734  20.107  0.00  0.00    +0.000 NA
ATOM     19  C   UNL     1       3.554   2.628  20.793  0.00  0.00    +0.000 A 
ATOM     20  C   UNL     1       2.326   2.790  21.436  0.00  0.00    +0.000 A 
ATOM     21  N   UNL     1       1.852   4.014  21.200  0.00  0.00    +0.000 NA
ENDBRANCH  14  17
ENDBRANCH   1  15
BRANCH   5  22
ATOM     22  C   UNL     1       7.833   7.843  17.826  0.00  0.00    +0.000 C 
ATOM     23  C   UNL     1       8.381   8.958  18.221  0.00  0.00    +0.000 C 
BRANCH  23  24
ATOM     24  C   UNL     1       9.047  10.126  18.702  0.00  0.00    +0.000 A 
ATOM     25  C   UNL     1       9.162  10.381  20.059  0.00  0.00    +0.000 A 
ATOM     26  N   UNL     1       9.807  11.455  20.574  0.00  0.00    +0.000 NA
ATOM     27  C   UNL     1      10.379  12.300  19.685  0.00  0.00    +0.000 A 
ATOM     28  C   UNL     1      10.344  12.128  18.305  0.00  0.00    +0.000 A 
ATOM     29  C   UNL     1       9.640  11.021  17.815  0.00  0.00    +0.000 A 
BRANCH  28  30
ATOM     30  C   UNL     1      10.982  13.140  17.397  0.00  0.00    +0.000 C 
BRANCH  30  31
ATOM     31  O   UNL     1      10.083  14.195  17.075  0.00  0.00    +0.000 OA
ATOM     32  H   UNL     1       9.459  13.847  16.415  0.00  0.00    +0.000 HD
ENDBRANCH  30  31
ENDBRANCH  28  30
ENDBRANCH  23  24
ENDBRANCH   5  22
TORSDOF 6
ENDMDL
MODEL 2
REMARK VINA RESULT:      -8.7      1.385      1.740
REMARK  Name = 
REMARK  8 active torsions:
REMARK  status: ('A' for Active; 'I' for Inactive)
REMARK    1  A    between atoms: C_1  and  C_2
REMARK    2  A    between atoms: C_5  and  N_6
REMARK    3  A    between atoms: C_11  and  C_12
REMARK    4  A    between atoms: C_16  and  C_17
REMARK    5  A    between atoms: C_18  and  C_19
REMARK    6  A    between atoms: C_23  and  C_24
REMARK    7  A    between atoms: C_24  and  O_25
REMARK    8  A    between atoms: C_29  and  C_30
REMARK                            x       y       z     vdW  Elec       q    Type
REMARK                         _______ _______ _______ _____ _____    ______ ____
ROOT
ATOM      1  C   UNL     1       3.694   5.186  17.435  0.00  0.00    +0.000 C 
ATOM      2  O   UNL     1       3.051   4.196  17.107  0.00  0.00    +0.000 OA
ATOM      3  N   UNL     1       4.979   5.506  16.923  0.00  0.00    +0.000 N 
ATOM      4  C   UNL     1       5.706   6.697  17.388  0.00  0.00    +0.000 C 
ATOM      5  C   UNL     1       7.205   6.552  17.377  0.00  0.00    +0.000 C 
ATOM      6  C   UNL     1       7.706   6.126  16.005  0.00  0.00    +0.000 C 
ATOM      7  C   UNL     1       6.991   4.847  15.576  0.00  0.00    +0.000 C 
ATOM      8  C   UNL     1       5.446   4.985  15.610  0.00  0.00    +0.000 C 
ATOM      9  C   UNL     1       4.854   3.667  15.103  0.00  0.00    +0.000 C 
ENDROOT
BRANCH   1  15
ATOM     10  C   UNL     1       2.043   9.809  18.027  0.00  0.00    +0.000 C 
ATOM     11  C   UNL     1       2.091   8.419  18.589  0.00  0.00    +0.000 A 
ATOM     12  C   UNL     1       1.655   8.117  19.872  0.00  0.00    +0.000 A 
ATOM     13  C   UNL     1       1.828   6.822  20.376  0.00  0.00    +0.000 A 
ATOM     14  C   UNL     1       2.550   5.845  19.651  0.00  0.00    +0.000 A 
ATOM     15  C   UNL     1       3.013   6.146  18.367  0.00  0.00    +0.000 A 
ATOM     16  C   UNL     1       2.660   7.397  17.823  0.00  0.00    +0.000 A 
BRANCH  14  17
ATOM     17  N   UNL     1       2.746   4.587  20.273  0.00  0.00    +0.000 N 
ATOM     18  N   UNL     1       3.866   3.836  20.119  0.00  0.00    +0.000 NA
ATOM     19  C   UNL     1       3.567   2.741  20.824  0.00  0.00    +0.000 A 
ATOM     20  C   UNL     1       2.338   2.909  21.465  0.00  0.00    +0.000 A 
ATOM     21  N   UNL     1       1.859   4.127  21.209  0.00  0.00    +0.000 NA
ENDBRANCH  14  17
ENDBRANCH   1  15
BRANCH   5  22
ATOM     22  C   UNL     1       7.854   7.848  17.834  0.00  0.00    +0.000 C 
ATOM     23  C   UNL     1       8.411   8.960  18.226  0.00  0.00    +0.000 C 
BRANCH  23  24
ATOM     24  C   UNL     1       8.983  10.161  18.743  0.00  0.00    +0.000 A 
ATOM     25  C   UNL     1       9.576  11.094  17.908  0.00  0.00    +0.000 A 
ATOM     26  N   UNL     1      10.106  12.264  18.338  0.00  0.00    +0.000 NA
ATOM     27  C   UNL     1      10.020  12.516  19.665  0.00  0.00    +0.000 A 
ATOM     28  C   UNL     1       9.426  11.661  20.589  0.00  0.00    +0.000 A 
ATOM     29  C   UNL     1       8.918  10.449  20.105  0.00  0.00    +0.000 A 
BRANCH  28  30
ATOM     30  C   UNL     1       9.407  12.014  22.049  0.00  0.00    +0.000 C 
BRANCH  30  31
ATOM     31  O   UNL     1       8.697  11.047  22.813  0.00  0.00    +0.000 OA
ATOM     32  H   UNL     1       8.414  10.349  22.197  0.00  0.00    +0.000 HD
ENDBRANCH  30  31
ENDBRANCH  28  30
ENDBRANCH  23  24
ENDBRANCH   5  22
TORSDOF 6
ENDMDL
MODEL 3
REMARK VINA RESULT:      -8.6      0.829      1.049
REMARK  Name = 
REMARK  8 active torsions:
REMARK  status: ('A' for Active; 'I' for Inactive)
REMARK    1  A    between atoms: C_1  and  C_2
REMARK    2  A    between atoms: C_5  and  N_6
REMARK    3  A    between atoms: C_11  and  C_12
REMARK    4  A    between atoms: C_16  and  C_17
REMARK    5  A    between atoms: C_18  and  C_19
REMARK    6  A    between atoms: C_23  and  C_24
REMARK    7  A    between atoms: C_24  and  O_25
REMARK    8  A    between atoms: C_29  and  C_30
REMARK                            x       y       z     vdW  Elec       q    Type
REMARK                         _______ _______ _______ _____ _____    ______ ____
ROOT
ATOM      1  C   UNL     1       3.540   5.227  17.593  0.00  0.00    +0.000 C 
ATOM      2  O   UNL     1       2.895   4.221  17.326  0.00  0.00    +0.000 OA
ATOM      3  N   UNL     1       4.834   5.504  17.076  0.00  0.00    +0.000 N 
ATOM      4  C   UNL     1       5.564   6.719  17.468  0.00  0.00    +0.000 C 
ATOM      5  C   UNL     1       7.061   6.566  17.484  0.00  0.00    +0.000 C 
ATOM      6  C   UNL     1       7.576   6.044  16.151  0.00  0.00    +0.000 C 
ATOM      7  C   UNL     1       6.857   4.743  15.801  0.00  0.00    +0.000 C 
ATOM      8  C   UNL     1       5.312   4.892  15.807  0.00  0.00    +0.000 C 
ATOM      9  C   UNL     1       4.718   3.546  15.384  0.00  0.00    +0.000 C 
ENDROOT
BRANCH   1  15
ATOM     10  C   UNL     1       2.257   9.985  18.010  0.00  0.00    +0.000 C 
ATOM     11  C   UNL     1       2.122   8.600  18.574  0.00  0.00    +0.000 A 
ATOM     12  C   UNL     1       1.531   8.351  19.805  0.00  0.00    +0.000 A 
ATOM     13  C   UNL     1       1.534   7.050  20.324  0.00  0.00    +0.000 A 
ATOM     14  C   UNL     1       2.236   6.006  19.678  0.00  0.00    +0.000 A 
ATOM     15  C   UNL     1       2.855   6.253  18.450  0.00  0.00    +0.000 A 
ATOM     16  C   UNL     1       2.674   7.525  17.872  0.00  0.00    +0.000 A 
BRANCH  14  17
ATOM     17  N   UNL     1       2.254   4.742  20.317  0.00  0.00    +0.000 N 
ATOM     18  N   UNL     1       1.136   4.031  20.617  0.00  0.00    +0.000 NA
ATOM     19  C   UNL     1       1.643   2.970  21.252  0.00  0.00    +0.000 A 
ATOM     20  C   UNL     1       3.037   3.016  21.219  0.00  0.00    +0.000 A 
ATOM     21  N   UNL     1       3.436   4.085  20.528  0.00  0.00    +0.000 NA
ENDBRANCH  14  17
ENDBRANCH   1  15
BRANCH   5  22
ATOM     22  C   UNL     1       7.714   7.886  17.859  0.00  0.00    +0.000 C 
ATOM     23  C   UNL     1       8.274   9.019  18.181  0.00  0.00    +0.000 C 
BRANCH  23  24
ATOM     24  C   UNL     1       8.840  10.254  18.619  0.00  0.00    +0.000 A 
ATOM     25  C   UNL     1       9.771  10.295  19.644  0.00  0.00    +0.000 A 
ATOM     26  N   UNL     1      10.365  11.432  20.081  0.00  0.00    +0.000 NA
ATOM     27  C   UNL     1      10.020  12.575  19.447  0.00  0.00    +0.000 A 
ATOM     28  C   UNL     1       9.115  12.646  18.392  0.00  0.00    +0.000 A 
ATOM     29  C   UNL     1       8.503  11.452  17.994  0.00  0.00    +0.000 A 
BRANCH  28  30
ATOM     30  C   UNL     1       8.771  13.971  17.773  0.00  0.00    +0.000 C 
BRANCH  30  31
ATOM     31  O   UNL     1       7.507  13.933  17.122  0.00  0.00    +0.000 OA
ATOM     32  H   UNL     1       7.581  13.296  16.391  0.00  0.00    +0.000 HD
ENDBRANCH  30  31
ENDBRANCH  28  30
ENDBRANCH  23  24
ENDBRANCH   5  22
TORSDOF 6
ENDMDL
MODEL 4
REMARK VINA RESULT:      -8.5      1.208      1.408
REMARK  Name = 
REMARK  8 active torsions:
REMARK  status: ('A' for Active; 'I' for Inactive)
REMARK    1  A    between atoms: C_1  and  C_2
REMARK    2  A    between atoms: C_5  and  N_6
REMARK    3  A    between atoms: C_11  and  C_12
REMARK    4  A    between atoms: C_16  and  C_17
REMARK    5  A    between atoms: C_18  and  C_19
REMARK    6  A    between atoms: C_23  and  C_24
REMARK    7  A    between atoms: C_24  and  O_25
REMARK    8  A    between atoms: C_29  and  C_30
REMARK                            x       y       z     vdW  Elec       q    Type
REMARK                         _______ _______ _______ _____ _____    ______ ____
ROOT
ATOM      1  C   UNL     1       3.437   5.116  17.849  0.00  0.00    +0.000 C 
ATOM      2  O   UNL     1       2.813   4.071  17.716  0.00  0.00    +0.000 OA
ATOM      3  N   UNL     1       4.706   5.366  17.263  0.00  0.00    +0.000 N 
ATOM      4  C   UNL     1       5.412   6.635  17.493  0.00  0.00    +0.000 C 
ATOM      5  C   UNL     1       6.913   6.521  17.477  0.00  0.00    +0.000 C 
ATOM      6  C   UNL     1       7.403   5.867  16.194  0.00  0.00    +0.000 C 
ATOM      7  C   UNL     1       6.711   4.518  16.014  0.00  0.00    +0.000 C 
ATOM      8  C   UNL     1       5.164   4.628  16.054  0.00  0.00    +0.000 C 
ATOM      9  C   UNL     1       4.596   3.229  15.803  0.00  0.00    +0.000 C 
ENDROOT
BRANCH   1  15
ATOM     10  C   UNL     1       2.361   9.942  17.952  0.00  0.00    +0.000 C 
ATOM     11  C   UNL     1       2.124   8.595  18.571  0.00  0.00    +0.000 A 
ATOM     12  C   UNL     1       1.443   8.436  19.770  0.00  0.00    +0.000 A 
ATOM     13  C   UNL     1       1.349   7.164  20.350  0.00  0.00    +0.000 A 
ATOM     14  C   UNL     1       2.041   6.058  19.802  0.00  0.00    +0.000 A 
ATOM     15  C   UNL     1       2.749   6.214  18.608  0.00  0.00    +0.000 A 
ATOM     16  C   UNL     1       2.667   7.462  17.959  0.00  0.00    +0.000 A 
BRANCH  14  17
ATOM     17  N   UNL     1       1.956   4.828  20.500  0.00  0.00    +0.000 N 
ATOM     18  N   UNL     1       2.875   4.410  21.409  0.00  0.00    +0.000 NA
ATOM     19  C   UNL     1       2.412   3.200  21.737  0.00  0.00    +0.000 A 
ATOM     20  C   UNL     1       1.186   2.973  21.110  0.00  0.00    +0.000 A 
ATOM     21  N   UNL     1       0.833   4.050  20.407  0.00  0.00    +0.000 NA
ENDBRANCH  14  17
ENDBRANCH   1  15
BRANCH   5  22
ATOM     22  C   UNL     1       7.539   7.891  17.682  0.00  0.00    +0.000 C 
ATOM     23  C   UNL     1       8.076   9.067  17.858  0.00  0.00    +0.000 C 
BRANCH  23  24
ATOM     24  C   UNL     1       8.643  10.344  18.146  0.00  0.00    +0.000 A 
ATOM     25  C   UNL     1       8.108  11.506  17.614  0.00  0.00    +0.000 A 
ATOM     26  N   UNL     1       8.584  12.747  17.876  0.00  0.00    +0.000 NA
ATOM     27  C   UNL     1       9.634  12.824  18.725  0.00  0.00    +0.000 A 
ATOM     28  C   UNL     1      10.235  11.726  19.333  0.00  0.00    +0.000 A 
ATOM     29  C   UNL     1       9.730  10.460  19.010  0.00  0.00    +0.000 A 
BRANCH  28  30
ATOM     30  C   UNL     1      11.420  11.911  20.238  0.00  0.00    +0.000 C 
BRANCH  30  31
ATOM     31  O   UNL     1      12.093  13.137  19.975  0.00  0.00    +0.000 OA
ATOM     32  H   UNL     1      12.987  13.057  20.348  0.00  0.00    +0.000 HD
ENDBRANCH  30  31
ENDBRANCH  28  30
ENDBRANCH  23  24
ENDBRANCH   5  22
TORSDOF 6
ENDMDL
MODEL 5
REMARK VINA RESULT:      -8.5      3.487      9.482
REMARK  Name = 
REMARK  8 active torsions:
REMARK  status: ('A' for Active; 'I' for Inactive)
REMARK    1  A    between atoms: C_1  and  C_2
REMARK    2  A    between atoms: C_5  and  N_6
REMARK    3  A    between atoms: C_11  and  C_12
REMARK    4  A    between atoms: C_16  and  C_17
REMARK    5  A    between atoms: C_18  and  C_19
REMARK    6  A    between atoms: C_23  and  C_24
REMARK    7  A    between atoms: C_24  and  O_25
REMARK    8  A    between atoms: C_29  and  C_30
REMARK                            x       y       z     vdW  Elec       q    Type
REMARK                         _______ _______ _______ _____ _____    ______ ____
ROOT
ATOM      1  C   UNL     1       9.281  14.368  20.579  0.00  0.00    +0.000 C 
ATOM      2  O   UNL     1       9.700  15.511  20.715  0.00  0.00    +0.000 OA
ATOM      3  N   UNL     1       9.862  13.405  19.712  0.00  0.00    +0.000 N 
ATOM      4  C   UNL     1       9.285  12.060  19.576  0.00  0.00    +0.000 C 
ATOM      5  C   UNL     1       9.474  11.438  18.218  0.00  0.00    +0.000 C 
ATOM      6  C   UNL     1      10.942  11.429  17.816  0.00  0.00    +0.000 C 
ATOM      7  C   UNL     1      11.500  12.847  17.894  0.00  0.00    +0.000 C 
ATOM      8  C   UNL     1      11.285  13.500  19.285  0.00  0.00    +0.000 C 
ATOM      9  C   UNL     1      11.939  14.884  19.251  0.00  0.00    +0.000 C 
ENDROOT
BRANCH   1  15
ATOM     10  C   UNL     1       7.900  11.610  24.444  0.00  0.00    +0.000 C 
ATOM     11  C   UNL     1       7.505  12.678  23.466  0.00  0.00    +0.000 A 
ATOM     12  C   UNL     1       6.198  13.130  23.344  0.00  0.00    +0.000 A 
ATOM     13  C   UNL     1       5.874  14.049  22.339  0.00  0.00    +0.000 A 
ATOM     14  C   UNL     1       6.825  14.434  21.365  0.00  0.00    +0.000 A 
ATOM     15  C   UNL     1       8.138  13.965  21.465  0.00  0.00    +0.000 A 
ATOM     16  C   UNL     1       8.469  13.190  22.594  0.00  0.00    +0.000 A 
BRANCH  14  17
ATOM     17  N   UNL     1       6.387  15.304  20.337  0.00  0.00    +0.000 N 
ATOM     18  N   UNL     1       6.470  16.658  20.407  0.00  0.00    +0.000 NA
ATOM     19  C   UNL     1       5.889  17.032  19.263  0.00  0.00    +0.000 A 
ATOM     20  C   UNL     1       5.578  15.908  18.497  0.00  0.00    +0.000 A 
ATOM     21  N   UNL     1       5.992  14.807  19.124  0.00  0.00    +0.000 NA
ENDBRANCH  14  17
ENDBRANCH   1  15
BRANCH   5  22
ATOM     22  C   UNL     1       8.879  10.039  18.200  0.00  0.00    +0.000 C 
ATOM     23  C   UNL     1       8.368   8.839  18.185  0.00  0.00    +0.000 C 
BRANCH  23  24
ATOM     24  C   UNL     1       7.802   7.534  18.071  0.00  0.00    +0.000 A 
ATOM     25  C   UNL     1       8.124   6.529  18.969  0.00  0.00    +0.000 A 
ATOM     26  N   UNL     1       7.596   5.282  18.928  0.00  0.00    +0.000 NA
ATOM     27  C   UNL     1       6.690   5.041  17.953  0.00  0.00    +0.000 A 
ATOM     28  C   UNL     1       6.277   5.982  17.015  0.00  0.00    +0.000 A 
ATOM     29  C   UNL     1       6.871   7.249  17.075  0.00  0.00    +0.000 A 
BRANCH  28  30
ATOM     30  C   UNL     1       5.287   5.609  15.949  0.00  0.00    +0.000 C 
BRANCH  30  31
ATOM     31  O   UNL     1       4.664   4.360  16.226  0.00  0.00    +0.000 OA
ATOM     32  H   UNL     1       3.712   4.474  16.066  0.00  0.00    +0.000 HD
ENDBRANCH  30  31
ENDBRANCH  28  30
ENDBRANCH  23  24
ENDBRANCH   5  22
TORSDOF 6
ENDMDL
MODEL 6
REMARK VINA RESULT:      -7.8      4.902      9.379
REMARK  Name = 
REMARK  8 active torsions:
REMARK  status: ('A' for Active; 'I' for Inactive)
REMARK    1  A    between atoms: C_1  and  C_2
REMARK    2  A    between atoms: C_5  and  N_6
REMARK    3  A    between atoms: C_11  and  C_12
REMARK    4  A    between atoms: C_16  and  C_17
REMARK    5  A    between atoms: C_18  and  C_19
REMARK    6  A    between atoms: C_23  and  C_24
REMARK    7  A    between atoms: C_24  and  O_25
REMARK    8  A    between atoms: C_29  and  C_30
REMARK                            x       y       z     vdW  Elec       q    Type
REMARK                         _______ _______ _______ _____ _____    ______ ____
ROOT
ATOM      1  C   UNL     1       0.443  13.041  21.388  0.00  0.00    +0.000 C 
ATOM      2  O   UNL     1      -0.020  14.034  21.935  0.00  0.00    +0.000 OA
ATOM      3  N   UNL     1       0.110  11.708  21.745  0.00  0.00    +0.000 N 
ATOM      4  C   UNL     1       0.731  10.562  21.063  0.00  0.00    +0.000 C 
ATOM      5  C   UNL     1       0.890   9.339  21.927  0.00  0.00    +0.000 C 
ATOM      6  C   UNL     1      -0.435   8.930  22.552  0.00  0.00    +0.000 C 
ATOM      7  C   UNL     1      -1.025  10.113  23.315  0.00  0.00    +0.000 C 
ATOM      8  C   UNL     1      -1.168  11.383  22.434  0.00  0.00    +0.000 C 
ATOM      9  C   UNL     1      -1.822  12.468  23.293  0.00  0.00    +0.000 C 
ENDROOT
BRANCH   1  15
ATOM     10  C   UNL     1       4.688  15.067  19.860  0.00  0.00    +0.000 C 
ATOM     11  C   UNL     1       3.521  14.195  19.503  0.00  0.00    +0.000 A 
ATOM     12  C   UNL     1       3.271  13.779  18.202  0.00  0.00    +0.000 A 
ATOM     13  C   UNL     1       2.105  13.057  17.917  0.00  0.00    +0.000 A 
ATOM     14  C   UNL     1       1.114  12.849  18.904  0.00  0.00    +0.000 A 
ATOM     15  C   UNL     1       1.345  13.285  20.212  0.00  0.00    +0.000 A 
ATOM     16  C   UNL     1       2.606  13.843  20.500  0.00  0.00    +0.000 A 
BRANCH  14  17
ATOM     17  N   UNL     1      -0.070  12.180  18.506  0.00  0.00    +0.000 N 
ATOM     18  N   UNL     1      -0.120  10.862  18.184  0.00  0.00    +0.000 NA
ATOM     19  C   UNL     1      -1.398  10.712  17.821  0.00  0.00    +0.000 A 
ATOM     20  C   UNL     1      -2.097  11.900  18.039  0.00  0.00    +0.000 A 
ATOM     21  N   UNL     1      -1.284  12.808  18.580  0.00  0.00    +0.000 NA
ENDBRANCH  14  17
ENDBRANCH   1  15
BRANCH   5  22
ATOM     22  C   UNL     1       1.501   8.207  21.115  0.00  0.00    +0.000 C 
ATOM     23  C   UNL     1       2.025   7.237  20.420  0.00  0.00    +0.000 C 
BRANCH  23  24
ATOM     24  C   UNL     1       2.639   6.242  19.601  0.00  0.00    +0.000 A 
ATOM     25  C   UNL     1       3.079   6.535  18.321  0.00  0.00    +0.000 A 
ATOM     26  N   UNL     1       3.696   5.642  17.510  0.00  0.00    +0.000 NA
ATOM     27  C   UNL     1       3.895   4.404  18.017  0.00  0.00    +0.000 A 
ATOM     28  C   UNL     1       3.516   4.008  19.296  0.00  0.00    +0.000 A 
ATOM     29  C   UNL     1       2.854   4.955  20.088  0.00  0.00    +0.000 A 
BRANCH  28  30
ATOM     30  C   UNL     1       3.752   2.599  19.758  0.00  0.00    +0.000 C 
BRANCH  30  31
ATOM     31  O   UNL     1       5.140   2.316  19.889  0.00  0.00    +0.000 OA
ATOM     32  H   UNL     1       5.256   1.837  20.727  0.00  0.00    +0.000 HD
ENDBRANCH  30  31
ENDBRANCH  28  30
ENDBRANCH  23  24
ENDBRANCH   5  22
TORSDOF 6
ENDMDL
MODEL 7
REMARK VINA RESULT:      -7.8      3.484      9.171
REMARK  Name = 
REMARK  8 active torsions:
REMARK  status: ('A' for Active; 'I' for Inactive)
REMARK    1  A    between atoms: C_1  and  C_2
REMARK    2  A    between atoms: C_5  and  N_6
REMARK    3  A    between atoms: C_11  and  C_12
REMARK    4  A    between atoms: C_16  and  C_17
REMARK    5  A    between atoms: C_18  and  C_19
REMARK    6  A    between atoms: C_23  and  C_24
REMARK    7  A    between atoms: C_24  and  O_25
REMARK    8  A    between atoms: C_29  and  C_30
REMARK                            x       y       z     vdW  Elec       q    Type
REMARK                         _______ _______ _______ _____ _____    ______ ____
ROOT
ATOM      1  C   UNL     1       8.873  15.070  19.530  0.00  0.00    +0.000 C 
ATOM      2  O   UNL     1       9.328  16.205  19.607  0.00  0.00    +0.000 OA
ATOM      3  N   UNL     1       9.659  13.913  19.285  0.00  0.00    +0.000 N 
ATOM      4  C   UNL     1       9.038  12.584  19.174  0.00  0.00    +0.000 C 
ATOM      5  C   UNL     1       9.757  11.639  18.249  0.00  0.00    +0.000 C 
ATOM      6  C   UNL     1      11.226  11.509  18.628  0.00  0.00    +0.000 C 
ATOM      7  C   UNL     1      11.866  12.894  18.665  0.00  0.00    +0.000 C 
ATOM      8  C   UNL     1      11.113  13.878  19.598  0.00  0.00    +0.000 C 
ATOM      9  C   UNL     1      11.885  15.200  19.594  0.00  0.00    +0.000 C 
ENDROOT
BRANCH   1  15
ATOM     10  C   UNL     1       4.321  15.271  17.608  0.00  0.00    +0.000 C 
ATOM     11  C   UNL     1       5.160  14.904  18.797  0.00  0.00    +0.000 A 
ATOM     12  C   UNL     1       4.607  14.582  20.029  0.00  0.00    +0.000 A 
ATOM     13  C   UNL     1       5.446  14.356  21.128  0.00  0.00    +0.000 A 
ATOM     14  C   UNL     1       6.841  14.570  21.039  0.00  0.00    +0.000 A 
ATOM     15  C   UNL     1       7.405  14.918  19.808  0.00  0.00    +0.000 A 
ATOM     16  C   UNL     1       6.552  14.956  18.687  0.00  0.00    +0.000 A 
BRANCH  14  17
ATOM     17  N   UNL     1       7.602  14.396  22.221  0.00  0.00    +0.000 N 
ATOM     18  N   UNL     1       8.113  13.203  22.622  0.00  0.00    +0.000 NA
ATOM     19  C   UNL     1       8.678  13.520  23.790  0.00  0.00    +0.000 A 
ATOM     20  C   UNL     1       8.590  14.897  24.003  0.00  0.00    +0.000 A 
ATOM     21  N   UNL     1       8.004  15.478  22.956  0.00  0.00    +0.000 NA
ENDBRANCH  14  17
ENDBRANCH   1  15
BRANCH   5  22
ATOM     22  C   UNL     1       9.059  10.289  18.241  0.00  0.00    +0.000 C 
ATOM     23  C   UNL     1       8.460   9.130  18.234  0.00  0.00    +0.000 C 
BRANCH  23  24
ATOM     24  C   UNL     1       7.855   7.841  18.146  0.00  0.00    +0.000 A 
ATOM     25  C   UNL     1       8.248   6.803  18.976  0.00  0.00    +0.000 A 
ATOM     26  N   UNL     1       7.690   5.569  18.959  0.00  0.00    +0.000 NA
ATOM     27  C   UNL     1       6.679   5.375  18.081  0.00  0.00    +0.000 A 
ATOM     28  C   UNL     1       6.190   6.351  17.219  0.00  0.00    +0.000 A 
ATOM     29  C   UNL     1       6.816   7.603  17.249  0.00  0.00    +0.000 A 
BRANCH  28  30
ATOM     30  C   UNL     1       5.083   6.029  16.255  0.00  0.00    +0.000 C 
BRANCH  30  31
ATOM     31  O   UNL     1       5.557   5.965  14.915  0.00  0.00    +0.000 OA
ATOM     32  H   UNL     1       6.496   6.218  14.932  0.00  0.00    +0.000 HD
ENDBRANCH  30  31
ENDBRANCH  28  30
ENDBRANCH  23  24
ENDBRANCH   5  22
TORSDOF 6
ENDMDL
MODEL 8
REMARK VINA RESULT:      -7.8      4.890      9.568
REMARK  Name = 
REMARK  8 active torsions:
REMARK  status: ('A' for Active; 'I' for Inactive)
REMARK    1  A    between atoms: C_1  and  C_2
REMARK    2  A    between atoms: C_5  and  N_6
REMARK    3  A    between atoms: C_11  and  C_12
REMARK    4  A    between atoms: C_16  and  C_17
REMARK    5  A    between atoms: C_18  and  C_19
REMARK    6  A    between atoms: C_23  and  C_24
REMARK    7  A    between atoms: C_24  and  O_25
REMARK    8  A    between atoms: C_29  and  C_30
REMARK                            x       y       z     vdW  Elec       q    Type
REMARK                         _______ _______ _______ _____ _____    ______ ____
ROOT
ATOM      1  C   UNL     1       0.531  13.054  21.422  0.00  0.00    +0.000 C 
ATOM      2  O   UNL     1       0.105  14.044  22.003  0.00  0.00    +0.000 OA
ATOM      3  N   UNL     1       0.170  11.721  21.752  0.00  0.00    +0.000 N 
ATOM      4  C   UNL     1       0.748  10.577  21.029  0.00  0.00    +0.000 C 
ATOM      5  C   UNL     1       0.892   9.329  21.858  0.00  0.00    +0.000 C 
ATOM      6  C   UNL     1      -0.431   8.938  22.499  0.00  0.00    +0.000 C 
ATOM      7  C   UNL     1      -0.975  10.115  23.304  0.00  0.00    +0.000 C 
ATOM      8  C   UNL     1      -1.102  11.411  22.459  0.00  0.00    +0.000 C 
ATOM      9  C   UNL     1      -1.711  12.490  23.358  0.00  0.00    +0.000 C 
ENDROOT
BRANCH   1  15
ATOM     10  C   UNL     1       4.769  15.061  19.850  0.00  0.00    +0.000 C 
ATOM     11  C   UNL     1       3.588  14.204  19.501  0.00  0.00    +0.000 A 
ATOM     12  C   UNL     1       3.313  13.807  18.199  0.00  0.00    +0.000 A 
ATOM     13  C   UNL     1       2.135  13.100  17.924  0.00  0.00    +0.000 A 
ATOM     14  C   UNL     1       1.158  12.888  18.925  0.00  0.00    +0.000 A 
ATOM     15  C   UNL     1       1.415  13.305  20.234  0.00  0.00    +0.000 A 
ATOM     16  C   UNL     1       2.687  13.847  20.509  0.00  0.00    +0.000 A 
BRANCH  14  17
ATOM     17  N   UNL     1      -0.038  12.236  18.538  0.00  0.00    +0.000 N 
ATOM     18  N   UNL     1      -1.233  12.866  18.405  0.00  0.00    +0.000 NA
ATOM     19  C   UNL     1      -2.049  11.853  18.097  0.00  0.00    +0.000 A 
ATOM     20  C   UNL     1      -1.313  10.677  17.947  0.00  0.00    +0.000 A 
ATOM     21  N   UNL     1      -0.016  10.933  18.117  0.00  0.00    +0.000 NA
ENDBRANCH  14  17
ENDBRANCH   1  15
BRANCH   5  22
ATOM     22  C   UNL     1       1.457   8.204  21.006  0.00  0.00    +0.000 C 
ATOM     23  C   UNL     1       1.942   7.238  20.275  0.00  0.00    +0.000 C 
BRANCH  23  24
ATOM     24  C   UNL     1       2.414   6.212  19.403  0.00  0.00    +0.000 A 
ATOM     25  C   UNL     1       3.364   6.475  18.430  0.00  0.00    +0.000 A 
ATOM     26  N   UNL     1       3.871   5.536  17.595  0.00  0.00    +0.000 NA
ATOM     27  C   UNL     1       3.416   4.273  17.759  0.00  0.00    +0.000 A 
ATOM     28  C   UNL     1       2.481   3.893  18.717  0.00  0.00    +0.000 A 
ATOM     29  C   UNL     1       1.961   4.901  19.538  0.00  0.00    +0.000 A 
BRANCH  28  30
ATOM     30  C   UNL     1       2.013   2.468  18.799  0.00  0.00    +0.000 C 
BRANCH  30  31
ATOM     31  O   UNL     1       2.518   1.688  17.722  0.00  0.00    +0.000 OA
ATOM     32  H   UNL     1       2.584   2.276  16.950  0.00  0.00    +0.000 HD
ENDBRANCH  30  31
ENDBRANCH  28  30
ENDBRANCH  23  24
ENDBRANCH   5  22
TORSDOF 6
ENDMDL
MODEL 9
REMARK VINA RESULT:      -7.7      4.002      9.347
REMARK  Name = 
REMARK  8 active torsions:
REMARK  status: ('A' for Active; 'I' for Inactive)
REMARK    1  A    between atoms: C_1  and  C_2
REMARK    2  A    between atoms: C_5  and  N_6
REMARK    3  A    between atoms: C_11  and  C_12
REMARK    4  A    between atoms: C_16  and  C_17
REMARK    5  A    between atoms: C_18  and  C_19
REMARK    6  A    between atoms: C_23  and  C_24
REMARK    7  A    between atoms: C_24  and  O_25
REMARK    8  A    between atoms: C_29  and  C_30
REMARK                            x       y       z     vdW  Elec       q    Type
REMARK                         _______ _______ _______ _____ _____    ______ ____
ROOT
ATOM      1  C   UNL     1       8.491  15.047  20.210  0.00  0.00    +0.000 C 
ATOM      2  O   UNL     1       8.739  16.243  20.307  0.00  0.00    +0.000 OA
ATOM      3  N   UNL     1       9.177  14.160  19.339  0.00  0.00    +0.000 N 
ATOM      4  C   UNL     1       8.802  12.740  19.253  0.00  0.00    +0.000 C 
ATOM      5  C   UNL     1       9.031  12.119  17.901  0.00  0.00    +0.000 C 
ATOM      6  C   UNL     1      10.467  12.318  17.438  0.00  0.00    +0.000 C 
ATOM      7  C   UNL     1      10.808  13.806  17.465  0.00  0.00    +0.000 C 
ATOM      8  C   UNL     1      10.551  14.455  18.851  0.00  0.00    +0.000 C 
ATOM      9  C   UNL     1      10.989  15.919  18.763  0.00  0.00    +0.000 C 
ENDROOT
BRANCH   1  15
ATOM     10  C   UNL     1       7.715  12.503  24.379  0.00  0.00    +0.000 C 
ATOM     11  C   UNL     1       7.103  13.338  23.293  0.00  0.00    +0.000 A 
ATOM     12  C   UNL     1       5.729  13.469  23.138  0.00  0.00    +0.000 A 
ATOM     13  C   UNL     1       5.220  14.173  22.039  0.00  0.00    +0.000 A 
ATOM     14  C   UNL     1       6.073  14.649  21.016  0.00  0.00    +0.000 A 
ATOM     15  C   UNL     1       7.457  14.501  21.151  0.00  0.00    +0.000 A 
ATOM     16  C   UNL     1       7.939  13.952  22.356  0.00  0.00    +0.000 A 
BRANCH  14  17
ATOM     17  N   UNL     1       5.465  15.277  19.902  0.00  0.00    +0.000 N 
ATOM     18  N   UNL     1       5.050  16.570  19.898  0.00  0.00    +0.000 NA
ATOM     19  C   UNL     1       4.498  16.682  18.686  0.00  0.00    +0.000 A 
ATOM     20  C   UNL     1       4.692  15.504  17.964  0.00  0.00    +0.000 A 
ATOM     21  N   UNL     1       5.405  14.642  18.691  0.00  0.00    +0.000 NA
ENDBRANCH  14  17
ENDBRANCH   1  15
BRANCH   5  22
ATOM     22  C   UNL     1       8.652  10.647  17.935  0.00  0.00    +0.000 C 
ATOM     23  C   UNL     1       8.327   9.385  17.965  0.00  0.00    +0.000 C 
BRANCH  23  24
ATOM     24  C   UNL     1       8.066   7.982  18.009  0.00  0.00    +0.000 A 
ATOM     25  C   UNL     1       8.359   7.231  19.135  0.00  0.00    +0.000 A 
ATOM     26  N   UNL     1       8.106   5.904  19.246  0.00  0.00    +0.000 NA
ATOM     27  C   UNL     1       7.515   5.312  18.183  0.00  0.00    +0.000 A 
ATOM     28  C   UNL     1       7.156   5.974  17.013  0.00  0.00    +0.000 A 
ATOM     29  C   UNL     1       7.464   7.338  16.931  0.00  0.00    +0.000 A 
BRANCH  28  30
ATOM     30  C   UNL     1       6.532   5.221  15.874  0.00  0.00    +0.000 C 
BRANCH  30  31
ATOM     31  O   UNL     1       7.386   5.190  14.736  0.00  0.00    +0.000 OA
ATOM     32  H   UNL     1       6.858   5.488  13.975  0.00  0.00    +0.000 HD
ENDBRANCH  30  31
ENDBRANCH  28  30
ENDBRANCH  23  24
ENDBRANCH   5  22
TORSDOF 6
ENDMDL
