MODEL 1
REMARK VINA RESULT:      -9.1      0.000      0.000
REMARK  Name = 
REMARK  9 active torsions:
REMARK  status: ('A' for Active; 'I' for Inactive)
REMARK    1  A    between atoms: C_1  and  O_2
REMARK    2  A    between atoms: O_2  and  C_3
REMARK    3  A    between atoms: C_7  and  C_8
REMARK    4  A    between atoms: C_8  and  C_9
REMARK    5  A    between atoms: C_9  and  N_10
REMARK    6  A    between atoms: C_11  and  C_13
REMARK    7  A    between atoms: C_13  and  C_14
REMARK    8  A    between atoms: C_13  and  C_16
REMARK    9  A    between atoms: C_25  and  N_26
REMARK                            x       y       z     vdW  Elec       q    Type
REMARK                         _______ _______ _______ _____ _____    ______ ____
ROOT
ATOM      1  C   UNL     1       7.550   5.608  18.099  0.00  0.00    +0.000 C 
ENDROOT
BRANCH   1   2
ATOM      2  C   UNL     1       6.319   4.841  17.738  0.00  0.00    +0.000 A 
ATOM      3  N   UNL     1       5.621   4.078  18.612  0.00  0.00    +0.000 NA
ATOM      4  C   UNL     1       4.299   3.993  18.308  0.00  0.00    +0.000 A 
ATOM      5  C   UNL     1       3.534   2.832  18.205  0.00  0.00    +0.000 A 
ATOM      6  C   UNL     1       2.190   2.901  17.814  0.00  0.00    +0.000 A 
ATOM      7  C   UNL     1       1.568   4.143  17.812  0.00  0.00    +0.000 A 
ATOM      8  C   UNL     1       2.371   5.270  17.856  0.00  0.00    +0.000 A 
ATOM      9  C   UNL     1       3.730   5.073  17.676  0.00  0.00    +0.000 A 
ATOM     10  N   UNL     1       4.454   5.597  16.655  0.00  0.00    +0.000 NA
ATOM     11  C   UNL     1       5.722   5.152  16.531  0.00  0.00    +0.000 A 
BRANCH  11  12
ATOM     12  N   UNL     1       6.180   4.480  15.360  0.00  0.00    +0.000 N 
ATOM     13  C   UNL     1       7.563   4.763  14.916  0.00  0.00    +0.000 C 
ATOM     14  C   UNL     1       7.711   5.539  13.589  0.00  0.00    +0.000 C 
ATOM     15  C   UNL     1       7.578   4.703  12.311  0.00  0.00    +0.000 C 
ATOM     16  C   UNL     1       6.177   4.173  12.063  0.00  0.00    +0.000 C 
ATOM     17  C   UNL     1       5.695   3.265  13.186  0.00  0.00    +0.000 C 
ATOM     18  C   UNL     1       5.171   4.039  14.388  0.00  0.00    +0.000 C 
ENDBRANCH  11  12
ENDBRANCH   1   2
BRANCH   1  20
ATOM     19  N   UNL     1       8.287   7.957  18.697  0.00  0.00    +0.000 N 
ATOM     20  C   UNL     1       7.565   7.119  17.867  0.00  0.00    +0.000 C 
ATOM     21  O   UNL     1       7.009   7.569  16.857  0.00  0.00    +0.000 OA
ATOM     22  H   UNL     1       8.918   7.530  19.370  0.00  0.00    +0.000 HD
BRANCH  19  23
ATOM     23  C   UNL     1       8.587   9.309  18.214  0.00  0.00    +0.000 C 
BRANCH  23  24
ATOM     24  C   UNL     1       9.294  10.214  19.226  0.00  0.00    +0.000 C 
BRANCH  24  29
ATOM     25  C   UNL     1       9.416  13.832  18.013  0.00  0.00    +0.000 A 
ATOM     26  C   UNL     1      10.667  13.885  17.378  0.00  0.00    +0.000 A 
ATOM     27  C   UNL     1      11.465  12.742  17.332  0.00  0.00    +0.000 A 
ATOM     28  C   UNL     1      11.024  11.560  17.938  0.00  0.00    +0.000 A 
ATOM     29  C   UNL     1       9.781  11.503  18.589  0.00  0.00    +0.000 A 
ATOM     30  C   UNL     1       8.984  12.658  18.595  0.00  0.00    +0.000 A 
BRANCH  25  32
ATOM     31  C   UNL     1       7.312  14.932  17.800  0.00  0.00    +0.000 C 
ATOM     32  O   UNL     1       8.724  15.028  17.955  0.00  0.00    +0.000 OA
ENDBRANCH  25  32
ENDBRANCH  24  29
ENDBRANCH  23  24
ENDBRANCH  19  23
ENDBRANCH   1  20
BRANCH   1  33
ATOM     33  C   UNL     1       8.028   5.432  19.532  0.00  0.00    +0.000 C 
ATOM     34  N   UNL     1       8.424   5.286  20.719  0.00  0.00    +0.000 NA
ENDBRANCH   1  33
TORSDOF 8
ENDMDL
MODEL 2
REMARK VINA RESULT:      -8.7      5.429      8.289
REMARK  Name = 
REMARK  9 active torsions:
REMARK  status: ('A' for Active; 'I' for Inactive)
REMARK    1  A    between atoms: C_1  and  O_2
REMARK    2  A    between atoms: O_2  and  C_3
REMARK    3  A    between atoms: C_7  and  C_8
REMARK    4  A    between atoms: C_8  and  C_9
REMARK    5  A    between atoms: C_9  and  N_10
REMARK    6  A    between atoms: C_11  and  C_13
REMARK    7  A    between atoms: C_13  and  C_14
REMARK    8  A    between atoms: C_13  and  C_16
REMARK    9  A    between atoms: C_25  and  N_26
REMARK                            x       y       z     vdW  Elec       q    Type
REMARK                         _______ _______ _______ _____ _____    ______ ____
ROOT
ATOM      1  C   UNL     1       2.232   8.017  19.975  0.00  0.00    +0.000 C 
ENDROOT
BRANCH   1   2
ATOM      2  C   UNL     1       2.526   6.561  19.802  0.00  0.00    +0.000 A 
ATOM      3  N   UNL     1       2.125   5.602  20.668  0.00  0.00    +0.000 NA
ATOM      4  C   UNL     1       1.930   4.395  20.075  0.00  0.00    +0.000 A 
ATOM      5  C   UNL     1       2.444   3.165  20.484  0.00  0.00    +0.000 A 
ATOM      6  C   UNL     1       2.209   2.011  19.725  0.00  0.00    +0.000 A 
ATOM      7  C   UNL     1       1.236   2.060  18.735  0.00  0.00    +0.000 A 
ATOM      8  C   UNL     1       0.798   3.306  18.317  0.00  0.00    +0.000 A 
ATOM      9  C   UNL     1       1.523   4.400  18.762  0.00  0.00    +0.000 A 
ATOM     10  N   UNL     1       2.183   5.265  17.951  0.00  0.00    +0.000 NA
ATOM     11  C   UNL     1       2.985   6.161  18.562  0.00  0.00    +0.000 A 
BRANCH  11  12
ATOM     12  N   UNL     1       4.388   6.217  18.313  0.00  0.00    +0.000 N 
ATOM     13  C   UNL     1       4.820   6.710  16.986  0.00  0.00    +0.000 C 
ATOM     14  C   UNL     1       5.481   5.673  16.052  0.00  0.00    +0.000 C 
ATOM     15  C   UNL     1       6.963   5.386  16.318  0.00  0.00    +0.000 C 
ATOM     16  C   UNL     1       7.226   4.657  17.623  0.00  0.00    +0.000 C 
ATOM     17  C   UNL     1       6.750   5.448  18.834  0.00  0.00    +0.000 C 
ATOM     18  C   UNL     1       5.253   5.309  19.077  0.00  0.00    +0.000 C 
ENDBRANCH  11  12
ENDBRANCH   1   2
BRANCH   1  20
ATOM     19  N   UNL     1       0.413   9.536  19.079  0.00  0.00    +0.000 N 
ATOM     20  C   UNL     1       1.534   8.763  18.838  0.00  0.00    +0.000 C 
ATOM     21  O   UNL     1       2.056   8.753  17.715  0.00  0.00    +0.000 OA
ATOM     22  H   UNL     1       0.155   9.709  20.047  0.00  0.00    +0.000 HD
BRANCH  19  23
ATOM     23  C   UNL     1       0.027  10.521  18.063  0.00  0.00    +0.000 C 
BRANCH  23  24
ATOM     24  C   UNL     1      -0.906  11.628  18.559  0.00  0.00    +0.000 C 
BRANCH  24  29
ATOM     25  C   UNL     1      -3.806  10.748  16.238  0.00  0.00    +0.000 A 
ATOM     26  C   UNL     1      -4.913  11.222  16.960  0.00  0.00    +0.000 A 
ATOM     27  C   UNL     1      -4.716  11.839  18.196  0.00  0.00    +0.000 A 
ATOM     28  C   UNL     1      -3.421  11.961  18.715  0.00  0.00    +0.000 A 
ATOM     29  C   UNL     1      -2.310  11.475  18.006  0.00  0.00    +0.000 A 
ATOM     30  C   UNL     1      -2.533  10.886  16.751  0.00  0.00    +0.000 A 
BRANCH  25  32
ATOM     31  C   UNL     1      -3.131  10.170  14.026  0.00  0.00    +0.000 C 
ATOM     32  O   UNL     1      -4.149  10.188  15.021  0.00  0.00    +0.000 OA
ENDBRANCH  25  32
ENDBRANCH  24  29
ENDBRANCH  23  24
ENDBRANCH  19  23
ENDBRANCH   1  20
BRANCH   1  33
ATOM     33  C   UNL     1       1.434   8.375  21.219  0.00  0.00    +0.000 C 
ATOM     34  N   UNL     1       0.772   8.672  22.249  0.00  0.00    +0.000 NA
ENDBRANCH   1  33
TORSDOF 8
ENDMDL
MODEL 3
REMARK VINA RESULT:      -8.7      5.761      8.557
REMARK  Name = 
REMARK  9 active torsions:
REMARK  status: ('A' for Active; 'I' for Inactive)
REMARK    1  A    between atoms: C_1  and  O_2
REMARK    2  A    between atoms: O_2  and  C_3
REMARK    3  A    between atoms: C_7  and  C_8
REMARK    4  A    between atoms: C_8  and  C_9
REMARK    5  A    between atoms: C_9  and  N_10
REMARK    6  A    between atoms: C_11  and  C_13
REMARK    7  A    between atoms: C_13  and  C_14
REMARK    8  A    between atoms: C_13  and  C_16
REMARK    9  A    between atoms: C_25  and  N_26
REMARK                            x       y       z     vdW  Elec       q    Type
REMARK                         _______ _______ _______ _____ _____    ______ ____
ROOT
ATOM      1  C   UNL     1       2.198   8.110  19.734  0.00  0.00    +0.000 C 
ENDROOT
BRANCH   1   2
ATOM      2  C   UNL     1       2.516   6.652  19.657  0.00  0.00    +0.000 A 
ATOM      3  N   UNL     1       2.129   5.744  20.583  0.00  0.00    +0.000 NA
ATOM      4  C   UNL     1       1.955   4.498  20.070  0.00  0.00    +0.000 A 
ATOM      5  C   UNL     1       2.488   3.306  20.559  0.00  0.00    +0.000 A 
ATOM      6  C   UNL     1       2.274   2.101  19.876  0.00  0.00    +0.000 A 
ATOM      7  C   UNL     1       1.302   2.069  18.884  0.00  0.00    +0.000 A 
ATOM      8  C   UNL     1       0.844   3.278  18.386  0.00  0.00    +0.000 A 
ATOM      9  C   UNL     1       1.550   4.410  18.759  0.00  0.00    +0.000 A 
ATOM     10  N   UNL     1       2.197   5.231  17.894  0.00  0.00    +0.000 NA
ATOM     11  C   UNL     1       2.984   6.179  18.445  0.00  0.00    +0.000 A 
BRANCH  11  12
ATOM     12  N   UNL     1       4.386   6.241  18.195  0.00  0.00    +0.000 N 
ATOM     13  C   UNL     1       4.814   6.727  16.863  0.00  0.00    +0.000 C 
ATOM     14  C   UNL     1       5.480   5.686  15.937  0.00  0.00    +0.000 C 
ATOM     15  C   UNL     1       6.964   5.410  16.203  0.00  0.00    +0.000 C 
ATOM     16  C   UNL     1       7.233   4.694  17.514  0.00  0.00    +0.000 C 
ATOM     17  C   UNL     1       6.753   5.492  18.719  0.00  0.00    +0.000 C 
ATOM     18  C   UNL     1       5.257   5.345  18.966  0.00  0.00    +0.000 C 
ENDBRANCH  11  12
ENDBRANCH   1   2
BRANCH   1  20
ATOM     19  N   UNL     1       0.182   9.255  18.714  0.00  0.00    +0.000 N 
ATOM     20  C   UNL     1       1.465   8.763  18.562  0.00  0.00    +0.000 C 
ATOM     21  O   UNL     1       2.082   8.944  17.504  0.00  0.00    +0.000 OA
ATOM     22  H   UNL     1      -0.201   9.302  19.654  0.00  0.00    +0.000 HD
BRANCH  19  23
ATOM     23  C   UNL     1      -0.314  10.201  17.707  0.00  0.00    +0.000 C 
BRANCH  23  24
ATOM     24  C   UNL     1      -1.748   9.951  17.237  0.00  0.00    +0.000 C 
BRANCH  24  29
ATOM     25  C   UNL     1      -5.052  11.389  18.497  0.00  0.00    +0.000 A 
ATOM     26  C   UNL     1      -4.620  12.307  19.467  0.00  0.00    +0.000 A 
ATOM     27  C   UNL     1      -3.255  12.467  19.704  0.00  0.00    +0.000 A 
ATOM     28  C   UNL     1      -2.329  11.699  18.989  0.00  0.00    +0.000 A 
ATOM     29  C   UNL     1      -2.754  10.767  18.027  0.00  0.00    +0.000 A 
ATOM     30  C   UNL     1      -4.132  10.647  17.787  0.00  0.00    +0.000 A 
BRANCH  25  32
ATOM     31  C   UNL     1      -7.168  10.868  19.463  0.00  0.00    +0.000 C 
ATOM     32  O   UNL     1      -6.427  11.358  18.350  0.00  0.00    +0.000 OA
ENDBRANCH  25  32
ENDBRANCH  24  29
ENDBRANCH  23  24
ENDBRANCH  19  23
ENDBRANCH   1  20
BRANCH   1  33
ATOM     33  C   UNL     1       1.416   8.540  20.966  0.00  0.00    +0.000 C 
ATOM     34  N   UNL     1       0.768   8.896  21.987  0.00  0.00    +0.000 NA
ENDBRANCH   1  33
TORSDOF 8
ENDMDL
MODEL 4
REMARK VINA RESULT:      -8.6      5.827      8.545
REMARK  Name = 
REMARK  9 active torsions:
REMARK  status: ('A' for Active; 'I' for Inactive)
REMARK    1  A    between atoms: C_1  and  O_2
REMARK    2  A    between atoms: O_2  and  C_3
REMARK    3  A    between atoms: C_7  and  C_8
REMARK    4  A    between atoms: C_8  and  C_9
REMARK    5  A    between atoms: C_9  and  N_10
REMARK    6  A    between atoms: C_11  and  C_13
REMARK    7  A    between atoms: C_13  and  C_14
REMARK    8  A    between atoms: C_13  and  C_16
REMARK    9  A    between atoms: C_25  and  N_26
REMARK                            x       y       z     vdW  Elec       q    Type
REMARK                         _______ _______ _______ _____ _____    ______ ____
ROOT
ATOM      1  C   UNL     1       2.190   8.130  19.753  0.00  0.00    +0.000 C 
ENDROOT
BRANCH   1   2
ATOM      2  C   UNL     1       2.504   6.671  19.667  0.00  0.00    +0.000 A 
ATOM      3  N   UNL     1       2.101   5.757  20.579  0.00  0.00    +0.000 NA
ATOM      4  C   UNL     1       1.930   4.516  20.052  0.00  0.00    +0.000 A 
ATOM      5  C   UNL     1       2.451   3.318  20.538  0.00  0.00    +0.000 A 
ATOM      6  C   UNL     1       2.242   2.120  19.841  0.00  0.00    +0.000 A 
ATOM      7  C   UNL     1       1.285   2.101  18.835  0.00  0.00    +0.000 A 
ATOM      8  C   UNL     1       0.838   3.316  18.342  0.00  0.00    +0.000 A 
ATOM      9  C   UNL     1       1.543   4.442  18.735  0.00  0.00    +0.000 A 
ATOM     10  N   UNL     1       2.205   5.269  17.887  0.00  0.00    +0.000 NA
ATOM     11  C   UNL     1       2.988   6.208  18.458  0.00  0.00    +0.000 A 
BRANCH  11  12
ATOM     12  N   UNL     1       4.393   6.267  18.228  0.00  0.00    +0.000 N 
ATOM     13  C   UNL     1       4.842   6.766  16.908  0.00  0.00    +0.000 C 
ATOM     14  C   UNL     1       5.517   5.733  15.980  0.00  0.00    +0.000 C 
ATOM     15  C   UNL     1       6.996   5.448  16.264  0.00  0.00    +0.000 C 
ATOM     16  C   UNL     1       7.244   4.716  17.570  0.00  0.00    +0.000 C 
ATOM     17  C   UNL     1       6.750   5.502  18.777  0.00  0.00    +0.000 C 
ATOM     18  C   UNL     1       5.250   5.359  19.001  0.00  0.00    +0.000 C 
ENDBRANCH  11  12
ENDBRANCH   1   2
BRANCH   1  20
ATOM     19  N   UNL     1       0.137   9.218  18.743  0.00  0.00    +0.000 N 
ATOM     20  C   UNL     1       1.443   8.789  18.593  0.00  0.00    +0.000 C 
ATOM     21  O   UNL     1       2.064   9.032  17.550  0.00  0.00    +0.000 OA
ATOM     22  H   UNL     1      -0.259   9.215  19.679  0.00  0.00    +0.000 HD
BRANCH  19  23
ATOM     23  C   UNL     1      -0.388  10.173  17.761  0.00  0.00    +0.000 C 
BRANCH  23  24
ATOM     24  C   UNL     1      -1.063  11.409  18.359  0.00  0.00    +0.000 C 
BRANCH  24  29
ATOM     25  C   UNL     1      -4.836  11.920  18.627  0.00  0.00    +0.000 A 
ATOM     26  C   UNL     1      -5.268  11.589  17.333  0.00  0.00    +0.000 A 
ATOM     27  C   UNL     1      -4.335  11.188  16.377  0.00  0.00    +0.000 A 
ATOM     28  C   UNL     1      -2.976  11.139  16.707  0.00  0.00    +0.000 A 
ATOM     29  C   UNL     1      -2.533  11.484  17.995  0.00  0.00    +0.000 A 
ATOM     30  C   UNL     1      -3.496  11.855  18.948  0.00  0.00    +0.000 A 
BRANCH  25  32
ATOM     31  C   UNL     1      -7.025  11.436  19.438  0.00  0.00    +0.000 C 
ATOM     32  O   UNL     1      -5.872  12.270  19.475  0.00  0.00    +0.000 OA
ENDBRANCH  25  32
ENDBRANCH  24  29
ENDBRANCH  23  24
ENDBRANCH  19  23
ENDBRANCH   1  20
BRANCH   1  33
ATOM     33  C   UNL     1       1.427   8.558  20.997  0.00  0.00    +0.000 C 
ATOM     34  N   UNL     1       0.794   8.913  22.027  0.00  0.00    +0.000 NA
ENDBRANCH   1  33
TORSDOF 8
ENDMDL
MODEL 5
REMARK VINA RESULT:      -8.6      6.724     11.566
REMARK  Name = 
REMARK  9 active torsions:
REMARK  status: ('A' for Active; 'I' for Inactive)
REMARK    1  A    between atoms: C_1  and  O_2
REMARK    2  A    between atoms: O_2  and  C_3
REMARK    3  A    between atoms: C_7  and  C_8
REMARK    4  A    between atoms: C_8  and  C_9
REMARK    5  A    between atoms: C_9  and  N_10
REMARK    6  A    between atoms: C_11  and  C_13
REMARK    7  A    between atoms: C_13  and  C_14
REMARK    8  A    between atoms: C_13  and  C_16
REMARK    9  A    between atoms: C_25  and  N_26
REMARK                            x       y       z     vdW  Elec       q    Type
REMARK                         _______ _______ _______ _____ _____    ______ ____
ROOT
ATOM      1  C   UNL     1       0.268  10.270  21.002  0.00  0.00    +0.000 C 
ENDROOT
BRANCH   1   2
ATOM      2  C   UNL     1       0.566  11.710  20.736  0.00  0.00    +0.000 A 
ATOM      3  N   UNL     1       1.734  12.313  21.060  0.00  0.00    +0.000 NA
ATOM      4  C   UNL     1       2.049  13.346  20.236  0.00  0.00    +0.000 A 
ATOM      5  C   UNL     1       2.416  14.638  20.611  0.00  0.00    +0.000 A 
ATOM      6  C   UNL     1       2.645  15.620  19.638  0.00  0.00    +0.000 A 
ATOM      7  C   UNL     1       2.779  15.219  18.315  0.00  0.00    +0.000 A 
ATOM      8  C   UNL     1       2.346  13.948  17.976  0.00  0.00    +0.000 A 
ATOM      9  C   UNL     1       1.614  13.265  18.934  0.00  0.00    +0.000 A 
ATOM     10  N   UNL     1       0.330  12.859  18.774  0.00  0.00    +0.000 NA
ATOM     11  C   UNL     1      -0.285  12.374  19.873  0.00  0.00    +0.000 A 
BRANCH  11  12
ATOM     12  N   UNL     1      -1.458  12.976  20.415  0.00  0.00    +0.000 N 
ATOM     13  C   UNL     1      -1.348  13.577  21.763  0.00  0.00    +0.000 C 
ATOM     14  C   UNL     1      -2.128  12.870  22.893  0.00  0.00    +0.000 C 
ATOM     15  C   UNL     1      -3.623  13.199  22.977  0.00  0.00    +0.000 C 
ATOM     16  C   UNL     1      -4.440  12.658  21.818  0.00  0.00    +0.000 C 
ATOM     17  C   UNL     1      -3.983  13.217  20.478  0.00  0.00    +0.000 C 
ATOM     18  C   UNL     1      -2.758  12.500  19.926  0.00  0.00    +0.000 C 
ENDBRANCH  11  12
ENDBRANCH   1   2
BRANCH   1  20
ATOM     19  N   UNL     1       1.557   8.089  20.995  0.00  0.00    +0.000 N 
ATOM     20  C   UNL     1       1.119   9.206  20.308  0.00  0.00    +0.000 C 
ATOM     21  O   UNL     1       1.316   9.307  19.090  0.00  0.00    +0.000 OA
ATOM     22  H   UNL     1       1.179   7.924  21.924  0.00  0.00    +0.000 HD
BRANCH  19  23
ATOM     23  C   UNL     1       2.016   6.937  20.210  0.00  0.00    +0.000 C 
BRANCH  23  24
ATOM     24  C   UNL     1       1.611   5.571  20.770  0.00  0.00    +0.000 C 
BRANCH  24  29
ATOM     25  C   UNL     1       2.916   3.581  17.785  0.00  0.00    +0.000 A 
ATOM     26  C   UNL     1       2.119   2.426  17.833  0.00  0.00    +0.000 A 
ATOM     27  C   UNL     1       1.149   2.300  18.827  0.00  0.00    +0.000 A 
ATOM     28  C   UNL     1       0.993   3.312  19.781  0.00  0.00    +0.000 A 
ATOM     29  C   UNL     1       1.797   4.464  19.749  0.00  0.00    +0.000 A 
ATOM     30  C   UNL     1       2.745   4.580  18.720  0.00  0.00    +0.000 A 
BRANCH  25  32
ATOM     31  C   UNL     1       5.076   4.187  16.980  0.00  0.00    +0.000 C 
ATOM     32  O   UNL     1       3.812   3.582  16.731  0.00  0.00    +0.000 OA
ENDBRANCH  25  32
ENDBRANCH  24  29
ENDBRANCH  23  24
ENDBRANCH  19  23
ENDBRANCH   1  20
BRANCH   1  33
ATOM     33  C   UNL     1       0.267   9.867  22.468  0.00  0.00    +0.000 C 
ATOM     34  N   UNL     1       0.266   9.534  23.684  0.00  0.00    +0.000 NA
ENDBRANCH   1  33
TORSDOF 8
ENDMDL
MODEL 6
REMARK VINA RESULT:      -8.5      5.132      8.645
REMARK  Name = 
REMARK  9 active torsions:
REMARK  status: ('A' for Active; 'I' for Inactive)
REMARK    1  A    between atoms: C_1  and  O_2
REMARK    2  A    between atoms: O_2  and  C_3
REMARK    3  A    between atoms: C_7  and  C_8
REMARK    4  A    between atoms: C_8  and  C_9
REMARK    5  A    between atoms: C_9  and  N_10
REMARK    6  A    between atoms: C_11  and  C_13
REMARK    7  A    between atoms: C_13  and  C_14
REMARK    8  A    between atoms: C_13  and  C_16
REMARK    9  A    between atoms: C_25  and  N_26
REMARK                            x       y       z     vdW  Elec       q    Type
REMARK                         _______ _______ _______ _____ _____    ______ ____
ROOT
ATOM      1  C   UNL     1       2.995   7.414  18.932  0.00  0.00    +0.000 C 
ENDROOT
BRANCH   1   2
ATOM      2  C   UNL     1       3.705   6.462  18.024  0.00  0.00    +0.000 A 
ATOM      3  N   UNL     1       3.952   6.707  16.716  0.00  0.00    +0.000 NA
ATOM      4  C   UNL     1       5.069   6.085  16.258  0.00  0.00    +0.000 A 
ATOM      5  C   UNL     1       5.182   5.294  15.115  0.00  0.00    +0.000 A 
ATOM      6  C   UNL     1       6.394   4.660  14.809  0.00  0.00    +0.000 A 
ATOM      7  C   UNL     1       7.536   5.057  15.491  0.00  0.00    +0.000 A 
ATOM      8  C   UNL     1       7.375   5.792  16.654  0.00  0.00    +0.000 A 
ATOM      9  C   UNL     1       6.087   5.880  17.159  0.00  0.00    +0.000 A 
ATOM     10  N   UNL     1       5.704   5.409  18.372  0.00  0.00    +0.000 NA
ATOM     11  C   UNL     1       4.378   5.414  18.623  0.00  0.00    +0.000 A 
BRANCH  11  12
ATOM     12  N   UNL     1       3.653   4.218  18.898  0.00  0.00    +0.000 N 
ATOM     13  C   UNL     1       2.736   3.727  17.845  0.00  0.00    +0.000 C 
ATOM     14  C   UNL     1       1.227   3.794  18.165  0.00  0.00    +0.000 C 
ATOM     15  C   UNL     1       0.679   2.657  19.035  0.00  0.00    +0.000 C 
ATOM     16  C   UNL     1       1.176   2.681  20.468  0.00  0.00    +0.000 C 
ATOM     17  C   UNL     1       2.691   2.557  20.557  0.00  0.00    +0.000 C 
ATOM     18  C   UNL     1       3.407   3.877  20.305  0.00  0.00    +0.000 C 
ENDBRANCH  11  12
ENDBRANCH   1   2
BRANCH   1  20
ATOM     19  N   UNL     1       0.995   8.969  18.958  0.00  0.00    +0.000 N 
ATOM     20  C   UNL     1       2.127   8.508  18.311  0.00  0.00    +0.000 C 
ATOM     21  O   UNL     1       2.515   9.053  17.269  0.00  0.00    +0.000 OA
ATOM     22  H   UNL     1       0.839   8.666  19.916  0.00  0.00    +0.000 HD
BRANCH  19  23
ATOM     23  C   UNL     1       0.435  10.255  18.529  0.00  0.00    +0.000 C 
BRANCH  23  24
ATOM     24  C   UNL     1      -0.957  10.570  19.081  0.00  0.00    +0.000 C 
BRANCH  24  29
ATOM     25  C   UNL     1      -4.103  11.486  17.122  0.00  0.00    +0.000 A 
ATOM     26  C   UNL     1      -3.962  10.708  15.962  0.00  0.00    +0.000 A 
ATOM     27  C   UNL     1      -2.851   9.876  15.822  0.00  0.00    +0.000 A 
ATOM     28  C   UNL     1      -1.877   9.840  16.826  0.00  0.00    +0.000 A 
ATOM     29  C   UNL     1      -2.002  10.627  17.983  0.00  0.00    +0.000 A 
ATOM     30  C   UNL     1      -3.145  11.433  18.112  0.00  0.00    +0.000 A 
BRANCH  25  32
ATOM     31  C   UNL     1      -6.375  11.667  17.819  0.00  0.00    +0.000 C 
ATOM     32  O   UNL     1      -5.264  12.238  17.136  0.00  0.00    +0.000 OA
ENDBRANCH  25  32
ENDBRANCH  24  29
ENDBRANCH  23  24
ENDBRANCH  19  23
ENDBRANCH   1  20
BRANCH   1  33
ATOM     33  C   UNL     1       2.108   6.769  19.985  0.00  0.00    +0.000 C 
ATOM     34  N   UNL     1       1.373   6.233  20.857  0.00  0.00    +0.000 NA
ENDBRANCH   1  33
TORSDOF 8
ENDMDL
MODEL 7
REMARK VINA RESULT:      -8.5      4.858      8.537
REMARK  Name = 
REMARK  9 active torsions:
REMARK  status: ('A' for Active; 'I' for Inactive)
REMARK    1  A    between atoms: C_1  and  O_2
REMARK    2  A    between atoms: O_2  and  C_3
REMARK    3  A    between atoms: C_7  and  C_8
REMARK    4  A    between atoms: C_8  and  C_9
REMARK    5  A    between atoms: C_9  and  N_10
REMARK    6  A    between atoms: C_11  and  C_13
REMARK    7  A    between atoms: C_13  and  C_14
REMARK    8  A    between atoms: C_13  and  C_16
REMARK    9  A    between atoms: C_25  and  N_26
REMARK                            x       y       z     vdW  Elec       q    Type
REMARK                         _______ _______ _______ _____ _____    ______ ____
ROOT
ATOM      1  C   UNL     1       2.948   7.400  19.062  0.00  0.00    +0.000 C 
ENDROOT
BRANCH   1   2
ATOM      2  C   UNL     1       3.664   6.437  18.171  0.00  0.00    +0.000 A 
ATOM      3  N   UNL     1       3.916   6.665  16.860  0.00  0.00    +0.000 NA
ATOM      4  C   UNL     1       5.037   6.039  16.416  0.00  0.00    +0.000 A 
ATOM      5  C   UNL     1       5.157   5.233  15.284  0.00  0.00    +0.000 A 
ATOM      6  C   UNL     1       6.371   4.597  14.992  0.00  0.00    +0.000 A 
ATOM      7  C   UNL     1       7.510   5.006  15.674  0.00  0.00    +0.000 A 
ATOM      8  C   UNL     1       7.341   5.756  16.827  0.00  0.00    +0.000 A 
ATOM      9  C   UNL     1       6.051   5.849  17.324  0.00  0.00    +0.000 A 
ATOM     10  N   UNL     1       5.663   5.393  18.542  0.00  0.00    +0.000 NA
ATOM     11  C   UNL     1       4.336   5.399  18.787  0.00  0.00    +0.000 A 
BRANCH  11  12
ATOM     12  N   UNL     1       3.612   4.205  19.075  0.00  0.00    +0.000 N 
ATOM     13  C   UNL     1       2.735   3.673  18.007  0.00  0.00    +0.000 C 
ATOM     14  C   UNL     1       1.216   3.736  18.275  0.00  0.00    +0.000 C 
ATOM     15  C   UNL     1       0.648   2.621  19.160  0.00  0.00    +0.000 C 
ATOM     16  C   UNL     1       1.097   2.693  20.608  0.00  0.00    +0.000 C 
ATOM     17  C   UNL     1       2.609   2.586  20.752  0.00  0.00    +0.000 C 
ATOM     18  C   UNL     1       3.322   3.905  20.482  0.00  0.00    +0.000 C 
ENDBRANCH  11  12
ENDBRANCH   1   2
BRANCH   1  20
ATOM     19  N   UNL     1       1.122   9.154  19.145  0.00  0.00    +0.000 N 
ATOM     20  C   UNL     1       2.103   8.501  18.422  0.00  0.00    +0.000 C 
ATOM     21  O   UNL     1       2.387   8.875  17.276  0.00  0.00    +0.000 OA
ATOM     22  H   UNL     1       1.078   8.984  20.146  0.00  0.00    +0.000 HD
BRANCH  19  23
ATOM     23  C   UNL     1       0.626  10.435  18.628  0.00  0.00    +0.000 C 
BRANCH  23  24
ATOM     24  C   UNL     1      -0.652  10.948  19.294  0.00  0.00    +0.000 C 
BRANCH  24  29
ATOM     25  C   UNL     1      -2.849  10.157  16.275  0.00  0.00    +0.000 A 
ATOM     26  C   UNL     1      -4.027  10.858  16.578  0.00  0.00    +0.000 A 
ATOM     27  C   UNL     1      -4.103  11.598  17.758  0.00  0.00    +0.000 A 
ATOM     28  C   UNL     1      -3.015  11.618  18.639  0.00  0.00    +0.000 A 
ATOM     29  C   UNL     1      -1.839  10.907  18.350  0.00  0.00    +0.000 A 
ATOM     30  C   UNL     1      -1.777  10.195  17.141  0.00  0.00    +0.000 A 
BRANCH  25  32
ATOM     31  C   UNL     1      -3.685  10.112  14.042  0.00  0.00    +0.000 C 
ATOM     32  O   UNL     1      -2.907   9.494  15.062  0.00  0.00    +0.000 OA
ENDBRANCH  25  32
ENDBRANCH  24  29
ENDBRANCH  23  24
ENDBRANCH  19  23
ENDBRANCH   1  20
BRANCH   1  33
ATOM     33  C   UNL     1       2.034   6.768  20.100  0.00  0.00    +0.000 C 
ATOM     34  N   UNL     1       1.277   6.244  20.961  0.00  0.00    +0.000 NA
ENDBRANCH   1  33
TORSDOF 8
ENDMDL
MODEL 8
REMARK VINA RESULT:      -8.3      4.481      6.283
REMARK  Name = 
REMARK  9 active torsions:
REMARK  status: ('A' for Active; 'I' for Inactive)
REMARK    1  A    between atoms: C_1  and  O_2
REMARK    2  A    between atoms: O_2  and  C_3
REMARK    3  A    between atoms: C_7  and  C_8
REMARK    4  A    between atoms: C_8  and  C_9
REMARK    5  A    between atoms: C_9  and  N_10
REMARK    6  A    between atoms: C_11  and  C_13
REMARK    7  A    between atoms: C_13  and  C_14
REMARK    8  A    between atoms: C_13  and  C_16
REMARK    9  A    between atoms: C_25  and  N_26
REMARK                            x       y       z     vdW  Elec       q    Type
REMARK                         _______ _______ _______ _____ _____    ______ ____
ROOT
ATOM      1  C   UNL     1       2.180   8.152  19.837  0.00  0.00    +0.000 C 
ENDROOT
BRANCH   1   2
ATOM      2  C   UNL     1       2.470   6.691  19.719  0.00  0.00    +0.000 A 
ATOM      3  N   UNL     1       2.039   5.762  20.605  0.00  0.00    +0.000 NA
ATOM      4  C   UNL     1       1.854   4.538  20.046  0.00  0.00    +0.000 A 
ATOM      5  C   UNL     1       2.348   3.319  20.509  0.00  0.00    +0.000 A 
ATOM      6  C   UNL     1       2.129   2.142  19.782  0.00  0.00    +0.000 A 
ATOM      7  C   UNL     1       1.184   2.163  18.764  0.00  0.00    +0.000 A 
ATOM      8  C   UNL     1       0.765   3.397  18.294  0.00  0.00    +0.000 A 
ATOM      9  C   UNL     1       1.483   4.501  18.723  0.00  0.00    +0.000 A 
ATOM     10  N   UNL     1       2.171   5.336  17.903  0.00  0.00    +0.000 NA
ATOM     11  C   UNL     1       2.961   6.248  18.506  0.00  0.00    +0.000 A 
BRANCH  11  12
ATOM     12  N   UNL     1       4.371   6.288  18.296  0.00  0.00    +0.000 N 
ATOM     13  C   UNL     1       4.845   6.810  16.994  0.00  0.00    +0.000 C 
ATOM     14  C   UNL     1       5.515   5.788  16.050  0.00  0.00    +0.000 C 
ATOM     15  C   UNL     1       6.985   5.471  16.346  0.00  0.00    +0.000 C 
ATOM     16  C   UNL     1       7.203   4.704  17.637  0.00  0.00    +0.000 C 
ATOM     17  C   UNL     1       6.706   5.469  18.856  0.00  0.00    +0.000 C 
ATOM     18  C   UNL     1       5.201   5.347  19.057  0.00  0.00    +0.000 C 
ENDBRANCH  11  12
ENDBRANCH   1   2
BRANCH   1  20
ATOM     19  N   UNL     1       0.162   9.412  18.964  0.00  0.00    +0.000 N 
ATOM     20  C   UNL     1       1.395   8.836  18.717  0.00  0.00    +0.000 C 
ATOM     21  O   UNL     1       1.931   8.960  17.608  0.00  0.00    +0.000 OA
ATOM     22  H   UNL     1      -0.137   9.496  19.932  0.00  0.00    +0.000 HD
BRANCH  19  23
ATOM     23  C   UNL     1      -0.355  10.373  17.984  0.00  0.00    +0.000 C 
BRANCH  23  24
ATOM     24  C   UNL     1      -0.687  11.756  18.548  0.00  0.00    +0.000 C 
BRANCH  24  29
ATOM     25  C   UNL     1       1.749  13.675  20.774  0.00  0.00    +0.000 A 
ATOM     26  C   UNL     1       2.841  13.869  19.913  0.00  0.00    +0.000 A 
ATOM     27  C   UNL     1       2.780  13.387  18.605  0.00  0.00    +0.000 A 
ATOM     28  C   UNL     1       1.644  12.697  18.169  0.00  0.00    +0.000 A 
ATOM     29  C   UNL     1       0.553  12.485  19.029  0.00  0.00    +0.000 A 
ATOM     30  C   UNL     1       0.628  13.006  20.331  0.00  0.00    +0.000 A 
BRANCH  25  32
ATOM     31  C   UNL     1       2.851  15.320  22.101  0.00  0.00    +0.000 C 
ATOM     32  O   UNL     1       1.938  14.231  22.027  0.00  0.00    +0.000 OA
ENDBRANCH  25  32
ENDBRANCH  24  29
ENDBRANCH  23  24
ENDBRANCH  19  23
ENDBRANCH   1  20
BRANCH   1  33
ATOM     33  C   UNL     1       1.474   8.574  21.116  0.00  0.00    +0.000 C 
ATOM     34  N   UNL     1       0.889   8.924  22.176  0.00  0.00    +0.000 NA
ENDBRANCH   1  33
TORSDOF 8
ENDMDL
MODEL 9
REMARK VINA RESULT:      -8.3      4.370      6.376
REMARK  Name = 
REMARK  9 active torsions:
REMARK  status: ('A' for Active; 'I' for Inactive)
REMARK    1  A    between atoms: C_1  and  O_2
REMARK    2  A    between atoms: O_2  and  C_3
REMARK    3  A    between atoms: C_7  and  C_8
REMARK    4  A    between atoms: C_8  and  C_9
REMARK    5  A    between atoms: C_9  and  N_10
REMARK    6  A    between atoms: C_11  and  C_13
REMARK    7  A    between atoms: C_13  and  C_14
REMARK    8  A    between atoms: C_13  and  C_16
REMARK    9  A    between atoms: C_25  and  N_26
REMARK                            x       y       z     vdW  Elec       q    Type
REMARK                         _______ _______ _______ _____ _____    ______ ____
ROOT
ATOM      1  C   UNL     1       2.134   8.108  19.957  0.00  0.00    +0.000 C 
ENDROOT
BRANCH   1   2
ATOM      2  C   UNL     1       2.432   6.650  19.816  0.00  0.00    +0.000 A 
ATOM      3  N   UNL     1       2.001   5.703  20.682  0.00  0.00    +0.000 NA
ATOM      4  C   UNL     1       1.825   4.488  20.101  0.00  0.00    +0.000 A 
ATOM      5  C   UNL     1       2.324   3.264  20.546  0.00  0.00    +0.000 A 
ATOM      6  C   UNL     1       2.114   2.099  19.796  0.00  0.00    +0.000 A 
ATOM      7  C   UNL     1       1.174   2.133  18.774  0.00  0.00    +0.000 A 
ATOM      8  C   UNL     1       0.751   3.373  18.324  0.00  0.00    +0.000 A 
ATOM      9  C   UNL     1       1.461   4.473  18.776  0.00  0.00    +0.000 A 
ATOM     10  N   UNL     1       2.149   5.326  17.975  0.00  0.00    +0.000 NA
ATOM     11  C   UNL     1       2.932   6.231  18.598  0.00  0.00    +0.000 A 
BRANCH  11  12
ATOM     12  N   UNL     1       4.342   6.282  18.395  0.00  0.00    +0.000 N 
ATOM     13  C   UNL     1       4.820   6.831  17.106  0.00  0.00    +0.000 C 
ATOM     14  C   UNL     1       5.499   5.831  16.146  0.00  0.00    +0.000 C 
ATOM     15  C   UNL     1       6.969   5.515  16.443  0.00  0.00    +0.000 C 
ATOM     16  C   UNL     1       7.185   4.724  17.721  0.00  0.00    +0.000 C 
ATOM     17  C   UNL     1       6.679   5.464  18.952  0.00  0.00    +0.000 C 
ATOM     18  C   UNL     1       5.173   5.331  19.143  0.00  0.00    +0.000 C 
ENDBRANCH  11  12
ENDBRANCH   1   2
BRANCH   1  20
ATOM     19  N   UNL     1       0.227   9.515  19.062  0.00  0.00    +0.000 N 
ATOM     20  C   UNL     1       1.397   8.818  18.822  0.00  0.00    +0.000 C 
ATOM     21  O   UNL     1       1.925   8.852  17.702  0.00  0.00    +0.000 OA
ATOM     22  H   UNL     1      -0.048   9.663  20.029  0.00  0.00    +0.000 HD
BRANCH  19  23
ATOM     23  C   UNL     1      -0.215  10.483  18.051  0.00  0.00    +0.000 C 
BRANCH  23  24
ATOM     24  C   UNL     1      -0.878  11.744  18.611  0.00  0.00    +0.000 C 
BRANCH  24  29
ATOM     25  C   UNL     1       2.324  13.814  18.436  0.00  0.00    +0.000 A 
ATOM     26  C   UNL     1       1.848  15.111  18.688  0.00  0.00    +0.000 A 
ATOM     27  C   UNL     1       0.489  15.310  18.927  0.00  0.00    +0.000 A 
ATOM     28  C   UNL     1      -0.392  14.223  18.892  0.00  0.00    +0.000 A 
ATOM     29  C   UNL     1       0.074  12.925  18.626  0.00  0.00    +0.000 A 
ATOM     30  C   UNL     1       1.451  12.747  18.418  0.00  0.00    +0.000 A 
BRANCH  25  32
ATOM     31  C   UNL     1       4.341  15.007  17.996  0.00  0.00    +0.000 C 
ATOM     32  O   UNL     1       3.694  13.763  18.247  0.00  0.00    +0.000 OA
ENDBRANCH  25  32
ENDBRANCH  24  29
ENDBRANCH  23  24
ENDBRANCH  19  23
ENDBRANCH   1  20
BRANCH   1  33
ATOM     33  C   UNL     1       1.371   8.496  21.215  0.00  0.00    +0.000 C 
ATOM     34  N   UNL     1       0.739   8.817  22.256  0.00  0.00    +0.000 NA
ENDBRANCH   1  33
TORSDOF 8
ENDMDL
