MODEL 1
REMARK VINA RESULT:      -7.2      0.000      0.000
REMARK  Name = 
REMARK  8 active torsions:
REMARK  status: ('A' for Active; 'I' for Inactive)
REMARK    1  A    between atoms: C_1  and  C_2
REMARK    2  A    between atoms: C_2  and  C_3
REMARK    3  A    between atoms: C_2  and  C_4
REMARK    4  A    between atoms: C_2  and  C_5
REMARK    5  A    between atoms: C_8  and  C_9
REMARK    6  A    between atoms: C_11  and  C_12
REMARK    7  A    between atoms: C_13  and  C_14
REMARK    8  A    between atoms: C_14  and  O_16
REMARK                            x       y       z     vdW  Elec       q    Type
REMARK                         _______ _______ _______ _____ _____    ______ ____
ROOT
ATOM      1  C   UNL     1       2.890   6.612  18.311  0.00  0.00    +0.000 A 
ATOM      2  C   UNL     1       3.965   6.588  17.442  0.00  0.00    +0.000 A 
ATOM      3  C   UNL     1       4.221   5.223  17.172  0.00  0.00    +0.000 A 
ATOM      4  N   UNL     1       3.349   4.435  17.814  0.00  0.00    +0.000 NA
ATOM      5  N   UNL     1       2.557   5.293  18.476  0.00  0.00    +0.000 N 
ATOM      6  H   UNL     1       1.790   4.914  19.021  0.00  0.00    +0.000 HD
ENDROOT
BRANCH   1  10
ATOM      7  C   UNL     1       0.795   9.927  20.108  0.00  0.00    +0.000 A 
ATOM      8  C   UNL     1       1.181   9.938  18.760  0.00  0.00    +0.000 A 
ATOM      9  C   UNL     1       1.861   8.858  18.185  0.00  0.00    +0.000 A 
ATOM     10  C   UNL     1       2.178   7.724  18.936  0.00  0.00    +0.000 A 
ATOM     11  C   UNL     1       1.807   7.700  20.283  0.00  0.00    +0.000 A 
ATOM     12  C   UNL     1       1.129   8.785  20.858  0.00  0.00    +0.000 A 
BRANCH   7  14
ATOM     13  C   UNL     1       0.856  12.401  20.829  0.00  0.00    +0.000 C 
ATOM     14  C   UNL     1       0.032  11.095  20.755  0.00  0.00    +0.000 C 
ATOM     15  C   UNL     1      -0.378  10.732  22.198  0.00  0.00    +0.000 C 
ATOM     16  C   UNL     1      -1.239  11.400  19.933  0.00  0.00    +0.000 C 
ENDBRANCH   7  14
ENDBRANCH   1  10
BRANCH   3  17
ATOM     17  C   UNL     1       5.275   4.747  16.333  0.00  0.00    +0.000 C 
ATOM     18  C   UNL     1       5.669   5.366  15.211  0.00  0.00    +0.000 C 
BRANCH  18  19
ATOM     19  C   UNL     1       6.758   4.796  14.405  0.00  0.00    +0.000 C 
ATOM     20  O   UNL     1       7.798   5.374  14.139  0.00  0.00    +0.000 OA
BRANCH  19  21
ATOM     21  O   UNL     1       6.476   3.545  13.989  0.00  0.00    +0.000 OA
ATOM     22  H   UNL     1       6.718   2.837  14.612  0.00  0.00    +0.000 HD
ENDBRANCH  19  21
ENDBRANCH  18  19
ENDBRANCH   3  17
TORSDOF 5
ENDMDL
MODEL 2
REMARK VINA RESULT:      -7.0      0.234      1.300
REMARK  Name = 
REMARK  8 active torsions:
REMARK  status: ('A' for Active; 'I' for Inactive)
REMARK    1  A    between atoms: C_1  and  C_2
REMARK    2  A    between atoms: C_2  and  C_3
REMARK    3  A    between atoms: C_2  and  C_4
REMARK    4  A    between atoms: C_2  and  C_5
REMARK    5  A    between atoms: C_8  and  C_9
REMARK    6  A    between atoms: C_11  and  C_12
REMARK    7  A    between atoms: C_13  and  C_14
REMARK    8  A    between atoms: C_14  and  O_16
REMARK                            x       y       z     vdW  Elec       q    Type
REMARK                         _______ _______ _______ _____ _____    ______ ____
ROOT
ATOM      1  C   UNL     1       2.990   6.505  18.213  0.00  0.00    +0.000 A 
ATOM      2  C   UNL     1       3.964   6.472  17.232  0.00  0.00    +0.000 A 
ATOM      3  C   UNL     1       4.302   5.110  17.060  0.00  0.00    +0.000 A 
ATOM      4  N   UNL     1       3.573   4.328  17.867  0.00  0.00    +0.000 NA
ATOM      5  N   UNL     1       2.787   5.188  18.534  0.00  0.00    +0.000 N 
ATOM      6  H   UNL     1       2.118   4.810  19.196  0.00  0.00    +0.000 HD
ENDROOT
BRANCH   1  10
ATOM      7  C   UNL     1       0.825   9.762  20.032  0.00  0.00    +0.000 A 
ATOM      8  C   UNL     1       1.222   8.635  20.767  0.00  0.00    +0.000 A 
ATOM      9  C   UNL     1       1.924   7.583  20.168  0.00  0.00    +0.000 A 
ATOM     10  C   UNL     1       2.258   7.618  18.812  0.00  0.00    +0.000 A 
ATOM     11  C   UNL     1       1.864   8.731  18.065  0.00  0.00    +0.000 A 
ATOM     12  C   UNL     1       1.158   9.784  18.665  0.00  0.00    +0.000 A 
BRANCH   7  14
ATOM     13  C   UNL     1       0.913  12.229  20.775  0.00  0.00    +0.000 C 
ATOM     14  C   UNL     1       0.069  10.938  20.674  0.00  0.00    +0.000 C 
ATOM     15  C   UNL     1      -0.378  10.570  22.104  0.00  0.00    +0.000 C 
ATOM     16  C   UNL     1      -1.179  11.272  19.827  0.00  0.00    +0.000 C 
ENDBRANCH   7  14
ENDBRANCH   1  10
BRANCH   3  17
ATOM     17  C   UNL     1       5.296   4.631  16.152  0.00  0.00    +0.000 C 
ATOM     18  C   UNL     1       5.669   5.287  15.043  0.00  0.00    +0.000 C 
BRANCH  18  19
ATOM     19  C   UNL     1       6.695   4.711  14.163  0.00  0.00    +0.000 C 
ATOM     20  O   UNL     1       6.526   3.738  13.448  0.00  0.00    +0.000 OA
BRANCH  19  21
ATOM     21  O   UNL     1       7.858   5.388  14.233  0.00  0.00    +0.000 OA
ATOM     22  H   UNL     1       8.590   5.010  13.714  0.00  0.00    +0.000 HD
ENDBRANCH  19  21
ENDBRANCH  18  19
ENDBRANCH   3  17
TORSDOF 5
ENDMDL
MODEL 3
REMARK VINA RESULT:      -7.0      0.279      1.238
REMARK  Name = 
REMARK  8 active torsions:
REMARK  status: ('A' for Active; 'I' for Inactive)
REMARK    1  A    between atoms: C_1  and  C_2
REMARK    2  A    between atoms: C_2  and  C_3
REMARK    3  A    between atoms: C_2  and  C_4
REMARK    4  A    between atoms: C_2  and  C_5
REMARK    5  A    between atoms: C_8  and  C_9
REMARK    6  A    between atoms: C_11  and  C_12
REMARK    7  A    between atoms: C_13  and  C_14
REMARK    8  A    between atoms: C_14  and  O_16
REMARK                            x       y       z     vdW  Elec       q    Type
REMARK                         _______ _______ _______ _____ _____    ______ ____
ROOT
ATOM      1  C   UNL     1       2.959   6.566  18.523  0.00  0.00    +0.000 A 
ATOM      2  C   UNL     1       3.756   6.476  17.397  0.00  0.00    +0.000 A 
ATOM      3  C   UNL     1       4.227   5.143  17.354  0.00  0.00    +0.000 A 
ATOM      4  N   UNL     1       3.742   4.429  18.377  0.00  0.00    +0.000 NA
ATOM      5  N   UNL     1       2.976   5.301  19.052  0.00  0.00    +0.000 N 
ATOM      6  H   UNL     1       2.476   4.967  19.868  0.00  0.00    +0.000 HD
ENDROOT
BRANCH   1  10
ATOM      7  C   UNL     1       0.739   9.893  20.136  0.00  0.00    +0.000 A 
ATOM      8  C   UNL     1       1.187   9.877  18.808  0.00  0.00    +0.000 A 
ATOM      9  C   UNL     1       1.907   8.792  18.292  0.00  0.00    +0.000 A 
ATOM     10  C   UNL     1       2.204   7.682  19.086  0.00  0.00    +0.000 A 
ATOM     11  C   UNL     1       1.771   7.686  20.414  0.00  0.00    +0.000 A 
ATOM     12  C   UNL     1       1.053   8.775  20.930  0.00  0.00    +0.000 A 
BRANCH   7  14
ATOM     13  C   UNL     1      -0.591  10.801  22.149  0.00  0.00    +0.000 C 
ATOM     14  C   UNL     1      -0.069  11.066  20.718  0.00  0.00    +0.000 C 
ATOM     15  C   UNL     1      -1.296  11.362  19.831  0.00  0.00    +0.000 C 
ATOM     16  C   UNL     1       0.823  12.325  20.781  0.00  0.00    +0.000 C 
ENDBRANCH   7  14
ENDBRANCH   1  10
BRANCH   3  17
ATOM     17  C   UNL     1       5.111   4.628  16.356  0.00  0.00    +0.000 C 
ATOM     18  C   UNL     1       5.759   5.397  15.468  0.00  0.00    +0.000 C 
BRANCH  18  19
ATOM     19  C   UNL     1       6.641   4.776  14.470  0.00  0.00    +0.000 C 
ATOM     20  O   UNL     1       6.373   3.767  13.842  0.00  0.00    +0.000 OA
BRANCH  19  21
ATOM     21  O   UNL     1       7.794   5.458  14.323  0.00  0.00    +0.000 OA
ATOM     22  H   UNL     1       8.139   5.498  13.413  0.00  0.00    +0.000 HD
ENDBRANCH  19  21
ENDBRANCH  18  19
ENDBRANCH   3  17
TORSDOF 5
ENDMDL
MODEL 4
REMARK VINA RESULT:      -7.0      5.609      9.065
REMARK  Name = 
REMARK  8 active torsions:
REMARK  status: ('A' for Active; 'I' for Inactive)
REMARK    1  A    between atoms: C_1  and  C_2
REMARK    2  A    between atoms: C_2  and  C_3
REMARK    3  A    between atoms: C_2  and  C_4
REMARK    4  A    between atoms: C_2  and  C_5
REMARK    5  A    between atoms: C_8  and  C_9
REMARK    6  A    between atoms: C_11  and  C_12
REMARK    7  A    between atoms: C_13  and  C_14
REMARK    8  A    between atoms: C_14  and  O_16
REMARK                            x       y       z     vdW  Elec       q    Type
REMARK                         _______ _______ _______ _____ _____    ______ ____
ROOT
ATOM      1  C   UNL     1       1.272   8.419  21.036  0.00  0.00    +0.000 A 
ATOM      2  C   UNL     1       0.221   9.285  20.800  0.00  0.00    +0.000 A 
ATOM      3  C   UNL     1       0.137  10.121  21.938  0.00  0.00    +0.000 A 
ATOM      4  N   UNL     1       1.088   9.815  22.829  0.00  0.00    +0.000 NA
ATOM      5  N   UNL     1       1.760   8.803  22.258  0.00  0.00    +0.000 N 
ATOM      6  H   UNL     1       2.559   8.421  22.751  0.00  0.00    +0.000 HD
ENDROOT
BRANCH   1  10
ATOM      7  C   UNL     1       2.926   5.192  18.701  0.00  0.00    +0.000 A 
ATOM      8  C   UNL     1       2.362   4.976  19.966  0.00  0.00    +0.000 A 
ATOM      9  C   UNL     1       1.827   6.029  20.717  0.00  0.00    +0.000 A 
ATOM     10  C   UNL     1       1.835   7.338  20.230  0.00  0.00    +0.000 A 
ATOM     11  C   UNL     1       2.400   7.571  18.974  0.00  0.00    +0.000 A 
ATOM     12  C   UNL     1       2.938   6.515  18.224  0.00  0.00    +0.000 A 
BRANCH   7  14
ATOM     13  C   UNL     1       2.421   3.222  17.116  0.00  0.00    +0.000 C 
ATOM     14  C   UNL     1       3.503   4.046  17.851  0.00  0.00    +0.000 C 
ATOM     15  C   UNL     1       4.297   3.068  18.741  0.00  0.00    +0.000 C 
ATOM     16  C   UNL     1       4.446   4.628  16.775  0.00  0.00    +0.000 C 
ENDBRANCH   7  14
ENDBRANCH   1  10
BRANCH   3  17
ATOM     17  C   UNL     1      -0.840  11.148  22.117  0.00  0.00    +0.000 C 
ATOM     18  C   UNL     1      -1.683  11.200  23.159  0.00  0.00    +0.000 C 
BRANCH  18  19
ATOM     19  C   UNL     1      -2.663  12.292  23.253  0.00  0.00    +0.000 C 
ATOM     20  O   UNL     1      -2.549  13.373  22.703  0.00  0.00    +0.000 OA
BRANCH  19  21
ATOM     21  O   UNL     1      -3.717  11.958  24.024  0.00  0.00    +0.000 OA
ATOM     22  H   UNL     1      -4.494  12.539  23.938  0.00  0.00    +0.000 HD
ENDBRANCH  19  21
ENDBRANCH  18  19
ENDBRANCH   3  17
TORSDOF 5
ENDMDL
MODEL 5
REMARK VINA RESULT:      -6.9      5.587      9.081
REMARK  Name = 
REMARK  8 active torsions:
REMARK  status: ('A' for Active; 'I' for Inactive)
REMARK    1  A    between atoms: C_1  and  C_2
REMARK    2  A    between atoms: C_2  and  C_3
REMARK    3  A    between atoms: C_2  and  C_4
REMARK    4  A    between atoms: C_2  and  C_5
REMARK    5  A    between atoms: C_8  and  C_9
REMARK    6  A    between atoms: C_11  and  C_12
REMARK    7  A    between atoms: C_13  and  C_14
REMARK    8  A    between atoms: C_14  and  O_16
REMARK                            x       y       z     vdW  Elec       q    Type
REMARK                         _______ _______ _______ _____ _____    ______ ____
ROOT
ATOM      1  C   UNL     1       1.274   8.421  21.031  0.00  0.00    +0.000 A 
ATOM      2  C   UNL     1       0.197   9.257  20.802  0.00  0.00    +0.000 A 
ATOM      3  C   UNL     1       0.117  10.110  21.927  0.00  0.00    +0.000 A 
ATOM      4  N   UNL     1       1.094   9.845  22.802  0.00  0.00    +0.000 NA
ATOM      5  N   UNL     1       1.779   8.839  22.234  0.00  0.00    +0.000 N 
ATOM      6  H   UNL     1       2.598   8.485  22.717  0.00  0.00    +0.000 HD
ENDROOT
BRANCH   1  10
ATOM      7  C   UNL     1       2.955   5.194  18.715  0.00  0.00    +0.000 A 
ATOM      8  C   UNL     1       2.388   4.980  19.979  0.00  0.00    +0.000 A 
ATOM      9  C   UNL     1       1.844   6.034  20.724  0.00  0.00    +0.000 A 
ATOM     10  C   UNL     1       1.846   7.341  20.231  0.00  0.00    +0.000 A 
ATOM     11  C   UNL     1       2.414   7.571  18.976  0.00  0.00    +0.000 A 
ATOM     12  C   UNL     1       2.961   6.515  18.232  0.00  0.00    +0.000 A 
BRANCH   7  14
ATOM     13  C   UNL     1       4.490   4.534  16.752  0.00  0.00    +0.000 C 
ATOM     14  C   UNL     1       3.542   4.048  17.872  0.00  0.00    +0.000 C 
ATOM     15  C   UNL     1       2.409   3.248  17.196  0.00  0.00    +0.000 C 
ATOM     16  C   UNL     1       4.354   3.101  18.782  0.00  0.00    +0.000 C 
ENDBRANCH   7  14
ENDBRANCH   1  10
BRANCH   3  17
ATOM     17  C   UNL     1      -0.881  11.117  22.110  0.00  0.00    +0.000 C 
ATOM     18  C   UNL     1      -1.656  11.207  23.201  0.00  0.00    +0.000 C 
BRANCH  18  19
ATOM     19  C   UNL     1      -2.665  12.272  23.296  0.00  0.00    +0.000 C 
ATOM     20  O   UNL     1      -3.804  12.111  23.695  0.00  0.00    +0.000 OA
BRANCH  19  21
ATOM     21  O   UNL     1      -2.181  13.462  22.888  0.00  0.00    +0.000 OA
ATOM     22  H   UNL     1      -2.848  14.160  22.764  0.00  0.00    +0.000 HD
ENDBRANCH  19  21
ENDBRANCH  18  19
ENDBRANCH   3  17
TORSDOF 5
ENDMDL
MODEL 6
REMARK VINA RESULT:      -6.9      1.338      2.058
REMARK  Name = 
REMARK  8 active torsions:
REMARK  status: ('A' for Active; 'I' for Inactive)
REMARK    1  A    between atoms: C_1  and  C_2
REMARK    2  A    between atoms: C_2  and  C_3
REMARK    3  A    between atoms: C_2  and  C_4
REMARK    4  A    between atoms: C_2  and  C_5
REMARK    5  A    between atoms: C_8  and  C_9
REMARK    6  A    between atoms: C_11  and  C_12
REMARK    7  A    between atoms: C_13  and  C_14
REMARK    8  A    between atoms: C_14  and  O_16
REMARK                            x       y       z     vdW  Elec       q    Type
REMARK                         _______ _______ _______ _____ _____    ______ ____
ROOT
ATOM      1  C   UNL     1       3.815   5.470  17.542  0.00  0.00    +0.000 A 
ATOM      2  C   UNL     1       4.658   5.767  16.487  0.00  0.00    +0.000 A 
ATOM      3  C   UNL     1       5.109   4.524  15.983  0.00  0.00    +0.000 A 
ATOM      4  N   UNL     1       4.570   3.506  16.665  0.00  0.00    +0.000 NA
ATOM      5  N   UNL     1       3.790   4.100  17.581  0.00  0.00    +0.000 N 
ATOM      6  H   UNL     1       3.250   3.511  18.205  0.00  0.00    +0.000 HD
ENDROOT
BRANCH   1  10
ATOM      7  C   UNL     1       1.575   8.060  20.165  0.00  0.00    +0.000 A 
ATOM      8  C   UNL     1       1.980   8.471  18.886  0.00  0.00    +0.000 A 
ATOM      9  C   UNL     1       2.706   7.624  18.042  0.00  0.00    +0.000 A 
ATOM     10  C   UNL     1       3.054   6.332  18.443  0.00  0.00    +0.000 A 
ATOM     11  C   UNL     1       2.665   5.910  19.716  0.00  0.00    +0.000 A 
ATOM     12  C   UNL     1       1.940   6.761  20.563  0.00  0.00    +0.000 A 
BRANCH   7  14
ATOM     13  C   UNL     1       1.488   9.291  22.427  0.00  0.00    +0.000 C 
ATOM     14  C   UNL     1       0.761   8.968  21.102  0.00  0.00    +0.000 C 
ATOM     15  C   UNL     1      -0.579   8.295  21.468  0.00  0.00    +0.000 C 
ATOM     16  C   UNL     1       0.474  10.312  20.397  0.00  0.00    +0.000 C 
ENDBRANCH   7  14
ENDBRANCH   1  10
BRANCH   3  17
ATOM     17  C   UNL     1       6.027   4.376  14.898  0.00  0.00    +0.000 C 
ATOM     18  C   UNL     1       5.674   3.943  13.679  0.00  0.00    +0.000 C 
BRANCH  18  19
ATOM     19  C   UNL     1       6.691   3.812  12.626  0.00  0.00    +0.000 C 
ATOM     20  O   UNL     1       7.491   4.680  12.326  0.00  0.00    +0.000 OA
BRANCH  19  21
ATOM     21  O   UNL     1       6.640   2.608  12.023  0.00  0.00    +0.000 OA
ATOM     22  H   UNL     1       7.505   2.228  11.784  0.00  0.00    +0.000 HD
ENDBRANCH  19  21
ENDBRANCH  18  19
ENDBRANCH   3  17
TORSDOF 5
ENDMDL
MODEL 7
REMARK VINA RESULT:      -6.9      1.338      2.199
REMARK  Name = 
REMARK  8 active torsions:
REMARK  status: ('A' for Active; 'I' for Inactive)
REMARK    1  A    between atoms: C_1  and  C_2
REMARK    2  A    between atoms: C_2  and  C_3
REMARK    3  A    between atoms: C_2  and  C_4
REMARK    4  A    between atoms: C_2  and  C_5
REMARK    5  A    between atoms: C_8  and  C_9
REMARK    6  A    between atoms: C_11  and  C_12
REMARK    7  A    between atoms: C_13  and  C_14
REMARK    8  A    between atoms: C_14  and  O_16
REMARK                            x       y       z     vdW  Elec       q    Type
REMARK                         _______ _______ _______ _____ _____    ______ ____
ROOT
ATOM      1  C   UNL     1       4.222   6.046  17.709  0.00  0.00    +0.000 A 
ATOM      2  C   UNL     1       4.641   5.946  16.395  0.00  0.00    +0.000 A 
ATOM      3  C   UNL     1       5.591   4.898  16.364  0.00  0.00    +0.000 A 
ATOM      4  N   UNL     1       5.747   4.356  17.578  0.00  0.00    +0.000 NA
ATOM      5  N   UNL     1       4.906   5.052  18.360  0.00  0.00    +0.000 N 
ATOM      6  H   UNL     1       4.835   4.792  19.337  0.00  0.00    +0.000 HD
ENDROOT
BRANCH   1  10
ATOM      7  C   UNL     1       1.371   8.636  19.650  0.00  0.00    +0.000 A 
ATOM      8  C   UNL     1       1.846   7.468  20.262  0.00  0.00    +0.000 A 
ATOM      9  C   UNL     1       2.772   6.633  19.625  0.00  0.00    +0.000 A 
ATOM     10  C   UNL     1       3.259   6.936  18.351  0.00  0.00    +0.000 A 
ATOM     11  C   UNL     1       2.790   8.093  17.725  0.00  0.00    +0.000 A 
ATOM     12  C   UNL     1       1.860   8.928  18.363  0.00  0.00    +0.000 A 
BRANCH   7  14
ATOM     13  C   UNL     1      -0.768  10.053  19.405  0.00  0.00    +0.000 C 
ATOM     14  C   UNL     1       0.368   9.578  20.339  0.00  0.00    +0.000 C 
ATOM     15  C   UNL     1       1.090  10.839  20.859  0.00  0.00    +0.000 C 
ATOM     16  C   UNL     1      -0.290   8.847  21.529  0.00  0.00    +0.000 C 
ENDBRANCH   7  14
ENDBRANCH   1  10
BRANCH   3  17
ATOM     17  C   UNL     1       6.297   4.480  15.194  0.00  0.00    +0.000 C 
ATOM     18  C   UNL     1       5.707   4.250  14.012  0.00  0.00    +0.000 C 
BRANCH  18  19
ATOM     19  C   UNL     1       6.515   3.812  12.865  0.00  0.00    +0.000 C 
ATOM     20  O   UNL     1       7.388   4.480  12.338  0.00  0.00    +0.000 OA
BRANCH  19  21
ATOM     21  O   UNL     1       6.180   2.572  12.457  0.00  0.00    +0.000 OA
ATOM     22  H   UNL     1       5.764   2.011  13.136  0.00  0.00    +0.000 HD
ENDBRANCH  19  21
ENDBRANCH  18  19
ENDBRANCH   3  17
TORSDOF 5
ENDMDL
MODEL 8
REMARK VINA RESULT:      -6.8      0.555      1.551
REMARK  Name = 
REMARK  8 active torsions:
REMARK  status: ('A' for Active; 'I' for Inactive)
REMARK    1  A    between atoms: C_1  and  C_2
REMARK    2  A    between atoms: C_2  and  C_3
REMARK    3  A    between atoms: C_2  and  C_4
REMARK    4  A    between atoms: C_2  and  C_5
REMARK    5  A    between atoms: C_8  and  C_9
REMARK    6  A    between atoms: C_11  and  C_12
REMARK    7  A    between atoms: C_13  and  C_14
REMARK    8  A    between atoms: C_14  and  O_16
REMARK                            x       y       z     vdW  Elec       q    Type
REMARK                         _______ _______ _______ _____ _____    ______ ____
ROOT
ATOM      1  C   UNL     1       2.972   7.166  18.128  0.00  0.00    +0.000 A 
ATOM      2  C   UNL     1       4.026   7.302  17.244  0.00  0.00    +0.000 A 
ATOM      3  C   UNL     1       4.425   5.989  16.904  0.00  0.00    +0.000 A 
ATOM      4  N   UNL     1       3.659   5.080  17.518  0.00  0.00    +0.000 NA
ATOM      5  N   UNL     1       2.790   5.812  18.233  0.00  0.00    +0.000 N 
ATOM      6  H   UNL     1       2.081   5.324  18.769  0.00  0.00    +0.000 HD
ENDROOT
BRANCH   1  10
ATOM      7  C   UNL     1       0.553  10.067  20.211  0.00  0.00    +0.000 A 
ATOM      8  C   UNL     1       1.019   8.904  20.840  0.00  0.00    +0.000 A 
ATOM      9  C   UNL     1       1.804   7.968  20.156  0.00  0.00    +0.000 A 
ATOM     10  C   UNL     1       2.154   8.161  18.818  0.00  0.00    +0.000 A 
ATOM     11  C   UNL     1       1.692   9.312  18.175  0.00  0.00    +0.000 A 
ATOM     12  C   UNL     1       0.903  10.247  18.861  0.00  0.00    +0.000 A 
BRANCH   7  14
ATOM     13  C   UNL     1      -0.753  10.661  22.352  0.00  0.00    +0.000 C 
ATOM     14  C   UNL     1      -0.295  11.118  20.948  0.00  0.00    +0.000 C 
ATOM     15  C   UNL     1      -1.566  11.444  20.136  0.00  0.00    +0.000 C 
ATOM     16  C   UNL     1       0.531  12.410  21.132  0.00  0.00    +0.000 C 
ENDBRANCH   7  14
ENDBRANCH   1  10
BRANCH   3  17
ATOM     17  C   UNL     1       5.509   5.674  16.027  0.00  0.00    +0.000 C 
ATOM     18  C   UNL     1       5.459   4.707  15.100  0.00  0.00    +0.000 C 
BRANCH  18  19
ATOM     19  C   UNL     1       6.629   4.447  14.249  0.00  0.00    +0.000 C 
ATOM     20  O   UNL     1       7.649   5.114  14.254  0.00  0.00    +0.000 OA
BRANCH  19  21
ATOM     21  O   UNL     1       6.447   3.374  13.454  0.00  0.00    +0.000 OA
ATOM     22  H   UNL     1       5.847   2.693  13.808  0.00  0.00    +0.000 HD
ENDBRANCH  19  21
ENDBRANCH  18  19
ENDBRANCH   3  17
TORSDOF 5
ENDMDL
MODEL 9
REMARK VINA RESULT:      -6.8      1.390      2.304
REMARK  Name = 
REMARK  8 active torsions:
REMARK  status: ('A' for Active; 'I' for Inactive)
REMARK    1  A    between atoms: C_1  and  C_2
REMARK    2  A    between atoms: C_2  and  C_3
REMARK    3  A    between atoms: C_2  and  C_4
REMARK    4  A    between atoms: C_2  and  C_5
REMARK    5  A    between atoms: C_8  and  C_9
REMARK    6  A    between atoms: C_11  and  C_12
REMARK    7  A    between atoms: C_13  and  C_14
REMARK    8  A    between atoms: C_14  and  O_16
REMARK                            x       y       z     vdW  Elec       q    Type
REMARK                         _______ _______ _______ _____ _____    ______ ____
ROOT
ATOM      1  C   UNL     1       4.211   6.334  17.458  0.00  0.00    +0.000 A 
ATOM      2  C   UNL     1       4.590   6.329  16.129  0.00  0.00    +0.000 A 
ATOM      3  C   UNL     1       5.570   5.316  16.004  0.00  0.00    +0.000 A 
ATOM      4  N   UNL     1       5.781   4.706  17.177  0.00  0.00    +0.000 NA
ATOM      5  N   UNL     1       4.945   5.325  18.025  0.00  0.00    +0.000 N 
ATOM      6  H   UNL     1       4.913   5.004  18.986  0.00  0.00    +0.000 HD
ENDROOT
BRANCH   1  10
ATOM      7  C   UNL     1       1.346   8.708  19.641  0.00  0.00    +0.000 A 
ATOM      8  C   UNL     1       1.870   7.516  20.162  0.00  0.00    +0.000 A 
ATOM      9  C   UNL     1       2.800   6.752  19.446  0.00  0.00    +0.000 A 
ATOM     10  C   UNL     1       3.242   7.152  18.183  0.00  0.00    +0.000 A 
ATOM     11  C   UNL     1       2.723   8.333  17.647  0.00  0.00    +0.000 A 
ATOM     12  C   UNL     1       1.789   9.096  18.363  0.00  0.00    +0.000 A 
BRANCH   7  14
ATOM     13  C   UNL     1      -0.363   8.814  21.568  0.00  0.00    +0.000 C 
ATOM     14  C   UNL     1       0.337   9.572  20.417  0.00  0.00    +0.000 C 
ATOM     15  C   UNL     1      -0.768  10.085  19.469  0.00  0.00    +0.000 C 
ATOM     16  C   UNL     1       1.067  10.782  21.040  0.00  0.00    +0.000 C 
ENDBRANCH   7  14
ENDBRANCH   1  10
BRANCH   3  17
ATOM     17  C   UNL     1       6.251   4.993  14.790  0.00  0.00    +0.000 C 
ATOM     18  C   UNL     1       5.835   4.050  13.932  0.00  0.00    +0.000 C 
BRANCH  18  19
ATOM     19  C   UNL     1       6.608   3.780  12.711  0.00  0.00    +0.000 C 
ATOM     20  O   UNL     1       7.453   4.526  12.249  0.00  0.00    +0.000 OA
BRANCH  19  21
ATOM     21  O   UNL     1       6.275   2.599  12.155  0.00  0.00    +0.000 OA
ATOM     22  H   UNL     1       6.638   1.813  12.602  0.00  0.00    +0.000 HD
ENDBRANCH  19  21
ENDBRANCH  18  19
ENDBRANCH   3  17
TORSDOF 5
ENDMDL
