MODEL 1
REMARK VINA RESULT:      -7.9      0.000      0.000
REMARK  Name = 
REMARK  4 active torsions:
REMARK  status: ('A' for Active; 'I' for Inactive)
REMARK    1  A    between atoms: C_1  and  C_2
REMARK    2  A    between atoms: C_4  and  C_5
REMARK    3  A    between atoms: C_8  and  C_9
REMARK    4  A    between atoms: N_11  and  C_12
REMARK                            x       y       z     vdW  Elec       q    Type
REMARK                         _______ _______ _______ _____ _____    ______ ____
ROOT
ATOM      1  C   UNL     1       2.083   6.592  20.072  0.00  0.00    +0.000 C 
ATOM      2  O   UNL     1       1.619   5.610  20.644  0.00  0.00    +0.000 OA
ATOM      3  N   UNL     1       3.090   6.489  19.130  0.00  0.00    +0.000 N 
ATOM      4  H   UNL     1       3.591   7.344  18.912  0.00  0.00    +0.000 HD
ENDROOT
BRANCH   3   5
ATOM      5  C   UNL     1       3.780   5.236  18.828  0.00  0.00    +0.000 C 
ATOM      6  C   UNL     1       3.906   4.993  17.313  0.00  0.00    +0.000 C 
ATOM      7  C   UNL     1       5.154   4.134  17.190  0.00  0.00    +0.000 C 
ATOM      8  N   UNL     1       6.020   4.670  18.220  0.00  0.00    +0.000 N 
ATOM      9  C   UNL     1       7.370   4.754  18.049  0.00  0.00    +0.000 C 
ATOM     10  N   UNL     1       8.067   5.280  19.085  0.00  0.00    +0.000 N 
ATOM     11  O   UNL     1       7.967   4.369  17.043  0.00  0.00    +0.000 OA
ATOM     12  C   UNL     1       5.241   5.245  19.306  0.00  0.00    +0.000 C 
ATOM     13  H   UNL     1       7.625   5.882  19.752  0.00  0.00    +0.000 HD
ATOM     14  H   UNL     1       9.037   5.474  18.881  0.00  0.00    +0.000 HD
ENDBRANCH   3   5
BRANCH   1  22
ATOM     15  C   UNL     1      -0.078   9.540  23.467  0.00  0.00    +0.000 C 
ATOM     16  C   UNL     1       0.453   9.380  22.069  0.00  0.00    +0.000 A 
ATOM     17  C   UNL     1       0.296  10.399  21.127  0.00  0.00    +0.000 A 
ATOM     18  C   UNL     1       0.772  10.247  19.814  0.00  0.00    +0.000 A 
ATOM     19  C   UNL     1       0.599  11.407  18.864  0.00  0.00    +0.000 C 
ATOM     20  C   UNL     1       1.393   9.030  19.433  0.00  0.00    +0.000 A 
ATOM     21 BR   UNL     1       2.096   8.919  17.654  0.00  0.00    +0.000 Br
ATOM     22  C   UNL     1       1.528   7.972  20.360  0.00  0.00    +0.000 A 
ATOM     23  C   UNL     1       1.085   8.186  21.683  0.00  0.00    +0.000 A 
ENDBRANCH   1  22
TORSDOF 2
ENDMDL
MODEL 2
REMARK VINA RESULT:      -7.2      3.060      7.314
REMARK  Name = 
REMARK  4 active torsions:
REMARK  status: ('A' for Active; 'I' for Inactive)
REMARK    1  A    between atoms: C_1  and  C_2
REMARK    2  A    between atoms: C_4  and  C_5
REMARK    3  A    between atoms: C_8  and  C_9
REMARK    4  A    between atoms: N_11  and  C_12
REMARK                            x       y       z     vdW  Elec       q    Type
REMARK                         _______ _______ _______ _____ _____    ______ ____
ROOT
ATOM      1  C   UNL     1       2.459   7.499  18.266  0.00  0.00    +0.000 C 
ATOM      2  O   UNL     1       2.656   8.394  17.451  0.00  0.00    +0.000 OA
ATOM      3  N   UNL     1       1.915   7.744  19.514  0.00  0.00    +0.000 N 
ATOM      4  H   UNL     1       2.036   7.015  20.208  0.00  0.00    +0.000 HD
ENDROOT
BRANCH   3   5
ATOM      5  C   UNL     1       1.651   9.089  20.023  0.00  0.00    +0.000 C 
ATOM      6  C   UNL     1       0.342   9.676  19.464  0.00  0.00    +0.000 C 
ATOM      7  C   UNL     1      -0.105  10.648  20.543  0.00  0.00    +0.000 C 
ATOM      8  N   UNL     1       0.279   9.974  21.766  0.00  0.00    +0.000 N 
ATOM      9  C   UNL     1      -0.481  10.051  22.895  0.00  0.00    +0.000 C 
ATOM     10  N   UNL     1      -0.016   9.370  23.971  0.00  0.00    +0.000 N 
ATOM     11  O   UNL     1      -1.522  10.703  22.988  0.00  0.00    +0.000 OA
ATOM     12  C   UNL     1       1.423   9.103  21.543  0.00  0.00    +0.000 C 
ATOM     13  H   UNL     1       0.612   8.597  23.861  0.00  0.00    +0.000 HD
ATOM     14  H   UNL     1      -0.664   9.314  24.744  0.00  0.00    +0.000 HD
ENDBRANCH   3   5
BRANCH   1  22
ATOM     15  C   UNL     1       0.975   2.746  18.581  0.00  0.00    +0.000 C 
ATOM     16  C   UNL     1       2.005   3.732  18.104  0.00  0.00    +0.000 A 
ATOM     17  C   UNL     1       3.192   3.292  17.514  0.00  0.00    +0.000 A 
ATOM     18  C   UNL     1       4.169   4.208  17.086  0.00  0.00    +0.000 A 
ATOM     19  C   UNL     1       5.408   3.657  16.425  0.00  0.00    +0.000 C 
ATOM     20  C   UNL     1       3.956   5.597  17.282  0.00  0.00    +0.000 A 
ATOM     21 BR   UNL     1       5.285   6.796  16.598  0.00  0.00    +0.000 Br
ATOM     22  C   UNL     1       2.779   6.062  17.910  0.00  0.00    +0.000 A 
ATOM     23  C   UNL     1       1.801   5.112  18.276  0.00  0.00    +0.000 A 
ENDBRANCH   1  22
TORSDOF 2
ENDMDL
MODEL 3
REMARK VINA RESULT:      -7.1      3.550      7.648
REMARK  Name = 
REMARK  4 active torsions:
REMARK  status: ('A' for Active; 'I' for Inactive)
REMARK    1  A    between atoms: C_1  and  C_2
REMARK    2  A    between atoms: C_4  and  C_5
REMARK    3  A    between atoms: C_8  and  C_9
REMARK    4  A    between atoms: N_11  and  C_12
REMARK                            x       y       z     vdW  Elec       q    Type
REMARK                         _______ _______ _______ _____ _____    ______ ____
ROOT
ATOM      1  C   UNL     1       1.817   7.486  19.821  0.00  0.00    +0.000 C 
ATOM      2  O   UNL     1       1.613   7.304  21.017  0.00  0.00    +0.000 OA
ATOM      3  N   UNL     1       1.424   8.643  19.173  0.00  0.00    +0.000 N 
ATOM      4  H   UNL     1       1.385   8.601  18.161  0.00  0.00    +0.000 HD
ENDROOT
BRANCH   3   5
ATOM      5  C   UNL     1       0.622   9.686  19.812  0.00  0.00    +0.000 C 
ATOM      6  C   UNL     1       1.484  10.861  20.307  0.00  0.00    +0.000 C 
ATOM      7  C   UNL     1       0.532  12.045  20.271  0.00  0.00    +0.000 C 
ATOM      8  N   UNL     1      -0.267  11.783  19.091  0.00  0.00    +0.000 N 
ATOM      9  C   UNL     1      -0.699  12.790  18.280  0.00  0.00    +0.000 C 
ATOM     10  N   UNL     1      -1.433  12.412  17.205  0.00  0.00    +0.000 N 
ATOM     11  O   UNL     1      -0.479  13.985  18.481  0.00  0.00    +0.000 OA
ATOM     12  C   UNL     1      -0.354  10.354  18.830  0.00  0.00    +0.000 C 
ATOM     13  H   UNL     1      -1.362  11.485  16.832  0.00  0.00    +0.000 HD
ATOM     14  H   UNL     1      -1.612  13.151  16.540  0.00  0.00    +0.000 HD
ENDBRANCH   3   5
BRANCH   1  22
ATOM     15  C   UNL     1       5.146   6.683  16.193  0.00  0.00    +0.000 C 
ATOM     16  C   UNL     1       4.195   6.102  17.203  0.00  0.00    +0.000 A 
ATOM     17  C   UNL     1       3.954   4.728  17.247  0.00  0.00    +0.000 A 
ATOM     18  C   UNL     1       3.051   4.182  18.175  0.00  0.00    +0.000 A 
ATOM     19  C   UNL     1       2.871   2.684  18.186  0.00  0.00    +0.000 C 
ATOM     20  C   UNL     1       2.353   5.044  19.059  0.00  0.00    +0.000 A 
ATOM     21 BR   UNL     1       1.202   4.231  20.357  0.00  0.00    +0.000 Br
ATOM     22  C   UNL     1       2.554   6.442  19.007  0.00  0.00    +0.000 A 
ATOM     23  C   UNL     1       3.510   6.943  18.096  0.00  0.00    +0.000 A 
ENDBRANCH   1  22
TORSDOF 2
ENDMDL
MODEL 4
REMARK VINA RESULT:      -7.0      3.496      5.219
REMARK  Name = 
REMARK  4 active torsions:
REMARK  status: ('A' for Active; 'I' for Inactive)
REMARK    1  A    between atoms: C_1  and  C_2
REMARK    2  A    between atoms: C_4  and  C_5
REMARK    3  A    between atoms: C_8  and  C_9
REMARK    4  A    between atoms: N_11  and  C_12
REMARK                            x       y       z     vdW  Elec       q    Type
REMARK                         _______ _______ _______ _____ _____    ______ ____
ROOT
ATOM      1  C   UNL     1       4.719   5.436  17.962  0.00  0.00    +0.000 C 
ATOM      2  O   UNL     1       5.784   5.908  18.348  0.00  0.00    +0.000 OA
ATOM      3  N   UNL     1       4.522   5.033  16.654  0.00  0.00    +0.000 N 
ATOM      4  H   UNL     1       3.559   4.914  16.360  0.00  0.00    +0.000 HD
ENDROOT
BRANCH   3   5
ATOM      5  C   UNL     1       5.503   5.252  15.591  0.00  0.00    +0.000 C 
ATOM      6  C   UNL     1       6.726   4.327  15.731  0.00  0.00    +0.000 C 
ATOM      7  C   UNL     1       7.228   4.179  14.304  0.00  0.00    +0.000 C 
ATOM      8  N   UNL     1       6.003   4.153  13.531  0.00  0.00    +0.000 N 
ATOM      9  C   UNL     1       5.873   3.371  12.421  0.00  0.00    +0.000 C 
ATOM     10  N   UNL     1       4.675   3.432  11.790  0.00  0.00    +0.000 N 
ATOM     11  O   UNL     1       6.766   2.653  11.970  0.00  0.00    +0.000 OA
ATOM     12  C   UNL     1       4.948   4.896  14.203  0.00  0.00    +0.000 C 
ATOM     13  H   UNL     1       3.849   3.726  12.276  0.00  0.00    +0.000 HD
ATOM     14  H   UNL     1       4.546   2.737  11.068  0.00  0.00    +0.000 HD
ENDBRANCH   3   5
BRANCH   1  22
ATOM     15  C   UNL     1       1.349   7.693  20.866  0.00  0.00    +0.000 C 
ATOM     16  C   UNL     1       1.940   6.406  20.361  0.00  0.00    +0.000 A 
ATOM     17  C   UNL     1       1.524   5.179  20.882  0.00  0.00    +0.000 A 
ATOM     18  C   UNL     1       2.088   3.974  20.429  0.00  0.00    +0.000 A 
ATOM     19  C   UNL     1       1.560   2.687  21.013  0.00  0.00    +0.000 C 
ATOM     20  C   UNL     1       3.114   4.008  19.450  0.00  0.00    +0.000 A 
ATOM     21 BR   UNL     1       3.779   2.328  18.812  0.00  0.00    +0.000 Br
ATOM     22  C   UNL     1       3.575   5.241  18.936  0.00  0.00    +0.000 A 
ATOM     23  C   UNL     1       2.945   6.424  19.380  0.00  0.00    +0.000 A 
ENDBRANCH   1  22
TORSDOF 2
ENDMDL
MODEL 5
REMARK VINA RESULT:      -7.0      3.690      5.967
REMARK  Name = 
REMARK  4 active torsions:
REMARK  status: ('A' for Active; 'I' for Inactive)
REMARK    1  A    between atoms: C_1  and  C_2
REMARK    2  A    between atoms: C_4  and  C_5
REMARK    3  A    between atoms: C_8  and  C_9
REMARK    4  A    between atoms: N_11  and  C_12
REMARK                            x       y       z     vdW  Elec       q    Type
REMARK                         _______ _______ _______ _____ _____    ______ ____
ROOT
ATOM      1  C   UNL     1       4.861   5.494  16.736  0.00  0.00    +0.000 C 
ATOM      2  O   UNL     1       5.209   6.663  16.606  0.00  0.00    +0.000 OA
ATOM      3  N   UNL     1       5.065   4.549  15.747  0.00  0.00    +0.000 N 
ATOM      4  H   UNL     1       4.520   3.697  15.819  0.00  0.00    +0.000 HD
ENDROOT
BRANCH   3   5
ATOM      5  C   UNL     1       5.585   4.877  14.420  0.00  0.00    +0.000 C 
ATOM      6  C   UNL     1       7.124   4.872  14.382  0.00  0.00    +0.000 C 
ATOM      7  C   UNL     1       7.445   4.534  12.935  0.00  0.00    +0.000 C 
ATOM      8  N   UNL     1       6.405   3.588  12.585  0.00  0.00    +0.000 N 
ATOM      9  C   UNL     1       6.647   2.533  11.755  0.00  0.00    +0.000 C 
ATOM     10  N   UNL     1       5.592   1.718  11.511  0.00  0.00    +0.000 N 
ATOM     11  O   UNL     1       7.733   2.305  11.221  0.00  0.00    +0.000 OA
ATOM     12  C   UNL     1       5.202   3.825  13.367  0.00  0.00    +0.000 C 
ATOM     13  H   UNL     1       4.819   1.668  12.147  0.00  0.00    +0.000 HD
ATOM     14  H   UNL     1       5.827   0.865  11.023  0.00  0.00    +0.000 HD
ENDBRANCH   3   5
BRANCH   1  22
ATOM     15  C   UNL     1       4.590   1.849  20.132  0.00  0.00    +0.000 C 
ATOM     16  C   UNL     1       4.114   3.197  19.667  0.00  0.00    +0.000 A 
ATOM     17  C   UNL     1       3.074   3.852  20.330  0.00  0.00    +0.000 A 
ATOM     18  C   UNL     1       2.610   5.103  19.887  0.00  0.00    +0.000 A 
ATOM     19  C   UNL     1       1.508   5.765  20.677  0.00  0.00    +0.000 C 
ATOM     20  C   UNL     1       3.189   5.694  18.734  0.00  0.00    +0.000 A 
ATOM     21 BR   UNL     1       2.572   7.438  18.234  0.00  0.00    +0.000 Br
ATOM     22  C   UNL     1       4.217   5.031  18.027  0.00  0.00    +0.000 A 
ATOM     23  C   UNL     1       4.689   3.802  18.536  0.00  0.00    +0.000 A 
ENDBRANCH   1  22
TORSDOF 2
ENDMDL
MODEL 6
REMARK VINA RESULT:      -6.9      3.604      7.324
REMARK  Name = 
REMARK  4 active torsions:
REMARK  status: ('A' for Active; 'I' for Inactive)
REMARK    1  A    between atoms: C_1  and  C_2
REMARK    2  A    between atoms: C_4  and  C_5
REMARK    3  A    between atoms: C_8  and  C_9
REMARK    4  A    between atoms: N_11  and  C_12
REMARK                            x       y       z     vdW  Elec       q    Type
REMARK                         _______ _______ _______ _____ _____    ______ ____
ROOT
ATOM      1  C   UNL     1       1.382   8.012  20.781  0.00  0.00    +0.000 C 
ATOM      2  O   UNL     1       1.560   8.287  21.964  0.00  0.00    +0.000 OA
ATOM      3  N   UNL     1       0.719   8.864  19.917  0.00  0.00    +0.000 N 
ATOM      4  H   UNL     1       0.383   8.455  19.052  0.00  0.00    +0.000 HD
ENDROOT
BRANCH   3   5
ATOM      5  C   UNL     1       0.059  10.094  20.353  0.00  0.00    +0.000 C 
ATOM      6  C   UNL     1       1.068  11.175  20.779  0.00  0.00    +0.000 C 
ATOM      7  C   UNL     1       0.330  12.477  20.518  0.00  0.00    +0.000 C 
ATOM      8  N   UNL     1      -0.420  12.189  19.312  0.00  0.00    +0.000 N 
ATOM      9  C   UNL     1      -0.624  13.136  18.352  0.00  0.00    +0.000 C 
ATOM     10  N   UNL     1      -1.336  12.738  17.269  0.00  0.00    +0.000 N 
ATOM     11  O   UNL     1      -0.224  14.298  18.427  0.00  0.00    +0.000 OA
ATOM     12  C   UNL     1      -0.725  10.770  19.217  0.00  0.00    +0.000 C 
ATOM     13  H   UNL     1      -1.395  11.770  17.017  0.00  0.00    +0.000 HD
ATOM     14  H   UNL     1      -1.345  13.401  16.508  0.00  0.00    +0.000 HD
ENDBRANCH   3   5
BRANCH   1  22
ATOM     15  C   UNL     1       2.003   3.118  21.523  0.00  0.00    +0.000 C 
ATOM     16  C   UNL     1       2.218   4.310  20.633  0.00  0.00    +0.000 A 
ATOM     17  C   UNL     1       2.978   4.201  19.466  0.00  0.00    +0.000 A 
ATOM     18  C   UNL     1       3.200   5.317  18.641  0.00  0.00    +0.000 A 
ATOM     19  C   UNL     1       4.001   5.111  17.379  0.00  0.00    +0.000 C 
ATOM     20  C   UNL     1       2.669   6.578  19.015  0.00  0.00    +0.000 A 
ATOM     21 BR   UNL     1       2.934   8.040  17.805  0.00  0.00    +0.000 Br
ATOM     22  C   UNL     1       1.928   6.719  20.211  0.00  0.00    +0.000 A 
ATOM     23  C   UNL     1       1.684   5.562  20.982  0.00  0.00    +0.000 A 
ENDBRANCH   1  22
TORSDOF 2
ENDMDL
MODEL 7
REMARK VINA RESULT:      -6.9      2.567      2.848
REMARK  Name = 
REMARK  4 active torsions:
REMARK  status: ('A' for Active; 'I' for Inactive)
REMARK    1  A    between atoms: C_1  and  C_2
REMARK    2  A    between atoms: C_4  and  C_5
REMARK    3  A    between atoms: C_8  and  C_9
REMARK    4  A    between atoms: N_11  and  C_12
REMARK                            x       y       z     vdW  Elec       q    Type
REMARK                         _______ _______ _______ _____ _____    ______ ____
ROOT
ATOM      1  C   UNL     1       1.919   6.094  20.342  0.00  0.00    +0.000 C 
ATOM      2  O   UNL     1       3.040   5.745  19.988  0.00  0.00    +0.000 OA
ATOM      3  N   UNL     1       0.945   5.184  20.713  0.00  0.00    +0.000 N 
ATOM      4  H   UNL     1      -0.008   5.528  20.728  0.00  0.00    +0.000 HD
ENDROOT
BRANCH   3   5
ATOM      5  C   UNL     1       1.113   3.737  20.592  0.00  0.00    +0.000 C 
ATOM      6  C   UNL     1       0.682   3.216  19.209  0.00  0.00    +0.000 C 
ATOM      7  C   UNL     1       1.523   1.965  19.019  0.00  0.00    +0.000 C 
ATOM      8  N   UNL     1       2.785   2.326  19.633  0.00  0.00    +0.000 N 
ATOM      9  C   UNL     1       3.976   1.899  19.126  0.00  0.00    +0.000 C 
ATOM     10  N   UNL     1       5.084   2.311  19.789  0.00  0.00    +0.000 N 
ATOM     11  O   UNL     1       4.089   1.167  18.142  0.00  0.00    +0.000 OA
ATOM     12  C   UNL     1       2.587   3.311  20.685  0.00  0.00    +0.000 C 
ATOM     13  H   UNL     1       5.067   3.133  20.362  0.00  0.00    +0.000 HD
ATOM     14  H   UNL     1       5.954   2.114  19.314  0.00  0.00    +0.000 HD
ENDBRANCH   3   5
BRANCH   1  22
ATOM     15  C   UNL     1      -0.122   9.704  23.116  0.00  0.00    +0.000 C 
ATOM     16  C   UNL     1       0.543   9.308  21.827  0.00  0.00    +0.000 A 
ATOM     17  C   UNL     1       0.676  10.225  20.782  0.00  0.00    +0.000 A 
ATOM     18  C   UNL     1       1.277   9.854  19.567  0.00  0.00    +0.000 A 
ATOM     19  C   UNL     1       1.417  10.911  18.500  0.00  0.00    +0.000 C 
ATOM     20  C   UNL     1       1.729   8.521  19.391  0.00  0.00    +0.000 A 
ATOM     21 BR   UNL     1       2.617   8.102  17.745  0.00  0.00    +0.000 Br
ATOM     22  C   UNL     1       1.571   7.566  20.421  0.00  0.00    +0.000 A 
ATOM     23  C   UNL     1       1.010   7.995  21.644  0.00  0.00    +0.000 A 
ENDBRANCH   1  22
TORSDOF 2
ENDMDL
MODEL 8
REMARK VINA RESULT:      -6.8      2.667      3.763
REMARK  Name = 
REMARK  4 active torsions:
REMARK  status: ('A' for Active; 'I' for Inactive)
REMARK    1  A    between atoms: C_1  and  C_2
REMARK    2  A    between atoms: C_4  and  C_5
REMARK    3  A    between atoms: C_8  and  C_9
REMARK    4  A    between atoms: N_11  and  C_12
REMARK                            x       y       z     vdW  Elec       q    Type
REMARK                         _______ _______ _______ _____ _____    ______ ____
ROOT
ATOM      1  C   UNL     1       1.897   8.449  18.313  0.00  0.00    +0.000 C 
ATOM      2  O   UNL     1       2.660   8.934  17.485  0.00  0.00    +0.000 OA
ATOM      3  N   UNL     1       2.010   7.139  18.743  0.00  0.00    +0.000 N 
ATOM      4  H   UNL     1       1.199   6.747  19.208  0.00  0.00    +0.000 HD
ENDROOT
BRANCH   3   5
ATOM      5  C   UNL     1       2.951   6.183  18.161  0.00  0.00    +0.000 C 
ATOM      6  C   UNL     1       4.103   5.844  19.123  0.00  0.00    +0.000 C 
ATOM      7  C   UNL     1       4.521   4.444  18.702  0.00  0.00    +0.000 C 
ATOM      8  N   UNL     1       3.261   3.823  18.349  0.00  0.00    +0.000 N 
ATOM      9  C   UNL     1       3.016   2.506  18.604  0.00  0.00    +0.000 C 
ATOM     10  N   UNL     1       1.796   2.047  18.230  0.00  0.00    +0.000 N 
ATOM     11  O   UNL     1       3.826   1.736  19.120  0.00  0.00    +0.000 OA
ATOM     12  C   UNL     1       2.302   4.816  17.891  0.00  0.00    +0.000 C 
ATOM     13  H   UNL     1       1.021   2.672  18.118  0.00  0.00    +0.000 HD
ATOM     14  H   UNL     1       1.578   1.118  18.562  0.00  0.00    +0.000 HD
ENDBRANCH   3   5
BRANCH   1  22
ATOM     15  C   UNL     1      -1.914  11.547  17.434  0.00  0.00    +0.000 C 
ATOM     16  C   UNL     1      -1.058  10.831  18.442  0.00  0.00    +0.000 A 
ATOM     17  C   UNL     1      -1.213  11.075  19.809  0.00  0.00    +0.000 A 
ATOM     18  C   UNL     1      -0.401  10.426  20.755  0.00  0.00    +0.000 A 
ATOM     19  C   UNL     1      -0.654  10.713  22.214  0.00  0.00    +0.000 C 
ATOM     20  C   UNL     1       0.608   9.532  20.312  0.00  0.00    +0.000 A 
ATOM     21 BR   UNL     1       1.621   8.614  21.654  0.00  0.00    +0.000 Br
ATOM     22  C   UNL     1       0.806   9.299  18.932  0.00  0.00    +0.000 A 
ATOM     23  C   UNL     1      -0.065   9.931  18.019  0.00  0.00    +0.000 A 
ENDBRANCH   1  22
TORSDOF 2
ENDMDL
MODEL 9
REMARK VINA RESULT:      -6.8      3.405      7.654
REMARK  Name = 
REMARK  4 active torsions:
REMARK  status: ('A' for Active; 'I' for Inactive)
REMARK    1  A    between atoms: C_1  and  C_2
REMARK    2  A    between atoms: C_4  and  C_5
REMARK    3  A    between atoms: C_8  and  C_9
REMARK    4  A    between atoms: N_11  and  C_12
REMARK                            x       y       z     vdW  Elec       q    Type
REMARK                         _______ _______ _______ _____ _____    ______ ____
ROOT
ATOM      1  C   UNL     1       2.257   7.135  19.300  0.00  0.00    +0.000 C 
ATOM      2  O   UNL     1       1.963   7.013  20.484  0.00  0.00    +0.000 OA
ATOM      3  N   UNL     1       2.068   8.318  18.610  0.00  0.00    +0.000 N 
ATOM      4  H   UNL     1       2.080   8.256  17.598  0.00  0.00    +0.000 HD
ENDROOT
BRANCH   3   5
ATOM      5  C   UNL     1       1.385   9.478  19.181  0.00  0.00    +0.000 C 
ATOM      6  C   UNL     1       1.739  10.782  18.443  0.00  0.00    +0.000 C 
ATOM      7  C   UNL     1       0.516  11.659  18.659  0.00  0.00    +0.000 C 
ATOM      8  N   UNL     1      -0.577  10.711  18.602  0.00  0.00    +0.000 N 
ATOM      9  C   UNL     1      -1.779  11.036  18.045  0.00  0.00    +0.000 C 
ATOM     10  N   UNL     1      -2.717  10.058  18.048  0.00  0.00    +0.000 N 
ATOM     11  O   UNL     1      -2.049  12.141  17.574  0.00  0.00    +0.000 OA
ATOM     12  C   UNL     1      -0.142   9.390  19.028  0.00  0.00    +0.000 C 
ATOM     13  H   UNL     1      -2.457   9.092  18.111  0.00  0.00    +0.000 HD
ATOM     14  H   UNL     1      -3.540  10.265  17.500  0.00  0.00    +0.000 HD
ENDBRANCH   3   5
BRANCH   1  22
ATOM     15  C   UNL     1       5.592   5.790  15.841  0.00  0.00    +0.000 C 
ATOM     16  C   UNL     1       4.537   5.370  16.827  0.00  0.00    +0.000 A 
ATOM     17  C   UNL     1       4.122   4.039  16.902  0.00  0.00    +0.000 A 
ATOM     18  C   UNL     1       3.121   3.645  17.808  0.00  0.00    +0.000 A 
ATOM     19  C   UNL     1       2.752   2.183  17.856  0.00  0.00    +0.000 C 
ATOM     20  C   UNL     1       2.507   4.619  18.636  0.00  0.00    +0.000 A 
ATOM     21 BR   UNL     1       1.213   4.004  19.908  0.00  0.00    +0.000 Br
ATOM     22  C   UNL     1       2.886   5.978  18.550  0.00  0.00    +0.000 A 
ATOM     23  C   UNL     1       3.931   6.322  17.665  0.00  0.00    +0.000 A 
ENDBRANCH   1  22
TORSDOF 2
ENDMDL
