MODEL 1
REMARK VINA RESULT:      -8.3      0.000      0.000
REMARK  Name = 
REMARK  9 active torsions:
REMARK  status: ('A' for Active; 'I' for Inactive)
REMARK    1  A    between atoms: C_1  and  C_2
REMARK    2  A    between atoms: C_2  and  N_3
REMARK    3  A    between atoms: C_5  and  C_6
REMARK    4  A    between atoms: C_11  and  C_12
REMARK    5  A    between atoms: C_12  and  C_13
REMARK    6  A    between atoms: C_13  and  C_14
REMARK    7  A    between atoms: N_16  and  C_17
REMARK    8  A    between atoms: C_20  and  C_21
REMARK    9  A    between atoms: C_21  and  N_22
REMARK                            x       y       z     vdW  Elec       q    Type
REMARK                         _______ _______ _______ _____ _____    ______ ____
ROOT
ATOM      1  C   UNL     1       2.174   8.572  18.100  0.00  0.00    +0.000 C 
ATOM      2  O   UNL     1       2.225   9.672  17.565  0.00  0.00    +0.000 OA
ATOM      3  N   UNL     1       1.676   8.285  19.360  0.00  0.00    +0.000 N 
ATOM      4  H   UNL     1       1.741   7.321  19.664  0.00  0.00    +0.000 HD
ENDROOT
BRANCH   3   5
ATOM      5  C   UNL     1       0.982   9.147  20.232  0.00  0.00    +0.000 A 
ATOM      6  C   UNL     1       0.111  10.154  19.819  0.00  0.00    +0.000 A 
ATOM      7  C   UNL     1      -0.669  10.847  20.757  0.00  0.00    +0.000 A 
ATOM      8  C   UNL     1      -0.580  10.550  22.122  0.00  0.00    +0.000 A 
ATOM      9  C   UNL     1       0.377   9.615  22.536  0.00  0.00    +0.000 A 
ATOM     10  C   UNL     1       1.145   8.918  21.601  0.00  0.00    +0.000 A 
BRANCH   8  11
ATOM     11  C   UNL     1      -1.463  11.233  23.143  0.00  0.00    +0.000 C 
BRANCH  11  12
ATOM     12  N   UNL     1      -2.124  12.487  22.772  0.00  0.00    +0.000 NA
ATOM     13  C   UNL     1      -1.381  13.736  22.971  0.00  0.00    +0.000 C 
ATOM     14  C   UNL     1      -1.642  14.442  24.315  0.00  0.00    +0.000 C 
ATOM     15  O   UNL     1      -3.043  14.610  24.566  0.00  0.00    +0.000 OA
ATOM     16  C   UNL     1      -3.715  13.346  24.539  0.00  0.00    +0.000 C 
ATOM     17  C   UNL     1      -3.521  12.639  23.191  0.00  0.00    +0.000 C 
ENDBRANCH  11  12
ENDBRANCH   8  11
ENDBRANCH   3   5
BRANCH   1  18
ATOM     18  C   UNL     1       2.622   7.306  17.385  0.00  0.00    +0.000 C 
BRANCH  18  19
ATOM     19  C   UNL     1       3.928   6.751  17.958  0.00  0.00    +0.000 C 
BRANCH  19  25
ATOM     20  C   UNL     1       4.559   4.447  16.934  0.00  0.00    +0.000 A 
ATOM     21  C   UNL     1       5.311   3.779  15.949  0.00  0.00    +0.000 A 
ATOM     22  C   UNL     1       6.079   4.502  15.054  0.00  0.00    +0.000 A 
ATOM     23  N   UNL     1       6.162   5.841  15.063  0.00  0.00    +0.000 NA
ATOM     24  C   UNL     1       5.440   6.476  16.010  0.00  0.00    +0.000 A 
ATOM     25  C   UNL     1       4.629   5.852  16.969  0.00  0.00    +0.000 A 
BRANCH  20  28
ATOM     26  N   UNL     1       3.078   2.759  19.770  0.00  0.00    +0.000 N 
ATOM     27  C   UNL     1       4.082   3.497  19.211  0.00  0.00    +0.000 A 
ATOM     28  C   UNL     1       3.784   3.625  17.865  0.00  0.00    +0.000 A 
ATOM     29  C   UNL     1       2.600   2.856  17.729  0.00  0.00    +0.000 A 
ATOM     30  N   UNL     1       2.172   2.339  18.880  0.00  0.00    +0.000 NA
BRANCH  26  32
ATOM     31  C   UNL     1       1.499   2.788  21.658  0.00  0.00    +0.000 C 
ATOM     32  C   UNL     1       2.903   2.461  21.178  0.00  0.00    +0.000 C 
ENDBRANCH  26  32
ENDBRANCH  20  28
ENDBRANCH  19  25
ENDBRANCH  18  19
ENDBRANCH   1  18
TORSDOF 8
ENDMDL
MODEL 2
REMARK VINA RESULT:      -8.3      0.844      1.207
REMARK  Name = 
REMARK  9 active torsions:
REMARK  status: ('A' for Active; 'I' for Inactive)
REMARK    1  A    between atoms: C_1  and  C_2
REMARK    2  A    between atoms: C_2  and  N_3
REMARK    3  A    between atoms: C_5  and  C_6
REMARK    4  A    between atoms: C_11  and  C_12
REMARK    5  A    between atoms: C_12  and  C_13
REMARK    6  A    between atoms: C_13  and  C_14
REMARK    7  A    between atoms: N_16  and  C_17
REMARK    8  A    between atoms: C_20  and  C_21
REMARK    9  A    between atoms: C_21  and  N_22
REMARK                            x       y       z     vdW  Elec       q    Type
REMARK                         _______ _______ _______ _____ _____    ______ ____
ROOT
ATOM      1  C   UNL     1       2.447   7.383  18.746  0.00  0.00    +0.000 C 
ATOM      2  O   UNL     1       2.339   6.443  19.523  0.00  0.00    +0.000 OA
ATOM      3  N   UNL     1       1.806   8.607  18.832  0.00  0.00    +0.000 N 
ATOM      4  H   UNL     1       1.983   9.265  18.083  0.00  0.00    +0.000 HD
ENDROOT
BRANCH   3   5
ATOM      5  C   UNL     1       1.024   9.100  19.895  0.00  0.00    +0.000 A 
ATOM      6  C   UNL     1       1.184   8.732  21.231  0.00  0.00    +0.000 A 
ATOM      7  C   UNL     1       0.480   9.403  22.242  0.00  0.00    +0.000 A 
ATOM      8  C   UNL     1      -0.403  10.444  21.930  0.00  0.00    +0.000 A 
ATOM      9  C   UNL     1      -0.639  10.732  20.580  0.00  0.00    +0.000 A 
ATOM     10  C   UNL     1       0.070  10.070  19.575  0.00  0.00    +0.000 A 
BRANCH   8  11
ATOM     11  C   UNL     1      -1.117  11.230  23.008  0.00  0.00    +0.000 C 
BRANCH  11  12
ATOM     12  N   UNL     1      -1.849  12.440  22.624  0.00  0.00    +0.000 NA
ATOM     13  C   UNL     1      -1.246  13.736  22.957  0.00  0.00    +0.000 C 
ATOM     14  C   UNL     1      -1.706  14.344  24.295  0.00  0.00    +0.000 C 
ATOM     15  O   UNL     1      -3.134  14.377  24.404  0.00  0.00    +0.000 OA
ATOM     16  C   UNL     1      -3.683  13.063  24.249  0.00  0.00    +0.000 C 
ATOM     17  C   UNL     1      -3.290  12.450  22.900  0.00  0.00    +0.000 C 
ENDBRANCH  11  12
ENDBRANCH   8  11
ENDBRANCH   3   5
BRANCH   1  18
ATOM     18  C   UNL     1       3.396   7.342  17.557  0.00  0.00    +0.000 C 
BRANCH  18  19
ATOM     19  C   UNL     1       4.767   6.775  17.932  0.00  0.00    +0.000 C 
BRANCH  19  25
ATOM     20  C   UNL     1       4.848   4.420  16.837  0.00  0.00    +0.000 A 
ATOM     21  C   UNL     1       5.430   3.624  15.832  0.00  0.00    +0.000 A 
ATOM     22  C   UNL     1       6.355   4.173  14.962  0.00  0.00    +0.000 A 
ATOM     23  N   UNL     1       6.751   5.454  15.013  0.00  0.00    +0.000 NA
ATOM     24  C   UNL     1       6.190   6.212  15.979  0.00  0.00    +0.000 A 
ATOM     25  C   UNL     1       5.246   5.768  16.916  0.00  0.00    +0.000 A 
BRANCH  20  28
ATOM     26  N   UNL     1       3.016   2.986  19.606  0.00  0.00    +0.000 N 
ATOM     27  C   UNL     1       4.175   3.453  19.056  0.00  0.00    +0.000 A 
ATOM     28  C   UNL     1       3.893   3.775  17.739  0.00  0.00    +0.000 A 
ATOM     29  C   UNL     1       2.535   3.388  17.604  0.00  0.00    +0.000 A 
ATOM     30  N   UNL     1       2.006   2.918  18.733  0.00  0.00    +0.000 NA
BRANCH  26  32
ATOM     31  C   UNL     1       1.354   2.842  21.416  0.00  0.00    +0.000 C 
ATOM     32  C   UNL     1       2.798   2.631  20.995  0.00  0.00    +0.000 C 
ENDBRANCH  26  32
ENDBRANCH  20  28
ENDBRANCH  19  25
ENDBRANCH  18  19
ENDBRANCH   1  18
TORSDOF 8
ENDMDL
MODEL 3
REMARK VINA RESULT:      -8.2      1.282      3.565
REMARK  Name = 
REMARK  9 active torsions:
REMARK  status: ('A' for Active; 'I' for Inactive)
REMARK    1  A    between atoms: C_1  and  C_2
REMARK    2  A    between atoms: C_2  and  N_3
REMARK    3  A    between atoms: C_5  and  C_6
REMARK    4  A    between atoms: C_11  and  C_12
REMARK    5  A    between atoms: C_12  and  C_13
REMARK    6  A    between atoms: C_13  and  C_14
REMARK    7  A    between atoms: N_16  and  C_17
REMARK    8  A    between atoms: C_20  and  C_21
REMARK    9  A    between atoms: C_21  and  N_22
REMARK                            x       y       z     vdW  Elec       q    Type
REMARK                         _______ _______ _______ _____ _____    ______ ____
ROOT
ATOM      1  C   UNL     1       1.923   8.383  18.584  0.00  0.00    +0.000 C 
ATOM      2  O   UNL     1       1.470   9.209  17.802  0.00  0.00    +0.000 OA
ATOM      3  N   UNL     1       1.834   8.413  19.965  0.00  0.00    +0.000 N 
ATOM      4  H   UNL     1       2.296   7.664  20.466  0.00  0.00    +0.000 HD
ENDROOT
BRANCH   3   5
ATOM      5  C   UNL     1       1.080   9.296  20.763  0.00  0.00    +0.000 A 
ATOM      6  C   UNL     1       0.716  10.589  20.386  0.00  0.00    +0.000 A 
ATOM      7  C   UNL     1      -0.180  11.331  21.167  0.00  0.00    +0.000 A 
ATOM      8  C   UNL     1      -0.719  10.797  22.344  0.00  0.00    +0.000 A 
ATOM      9  C   UNL     1      -0.263   9.543  22.771  0.00  0.00    +0.000 A 
ATOM     10  C   UNL     1       0.622   8.800  21.987  0.00  0.00    +0.000 A 
BRANCH   8  11
ATOM     11  C   UNL     1      -1.742  11.550  23.164  0.00  0.00    +0.000 C 
BRANCH  11  12
ATOM     12  N   UNL     1      -2.131  12.896  22.735  0.00  0.00    +0.000 NA
ATOM     13  C   UNL     1      -1.645  14.032  23.526  0.00  0.00    +0.000 C 
ATOM     14  C   UNL     1      -2.607  14.520  24.626  0.00  0.00    +0.000 C 
ATOM     15  O   UNL     1      -3.926  14.751  24.116  0.00  0.00    +0.000 OA
ATOM     16  C   UNL     1      -4.446  13.566  23.503  0.00  0.00    +0.000 C 
ATOM     17  C   UNL     1      -3.538  13.084  22.364  0.00  0.00    +0.000 C 
ENDBRANCH  11  12
ENDBRANCH   8  11
ENDBRANCH   3   5
BRANCH   1  18
ATOM     18  C   UNL     1       2.628   7.122  18.107  0.00  0.00    +0.000 C 
BRANCH  18  19
ATOM     19  C   UNL     1       3.000   6.195  19.265  0.00  0.00    +0.000 C 
BRANCH  19  25
ATOM     20  C   UNL     1       3.382   3.843  18.227  0.00  0.00    +0.000 A 
ATOM     21  C   UNL     1       2.847   2.555  18.037  0.00  0.00    +0.000 A 
ATOM     22  C   UNL     1       1.617   2.228  18.581  0.00  0.00    +0.000 A 
ATOM     23  N   UNL     1       0.874   3.084  19.298  0.00  0.00    +0.000 NA
ATOM     24  C   UNL     1       1.391   4.318  19.476  0.00  0.00    +0.000 A 
ATOM     25  C   UNL     1       2.622   4.763  18.973  0.00  0.00    +0.000 A 
BRANCH  20  28
ATOM     26  N   UNL     1       6.176   4.549  16.041  0.00  0.00    +0.000 N 
ATOM     27  C   UNL     1       4.899   4.109  16.242  0.00  0.00    +0.000 A 
ATOM     28  C   UNL     1       4.676   4.134  17.608  0.00  0.00    +0.000 A 
ATOM     29  C   UNL     1       5.930   4.548  18.125  0.00  0.00    +0.000 A 
ATOM     30  N   UNL     1       6.833   4.803  17.178  0.00  0.00    +0.000 NA
BRANCH  26  32
ATOM     31  C   UNL     1       6.227   3.941  13.656  0.00  0.00    +0.000 C 
ATOM     32  C   UNL     1       6.816   4.797  14.764  0.00  0.00    +0.000 C 
ENDBRANCH  26  32
ENDBRANCH  20  28
ENDBRANCH  19  25
ENDBRANCH  18  19
ENDBRANCH   1  18
TORSDOF 8
ENDMDL
MODEL 4
REMARK VINA RESULT:      -8.1      7.093      9.250
REMARK  Name = 
REMARK  9 active torsions:
REMARK  status: ('A' for Active; 'I' for Inactive)
REMARK    1  A    between atoms: C_1  and  C_2
REMARK    2  A    between atoms: C_2  and  N_3
REMARK    3  A    between atoms: C_5  and  C_6
REMARK    4  A    between atoms: C_11  and  C_12
REMARK    5  A    between atoms: C_12  and  C_13
REMARK    6  A    between atoms: C_13  and  C_14
REMARK    7  A    between atoms: N_16  and  C_17
REMARK    8  A    between atoms: C_20  and  C_21
REMARK    9  A    between atoms: C_21  and  N_22
REMARK                            x       y       z     vdW  Elec       q    Type
REMARK                         _______ _______ _______ _____ _____    ______ ____
ROOT
ATOM      1  C   UNL     1       8.060   7.506  18.292  0.00  0.00    +0.000 C 
ATOM      2  O   UNL     1       7.653   7.701  17.154  0.00  0.00    +0.000 OA
ATOM      3  N   UNL     1       8.728   8.412  19.099  0.00  0.00    +0.000 N 
ATOM      4  H   UNL     1       9.026   8.076  20.007  0.00  0.00    +0.000 HD
ENDROOT
BRANCH   3   5
ATOM      5  C   UNL     1       8.945   9.784  18.863  0.00  0.00    +0.000 A 
ATOM      6  C   UNL     1       8.409  10.496  17.790  0.00  0.00    +0.000 A 
ATOM      7  C   UNL     1       8.535  11.891  17.730  0.00  0.00    +0.000 A 
ATOM      8  C   UNL     1       9.206  12.594  18.737  0.00  0.00    +0.000 A 
ATOM      9  C   UNL     1       9.835  11.861  19.752  0.00  0.00    +0.000 A 
ATOM     10  C   UNL     1       9.701  10.472  19.816  0.00  0.00    +0.000 A 
BRANCH   8  11
ATOM     11  C   UNL     1       9.291  14.105  18.732  0.00  0.00    +0.000 C 
BRANCH  11  12
ATOM     12  N   UNL     1      10.615  14.733  18.728  0.00  0.00    +0.000 NA
ATOM     13  C   UNL     1      10.789  15.964  19.507  0.00  0.00    +0.000 C 
ATOM     14  C   UNL     1      10.590  17.270  18.714  0.00  0.00    +0.000 C 
ATOM     15  O   UNL     1      11.366  17.286  17.510  0.00  0.00    +0.000 OA
ATOM     16  C   UNL     1      11.045  16.160  16.686  0.00  0.00    +0.000 C 
ATOM     17  C   UNL     1      11.286  14.839  17.428  0.00  0.00    +0.000 C 
ENDBRANCH  11  12
ENDBRANCH   8  11
ENDBRANCH   3   5
BRANCH   1  18
ATOM     18  C   UNL     1       7.818   6.194  19.022  0.00  0.00    +0.000 C 
BRANCH  18  19
ATOM     19  C   UNL     1       7.641   5.020  18.057  0.00  0.00    +0.000 C 
BRANCH  19  25
ATOM     20  C   UNL     1       5.513   4.337  16.731  0.00  0.00    +0.000 A 
ATOM     21  C   UNL     1       4.147   4.007  16.814  0.00  0.00    +0.000 A 
ATOM     22  C   UNL     1       3.518   3.965  18.045  0.00  0.00    +0.000 A 
ATOM     23  N   UNL     1       4.140   4.229  19.204  0.00  0.00    +0.000 NA
ATOM     24  C   UNL     1       5.450   4.545  19.118  0.00  0.00    +0.000 A 
ATOM     25  C   UNL     1       6.192   4.620  17.931  0.00  0.00    +0.000 A 
BRANCH  20  28
ATOM     26  N   UNL     1       6.387   4.038  13.234  0.00  0.00    +0.000 N 
ATOM     27  C   UNL     1       5.665   3.638  14.322  0.00  0.00    +0.000 A 
ATOM     28  C   UNL     1       6.116   4.385  15.398  0.00  0.00    +0.000 A 
ATOM     29  C   UNL     1       7.164   5.154  14.831  0.00  0.00    +0.000 A 
ATOM     30  N   UNL     1       7.323   4.948  13.524  0.00  0.00    +0.000 NA
BRANCH  26  32
ATOM     31  C   UNL     1       5.953   2.117  11.756  0.00  0.00    +0.000 C 
ATOM     32  C   UNL     1       6.190   3.614  11.861  0.00  0.00    +0.000 C 
ENDBRANCH  26  32
ENDBRANCH  20  28
ENDBRANCH  19  25
ENDBRANCH  18  19
ENDBRANCH   1  18
TORSDOF 8
ENDMDL
MODEL 5
REMARK VINA RESULT:      -8.0      6.172      8.050
REMARK  Name = 
REMARK  9 active torsions:
REMARK  status: ('A' for Active; 'I' for Inactive)
REMARK    1  A    between atoms: C_1  and  C_2
REMARK    2  A    between atoms: C_2  and  N_3
REMARK    3  A    between atoms: C_5  and  C_6
REMARK    4  A    between atoms: C_11  and  C_12
REMARK    5  A    between atoms: C_12  and  C_13
REMARK    6  A    between atoms: C_13  and  C_14
REMARK    7  A    between atoms: N_16  and  C_17
REMARK    8  A    between atoms: C_20  and  C_21
REMARK    9  A    between atoms: C_21  and  N_22
REMARK                            x       y       z     vdW  Elec       q    Type
REMARK                         _______ _______ _______ _____ _____    ______ ____
ROOT
ATOM      1  C   UNL     1       8.094   8.439  18.128  0.00  0.00    +0.000 C 
ATOM      2  O   UNL     1       7.457   9.100  17.318  0.00  0.00    +0.000 OA
ATOM      3  N   UNL     1       9.034   8.914  19.028  0.00  0.00    +0.000 N 
ATOM      4  H   UNL     1       9.495   8.223  19.607  0.00  0.00    +0.000 HD
ENDROOT
BRANCH   3   5
ATOM      5  C   UNL     1       9.347  10.256  19.323  0.00  0.00    +0.000 A 
ATOM      6  C   UNL     1       9.283  10.821  20.596  0.00  0.00    +0.000 A 
ATOM      7  C   UNL     1       9.780  12.112  20.826  0.00  0.00    +0.000 A 
ATOM      8  C   UNL     1      10.339  12.861  19.783  0.00  0.00    +0.000 A 
ATOM      9  C   UNL     1      10.299  12.328  18.489  0.00  0.00    +0.000 A 
ATOM     10  C   UNL     1       9.813  11.038  18.262  0.00  0.00    +0.000 A 
BRANCH   8  11
ATOM     11  C   UNL     1      10.947  14.226  20.022  0.00  0.00    +0.000 C 
BRANCH  11  12
ATOM     12  N   UNL     1      10.085  15.406  19.912  0.00  0.00    +0.000 NA
ATOM     13  C   UNL     1       8.634  15.204  20.010  0.00  0.00    +0.000 C 
ATOM     14  C   UNL     1       7.910  15.023  18.663  0.00  0.00    +0.000 C 
ATOM     15  O   UNL     1       8.242  16.063  17.735  0.00  0.00    +0.000 OA
ATOM     16  C   UNL     1       9.657  16.120  17.525  0.00  0.00    +0.000 C 
ATOM     17  C   UNL     1      10.407  16.355  18.842  0.00  0.00    +0.000 C 
ENDBRANCH  11  12
ENDBRANCH   8  11
ENDBRANCH   3   5
BRANCH   1  18
ATOM     18  C   UNL     1       7.880   6.943  18.296  0.00  0.00    +0.000 C 
BRANCH  18  19
ATOM     19  C   UNL     1       6.412   6.547  18.121  0.00  0.00    +0.000 C 
BRANCH  19  25
ATOM     20  C   UNL     1       5.123   4.756  16.748  0.00  0.00    +0.000 A 
ATOM     21  C   UNL     1       5.147   3.919  15.616  0.00  0.00    +0.000 A 
ATOM     22  C   UNL     1       6.228   3.950  14.754  0.00  0.00    +0.000 A 
ATOM     23  N   UNL     1       7.293   4.747  14.930  0.00  0.00    +0.000 NA
ATOM     24  C   UNL     1       7.266   5.545  16.017  0.00  0.00    +0.000 A 
ATOM     25  C   UNL     1       6.229   5.601  16.960  0.00  0.00    +0.000 A 
BRANCH  20  28
ATOM     26  N   UNL     1       2.518   3.811  19.072  0.00  0.00    +0.000 N 
ATOM     27  C   UNL     1       3.545   3.484  18.233  0.00  0.00    +0.000 A 
ATOM     28  C   UNL     1       3.961   4.661  17.634  0.00  0.00    +0.000 A 
ATOM     29  C   UNL     1       3.052   5.618  18.151  0.00  0.00    +0.000 A 
ATOM     30  N   UNL     1       2.185   5.105  19.023  0.00  0.00    +0.000 NA
BRANCH  26  32
ATOM     31  C   UNL     1       2.384   3.044  21.408  0.00  0.00    +0.000 C 
ATOM     32  C   UNL     1       1.838   2.922  19.995  0.00  0.00    +0.000 C 
ENDBRANCH  26  32
ENDBRANCH  20  28
ENDBRANCH  19  25
ENDBRANCH  18  19
ENDBRANCH   1  18
TORSDOF 8
ENDMDL
MODEL 6
REMARK VINA RESULT:      -8.0      1.000      1.444
REMARK  Name = 
REMARK  9 active torsions:
REMARK  status: ('A' for Active; 'I' for Inactive)
REMARK    1  A    between atoms: C_1  and  C_2
REMARK    2  A    between atoms: C_2  and  N_3
REMARK    3  A    between atoms: C_5  and  C_6
REMARK    4  A    between atoms: C_11  and  C_12
REMARK    5  A    between atoms: C_12  and  C_13
REMARK    6  A    between atoms: C_13  and  C_14
REMARK    7  A    between atoms: N_16  and  C_17
REMARK    8  A    between atoms: C_20  and  C_21
REMARK    9  A    between atoms: C_21  and  N_22
REMARK                            x       y       z     vdW  Elec       q    Type
REMARK                         _______ _______ _______ _____ _____    ______ ____
ROOT
ATOM      1  C   UNL     1       2.079   9.240  18.263  0.00  0.00    +0.000 C 
ATOM      2  O   UNL     1       2.165  10.415  17.930  0.00  0.00    +0.000 OA
ATOM      3  N   UNL     1       1.442   8.741  19.386  0.00  0.00    +0.000 N 
ATOM      4  H   UNL     1       1.495   7.739  19.529  0.00  0.00    +0.000 HD
ENDROOT
BRANCH   3   5
ATOM      5  C   UNL     1       0.626   9.438  20.298  0.00  0.00    +0.000 A 
ATOM      6  C   UNL     1       0.632   9.237  21.678  0.00  0.00    +0.000 A 
ATOM      7  C   UNL     1      -0.084  10.096  22.524  0.00  0.00    +0.000 A 
ATOM      8  C   UNL     1      -0.826  11.162  22.002  0.00  0.00    +0.000 A 
ATOM      9  C   UNL     1      -0.915  11.289  20.610  0.00  0.00    +0.000 A 
ATOM     10  C   UNL     1      -0.193  10.440  19.768  0.00  0.00    +0.000 A 
BRANCH   8  11
ATOM     11  C   UNL     1      -1.547  12.144  22.899  0.00  0.00    +0.000 C 
BRANCH  11  12
ATOM     12  N   UNL     1      -3.011  12.191  22.853  0.00  0.00    +0.000 NA
ATOM     13  C   UNL     1      -3.636  12.950  21.763  0.00  0.00    +0.000 C 
ATOM     14  C   UNL     1      -3.981  14.412  22.102  0.00  0.00    +0.000 C 
ATOM     15  O   UNL     1      -4.729  14.515  23.320  0.00  0.00    +0.000 OA
ATOM     16  C   UNL     1      -4.011  13.919  24.405  0.00  0.00    +0.000 C 
ATOM     17  C   UNL     1      -3.699  12.443  24.124  0.00  0.00    +0.000 C 
ENDBRANCH  11  12
ENDBRANCH   8  11
ENDBRANCH   3   5
BRANCH   1  18
ATOM     18  C   UNL     1       2.643   8.116  17.406  0.00  0.00    +0.000 C 
BRANCH  18  19
ATOM     19  C   UNL     1       3.278   7.010  18.250  0.00  0.00    +0.000 C 
BRANCH  19  25
ATOM     20  C   UNL     1       4.289   4.823  17.275  0.00  0.00    +0.000 A 
ATOM     21  C   UNL     1       5.337   4.261  16.522  0.00  0.00    +0.000 A 
ATOM     22  C   UNL     1       6.319   5.075  15.986  0.00  0.00    +0.000 A 
ATOM     23  N   UNL     1       6.343   6.407  16.142  0.00  0.00    +0.000 NA
ATOM     24  C   UNL     1       5.336   6.940  16.865  0.00  0.00    +0.000 A 
ATOM     25  C   UNL     1       4.289   6.218  17.457  0.00  0.00    +0.000 A 
BRANCH  20  28
ATOM     26  N   UNL     1       2.052   2.860  19.331  0.00  0.00    +0.000 N 
ATOM     27  C   UNL     1       3.148   3.661  19.189  0.00  0.00    +0.000 A 
ATOM     28  C   UNL     1       3.293   3.907  17.834  0.00  0.00    +0.000 A 
ATOM     29  C   UNL     1       2.251   3.134  17.261  0.00  0.00    +0.000 A 
ATOM     30  N   UNL     1       1.500   2.508  18.165  0.00  0.00    +0.000 NA
BRANCH  26  32
ATOM     31  C   UNL     1       2.100   3.089  21.782  0.00  0.00    +0.000 C 
ATOM     32  C   UNL     1       1.447   2.432  20.577  0.00  0.00    +0.000 C 
ENDBRANCH  26  32
ENDBRANCH  20  28
ENDBRANCH  19  25
ENDBRANCH  18  19
ENDBRANCH   1  18
TORSDOF 8
ENDMDL
MODEL 7
REMARK VINA RESULT:      -7.9      0.913      1.463
REMARK  Name = 
REMARK  9 active torsions:
REMARK  status: ('A' for Active; 'I' for Inactive)
REMARK    1  A    between atoms: C_1  and  C_2
REMARK    2  A    between atoms: C_2  and  N_3
REMARK    3  A    between atoms: C_5  and  C_6
REMARK    4  A    between atoms: C_11  and  C_12
REMARK    5  A    between atoms: C_12  and  C_13
REMARK    6  A    between atoms: C_13  and  C_14
REMARK    7  A    between atoms: N_16  and  C_17
REMARK    8  A    between atoms: C_20  and  C_21
REMARK    9  A    between atoms: C_21  and  N_22
REMARK                            x       y       z     vdW  Elec       q    Type
REMARK                         _______ _______ _______ _____ _____    ______ ____
ROOT
ATOM      1  C   UNL     1       2.032   8.771  18.044  0.00  0.00    +0.000 C 
ATOM      2  O   UNL     1       2.343   9.713  17.326  0.00  0.00    +0.000 OA
ATOM      3  N   UNL     1       1.221   8.816  19.166  0.00  0.00    +0.000 N 
ATOM      4  H   UNL     1       1.092   7.946  19.667  0.00  0.00    +0.000 HD
ENDROOT
BRANCH   3   5
ATOM      5  C   UNL     1       0.457   9.902  19.636  0.00  0.00    +0.000 A 
ATOM      6  C   UNL     1      -0.594  10.492  18.933  0.00  0.00    +0.000 A 
ATOM      7  C   UNL     1      -1.411  11.451  19.550  0.00  0.00    +0.000 A 
ATOM      8  C   UNL     1      -1.183  11.841  20.875  0.00  0.00    +0.000 A 
ATOM      9  C   UNL     1      -0.061  11.324  21.535  0.00  0.00    +0.000 A 
ATOM     10  C   UNL     1       0.747  10.362  20.924  0.00  0.00    +0.000 A 
BRANCH   8  11
ATOM     11  C   UNL     1      -2.094  12.819  21.584  0.00  0.00    +0.000 C 
BRANCH  11  12
ATOM     12  N   UNL     1      -2.095  12.840  23.049  0.00  0.00    +0.000 NA
ATOM     13  C   UNL     1      -3.327  12.435  23.737  0.00  0.00    +0.000 C 
ATOM     14  C   UNL     1      -4.279  13.590  24.100  0.00  0.00    +0.000 C 
ATOM     15  O   UNL     1      -3.601  14.642  24.798  0.00  0.00    +0.000 OA
ATOM     16  C   UNL     1      -2.506  15.138  24.021  0.00  0.00    +0.000 C 
ATOM     17  C   UNL     1      -1.507  14.022  23.687  0.00  0.00    +0.000 C 
ENDBRANCH  11  12
ENDBRANCH   8  11
ENDBRANCH   3   5
BRANCH   1  18
ATOM     18  C   UNL     1       2.472   7.347  17.742  0.00  0.00    +0.000 C 
BRANCH  18  19
ATOM     19  C   UNL     1       3.971   7.144  17.974  0.00  0.00    +0.000 C 
BRANCH  19  25
ATOM     20  C   UNL     1       4.597   4.759  17.154  0.00  0.00    +0.000 A 
ATOM     21  C   UNL     1       5.212   4.002  16.139  0.00  0.00    +0.000 A 
ATOM     22  C   UNL     1       5.743   4.634  15.029  0.00  0.00    +0.000 A 
ATOM     23  N   UNL     1       5.715   5.963  14.849  0.00  0.00    +0.000 NA
ATOM     24  C   UNL     1       5.126   6.683  15.826  0.00  0.00    +0.000 A 
ATOM     25  C   UNL     1       4.555   6.156  16.993  0.00  0.00    +0.000 A 
BRANCH  20  28
ATOM     26  N   UNL     1       2.629   3.025  19.645  0.00  0.00    +0.000 N 
ATOM     27  C   UNL     1       2.723   3.839  18.553  0.00  0.00    +0.000 A 
ATOM     28  C   UNL     1       4.073   4.034  18.313  0.00  0.00    +0.000 A 
ATOM     29  C   UNL     1       4.687   3.332  19.381  0.00  0.00    +0.000 A 
ATOM     30  N   UNL     1       3.815   2.719  20.180  0.00  0.00    +0.000 NA
BRANCH  26  32
ATOM     31  C   UNL     1       1.353   2.616  21.711  0.00  0.00    +0.000 C 
ATOM     32  C   UNL     1       1.415   2.458  20.201  0.00  0.00    +0.000 C 
ENDBRANCH  26  32
ENDBRANCH  20  28
ENDBRANCH  19  25
ENDBRANCH  18  19
ENDBRANCH   1  18
TORSDOF 8
ENDMDL
MODEL 8
REMARK VINA RESULT:      -7.9      3.110      9.664
REMARK  Name = 
REMARK  9 active torsions:
REMARK  status: ('A' for Active; 'I' for Inactive)
REMARK    1  A    between atoms: C_1  and  C_2
REMARK    2  A    between atoms: C_2  and  N_3
REMARK    3  A    between atoms: C_5  and  C_6
REMARK    4  A    between atoms: C_11  and  C_12
REMARK    5  A    between atoms: C_12  and  C_13
REMARK    6  A    between atoms: C_13  and  C_14
REMARK    7  A    between atoms: N_16  and  C_17
REMARK    8  A    between atoms: C_20  and  C_21
REMARK    9  A    between atoms: C_21  and  N_22
REMARK                            x       y       z     vdW  Elec       q    Type
REMARK                         _______ _______ _______ _____ _____    ______ ____
ROOT
ATOM      1  C   UNL     1       0.199   8.637  21.617  0.00  0.00    +0.000 C 
ATOM      2  O   UNL     1      -0.755   7.906  21.388  0.00  0.00    +0.000 OA
ATOM      3  N   UNL     1       1.476   8.521  21.095  0.00  0.00    +0.000 N 
ATOM      4  H   UNL     1       2.161   9.195  21.416  0.00  0.00    +0.000 HD
ENDROOT
BRANCH   3   5
ATOM      5  C   UNL     1       1.919   7.650  20.079  0.00  0.00    +0.000 A 
ATOM      6  C   UNL     1       2.237   8.048  18.781  0.00  0.00    +0.000 A 
ATOM      7  C   UNL     1       2.835   7.145  17.889  0.00  0.00    +0.000 A 
ATOM      8  C   UNL     1       3.113   5.830  18.279  0.00  0.00    +0.000 A 
ATOM      9  C   UNL     1       2.690   5.410  19.546  0.00  0.00    +0.000 A 
ATOM     10  C   UNL     1       2.104   6.312  20.438  0.00  0.00    +0.000 A 
BRANCH   8  11
ATOM     11  C   UNL     1       3.823   4.861  17.358  0.00  0.00    +0.000 C 
BRANCH  11  12
ATOM     12  N   UNL     1       5.261   4.645  17.541  0.00  0.00    +0.000 NA
ATOM     13  C   UNL     1       6.033   5.708  18.195  0.00  0.00    +0.000 C 
ATOM     14  C   UNL     1       6.695   6.716  17.236  0.00  0.00    +0.000 C 
ATOM     15  O   UNL     1       7.452   6.060  16.211  0.00  0.00    +0.000 OA
ATOM     16  C   UNL     1       6.624   5.154  15.473  0.00  0.00    +0.000 C 
ATOM     17  C   UNL     1       5.992   4.101  16.393  0.00  0.00    +0.000 C 
ENDBRANCH  11  12
ENDBRANCH   8  11
ENDBRANCH   3   5
BRANCH   1  18
ATOM     18  C   UNL     1       0.079   9.866  22.506  0.00  0.00    +0.000 C 
BRANCH  18  19
ATOM     19  C   UNL     1      -0.791  10.954  21.873  0.00  0.00    +0.000 C 
BRANCH  19  25
ATOM     20  C   UNL     1      -0.465  11.840  19.452  0.00  0.00    +0.000 A 
ATOM     21  C   UNL     1       0.381  12.547  18.577  0.00  0.00    +0.000 A 
ATOM     22  C   UNL     1       1.572  13.077  19.041  0.00  0.00    +0.000 A 
ATOM     23  N   UNL     1       1.991  12.957  20.309  0.00  0.00    +0.000 NA
ATOM     24  C   UNL     1       1.177  12.277  21.144  0.00  0.00    +0.000 A 
ATOM     25  C   UNL     1      -0.049  11.696  20.789  0.00  0.00    +0.000 A 
BRANCH  20  28
ATOM     26  N   UNL     1      -3.800  11.172  18.221  0.00  0.00    +0.000 N 
ATOM     27  C   UNL     1      -2.923  11.933  18.940  0.00  0.00    +0.000 A 
ATOM     28  C   UNL     1      -1.700  11.285  18.896  0.00  0.00    +0.000 A 
ATOM     29  C   UNL     1      -1.995  10.103  18.170  0.00  0.00    +0.000 A 
ATOM     30  N   UNL     1      -3.261  10.039  17.758  0.00  0.00    +0.000 NA
BRANCH  26  32
ATOM     31  C   UNL     1      -6.163  10.616  18.628  0.00  0.00    +0.000 C 
ATOM     32  C   UNL     1      -5.173  11.506  17.897  0.00  0.00    +0.000 C 
ENDBRANCH  26  32
ENDBRANCH  20  28
ENDBRANCH  19  25
ENDBRANCH  18  19
ENDBRANCH   1  18
TORSDOF 8
ENDMDL
MODEL 9
REMARK VINA RESULT:      -7.9      1.704      1.980
REMARK  Name = 
REMARK  9 active torsions:
REMARK  status: ('A' for Active; 'I' for Inactive)
REMARK    1  A    between atoms: C_1  and  C_2
REMARK    2  A    between atoms: C_2  and  N_3
REMARK    3  A    between atoms: C_5  and  C_6
REMARK    4  A    between atoms: C_11  and  C_12
REMARK    5  A    between atoms: C_12  and  C_13
REMARK    6  A    between atoms: C_13  and  C_14
REMARK    7  A    between atoms: N_16  and  C_17
REMARK    8  A    between atoms: C_20  and  C_21
REMARK    9  A    between atoms: C_21  and  N_22
REMARK                            x       y       z     vdW  Elec       q    Type
REMARK                         _______ _______ _______ _____ _____    ______ ____
ROOT
ATOM      1  C   UNL     1       1.968   8.598  18.357  0.00  0.00    +0.000 C 
ATOM      2  O   UNL     1       1.787   8.193  19.498  0.00  0.00    +0.000 OA
ATOM      3  N   UNL     1       1.316   9.651  17.738  0.00  0.00    +0.000 N 
ATOM      4  H   UNL     1       1.564   9.833  16.773  0.00  0.00    +0.000 HD
ENDROOT
BRANCH   3   5
ATOM      5  C   UNL     1       0.430  10.580  18.318  0.00  0.00    +0.000 A 
ATOM      6  C   UNL     1      -0.952  10.408  18.402  0.00  0.00    +0.000 A 
ATOM      7  C   UNL     1      -1.734  11.300  19.150  0.00  0.00    +0.000 A 
ATOM      8  C   UNL     1      -1.148  12.383  19.817  0.00  0.00    +0.000 A 
ATOM      9  C   UNL     1       0.223  12.609  19.636  0.00  0.00    +0.000 A 
ATOM     10  C   UNL     1       1.003  11.715  18.899  0.00  0.00    +0.000 A 
BRANCH   8  11
ATOM     11  C   UNL     1      -1.960  13.315  20.688  0.00  0.00    +0.000 C 
BRANCH  11  12
ATOM     12  N   UNL     1      -3.274  12.867  21.159  0.00  0.00    +0.000 NA
ATOM     13  C   UNL     1      -4.450  13.633  20.730  0.00  0.00    +0.000 C 
ATOM     14  C   UNL     1      -4.901  14.735  21.707  0.00  0.00    +0.000 C 
ATOM     15  O   UNL     1      -5.046  14.237  23.043  0.00  0.00    +0.000 OA
ATOM     16  C   UNL     1      -3.823  13.651  23.499  0.00  0.00    +0.000 C 
ATOM     17  C   UNL     1      -3.374  12.509  22.578  0.00  0.00    +0.000 C 
ENDBRANCH  11  12
ENDBRANCH   8  11
ENDBRANCH   3   5
BRANCH   1  18
ATOM     18  C   UNL     1       3.031   7.999  17.448  0.00  0.00    +0.000 C 
BRANCH  18  19
ATOM     19  C   UNL     1       3.715   6.786  18.081  0.00  0.00    +0.000 C 
BRANCH  19  25
ATOM     20  C   UNL     1       4.436   4.547  16.976  0.00  0.00    +0.000 A 
ATOM     21  C   UNL     1       5.191   3.946  15.951  0.00  0.00    +0.000 A 
ATOM     22  C   UNL     1       5.891   4.733  15.054  0.00  0.00    +0.000 A 
ATOM     23  N   UNL     1       5.903   6.074  15.097  0.00  0.00    +0.000 NA
ATOM     24  C   UNL     1       5.178   6.644  16.082  0.00  0.00    +0.000 A 
ATOM     25  C   UNL     1       4.432   5.952  17.047  0.00  0.00    +0.000 A 
BRANCH  20  28
ATOM     26  N   UNL     1       3.046   2.789  19.815  0.00  0.00    +0.000 N 
ATOM     27  C   UNL     1       3.960   3.646  19.273  0.00  0.00    +0.000 A 
ATOM     28  C   UNL     1       3.735   3.660  17.906  0.00  0.00    +0.000 A 
ATOM     29  C   UNL     1       2.694   2.711  17.748  0.00  0.00    +0.000 A 
ATOM     30  N   UNL     1       2.275   2.190  18.900  0.00  0.00    +0.000 NA
BRANCH  26  32
ATOM     31  C   UNL     1       1.373   2.745  21.621  0.00  0.00    +0.000 C 
ATOM     32  C   UNL     1       2.825   2.536  21.226  0.00  0.00    +0.000 C 
ENDBRANCH  26  32
ENDBRANCH  20  28
ENDBRANCH  19  25
ENDBRANCH  18  19
ENDBRANCH   1  18
TORSDOF 8
ENDMDL
