MODEL 1
REMARK VINA RESULT:      -8.9      0.000      0.000
REMARK  Name = 
REMARK  9 active torsions:
REMARK  status: ('A' for Active; 'I' for Inactive)
REMARK    1  A    between atoms: C_1  and  S_2
REMARK    2  A    between atoms: S_2  and  C_5
REMARK    3  A    between atoms: C_8  and  C_9
REMARK    4  A    between atoms: C_11  and  C_12
REMARK    5  A    between atoms: C_12  and  C_14
REMARK    6  A    between atoms: C_14  and  C_15
REMARK    7  A    between atoms: C_15  and  C_16
REMARK    8  A    between atoms: C_16  and  O_17
REMARK    9  A    between atoms: N_19  and  C_20
REMARK                            x       y       z     vdW  Elec       q    Type
REMARK                         _______ _______ _______ _____ _____    ______ ____
ROOT
ATOM      1  C   UNL     1       3.902   6.148  17.870  0.00  0.00    +0.000 A 
ATOM      2  C   UNL     1       4.991   6.331  17.033  0.00  0.00    +0.000 A 
ATOM      3  C   UNL     1       5.676   5.096  16.982  0.00  0.00    +0.000 A 
ATOM      4  N   UNL     1       5.100   4.199  17.795  0.00  0.00    +0.000 NA
ATOM      5  N   UNL     1       3.937   4.787  18.196  0.00  0.00    +0.000 N 
ENDROOT
BRANCH   1   9
ATOM      6  C   UNL     1       1.244   9.159  19.361  0.00  0.00    +0.000 A 
ATOM      7  C   UNL     1       1.597   8.084  20.177  0.00  0.00    +0.000 A 
ATOM      8  C   UNL     1       2.453   7.093  19.680  0.00  0.00    +0.000 A 
ATOM      9  C   UNL     1       2.940   7.153  18.364  0.00  0.00    +0.000 A 
ATOM     10  C   UNL     1       2.474   8.189  17.537  0.00  0.00    +0.000 A 
ATOM     11  C   UNL     1       1.662   9.209  18.034  0.00  0.00    +0.000 A 
BRANCH   6  13
ATOM     12  C   UNL     1       0.039  10.026  21.710  0.00  0.00    +0.000 C 
ATOM     13  S   UNL     1       0.241  10.478  20.005  0.00  0.00    +0.000 S 
ATOM     14  O   UNL     1      -1.053  10.393  19.358  0.00  0.00    +0.000 OA
ATOM     15  O   UNL     1       1.028  11.694  19.952  0.00  0.00    +0.000 OA
ENDBRANCH   6  13
ENDBRANCH   1   9
BRANCH   5  16
ATOM     16  C   UNL     1       2.958   3.987  18.853  0.00  0.00    +0.000 A 
ATOM     17  C   UNL     1       3.169   3.614  20.186  0.00  0.00    +0.000 A 
ATOM     18  C   UNL     1       2.168   2.936  20.883  0.00  0.00    +0.000 A 
ATOM     19  C   UNL     1       0.973   2.601  20.246  0.00  0.00    +0.000 A 
ATOM     20  C   UNL     1       0.784   2.920  18.902  0.00  0.00    +0.000 A 
ATOM     21  C   UNL     1       1.780   3.601  18.200  0.00  0.00    +0.000 A 
ENDBRANCH   5  16
BRANCH   3  22
ATOM     22  C   UNL     1       6.883   4.787  16.203  0.00  0.00    +0.000 C 
ATOM     23  O   UNL     1       7.919   4.412  16.756  0.00  0.00    +0.000 OA
BRANCH  22  24
ATOM     24  C   UNL     1       6.837   4.960  14.693  0.00  0.00    +0.000 C 
BRANCH  24  25
ATOM     25  C   UNL     1       6.038   3.856  14.009  0.00  0.00    +0.000 C 
BRANCH  25  26
ATOM     26  C   UNL     1       6.410   3.644  12.546  0.00  0.00    +0.000 C 
BRANCH  26  27
ATOM     27  O   UNL     1       6.059   2.337  12.121  0.00  0.00    +0.000 OA
ATOM     28  H   UNL     1       6.867   1.784  12.150  0.00  0.00    +0.000 HD
ENDBRANCH  26  27
ENDBRANCH  25  26
ENDBRANCH  24  25
ENDBRANCH  22  24
ENDBRANCH   3  22
TORSDOF 8
ENDMDL
MODEL 2
REMARK VINA RESULT:      -8.6      0.262      1.341
REMARK  Name = 
REMARK  9 active torsions:
REMARK  status: ('A' for Active; 'I' for Inactive)
REMARK    1  A    between atoms: C_1  and  S_2
REMARK    2  A    between atoms: S_2  and  C_5
REMARK    3  A    between atoms: C_8  and  C_9
REMARK    4  A    between atoms: C_11  and  C_12
REMARK    5  A    between atoms: C_12  and  C_14
REMARK    6  A    between atoms: C_14  and  C_15
REMARK    7  A    between atoms: C_15  and  C_16
REMARK    8  A    between atoms: C_16  and  O_17
REMARK    9  A    between atoms: N_19  and  C_20
REMARK                            x       y       z     vdW  Elec       q    Type
REMARK                         _______ _______ _______ _____ _____    ______ ____
ROOT
ATOM      1  C   UNL     1       3.928   6.259  17.778  0.00  0.00    +0.000 A 
ATOM      2  C   UNL     1       5.004   6.415  16.918  0.00  0.00    +0.000 A 
ATOM      3  C   UNL     1       5.627   5.152  16.813  0.00  0.00    +0.000 A 
ATOM      4  N   UNL     1       5.029   4.259  17.614  0.00  0.00    +0.000 NA
ATOM      5  N   UNL     1       3.906   4.888  18.063  0.00  0.00    +0.000 N 
ENDROOT
BRANCH   1   9
ATOM      6  C   UNL     1       1.182   9.171  19.306  0.00  0.00    +0.000 A 
ATOM      7  C   UNL     1       1.726   9.337  18.031  0.00  0.00    +0.000 A 
ATOM      8  C   UNL     1       2.636   8.391  17.542  0.00  0.00    +0.000 A 
ATOM      9  C   UNL     1       3.028   7.293  18.326  0.00  0.00    +0.000 A 
ATOM     10  C   UNL     1       2.546   7.220  19.644  0.00  0.00    +0.000 A 
ATOM     11  C   UNL     1       1.601   8.126  20.125  0.00  0.00    +0.000 A 
BRANCH   6  13
ATOM     12  C   UNL     1      -0.354   9.726  21.554  0.00  0.00    +0.000 C 
ATOM     13  S   UNL     1      -0.051  10.303  19.903  0.00  0.00    +0.000 S 
ATOM     14  O   UNL     1      -1.252  10.087  19.120  0.00  0.00    +0.000 OA
ATOM     15  O   UNL     1       0.562  11.613  19.990  0.00  0.00    +0.000 OA
ENDBRANCH   6  13
ENDBRANCH   1   9
BRANCH   5  16
ATOM     16  C   UNL     1       2.907   4.116  18.722  0.00  0.00    +0.000 A 
ATOM     17  C   UNL     1       1.765   3.729  18.008  0.00  0.00    +0.000 A 
ATOM     18  C   UNL     1       0.836   2.872  18.599  0.00  0.00    +0.000 A 
ATOM     19  C   UNL     1       1.024   2.427  19.907  0.00  0.00    +0.000 A 
ATOM     20  C   UNL     1       2.129   2.857  20.640  0.00  0.00    +0.000 A 
ATOM     21  C   UNL     1       3.065   3.711  20.054  0.00  0.00    +0.000 A 
ENDBRANCH   5  16
BRANCH   3  22
ATOM     22  C   UNL     1       6.798   4.810  15.994  0.00  0.00    +0.000 C 
ATOM     23  O   UNL     1       7.853   4.442  16.514  0.00  0.00    +0.000 OA
BRANCH  22  24
ATOM     24  C   UNL     1       6.690   4.940  14.483  0.00  0.00    +0.000 C 
BRANCH  24  25
ATOM     25  C   UNL     1       6.004   3.736  13.847  0.00  0.00    +0.000 C 
BRANCH  25  26
ATOM     26  C   UNL     1       6.341   3.544  12.372  0.00  0.00    +0.000 C 
BRANCH  26  27
ATOM     27  O   UNL     1       6.058   2.216  11.960  0.00  0.00    +0.000 OA
ATOM     28  H   UNL     1       6.829   1.658  12.194  0.00  0.00    +0.000 HD
ENDBRANCH  26  27
ENDBRANCH  25  26
ENDBRANCH  24  25
ENDBRANCH  22  24
ENDBRANCH   3  22
TORSDOF 8
ENDMDL
MODEL 3
REMARK VINA RESULT:      -8.6      0.924      1.675
REMARK  Name = 
REMARK  9 active torsions:
REMARK  status: ('A' for Active; 'I' for Inactive)
REMARK    1  A    between atoms: C_1  and  S_2
REMARK    2  A    between atoms: S_2  and  C_5
REMARK    3  A    between atoms: C_8  and  C_9
REMARK    4  A    between atoms: C_11  and  C_12
REMARK    5  A    between atoms: C_12  and  C_14
REMARK    6  A    between atoms: C_14  and  C_15
REMARK    7  A    between atoms: C_15  and  C_16
REMARK    8  A    between atoms: C_16  and  O_17
REMARK    9  A    between atoms: N_19  and  C_20
REMARK                            x       y       z     vdW  Elec       q    Type
REMARK                         _______ _______ _______ _____ _____    ______ ____
ROOT
ATOM      1  C   UNL     1       3.632   6.454  17.740  0.00  0.00    +0.000 A 
ATOM      2  C   UNL     1       4.594   6.622  16.757  0.00  0.00    +0.000 A 
ATOM      3  C   UNL     1       5.243   5.375  16.605  0.00  0.00    +0.000 A 
ATOM      4  N   UNL     1       4.772   4.484  17.489  0.00  0.00    +0.000 NA
ATOM      5  N   UNL     1       3.688   5.090  18.053  0.00  0.00    +0.000 N 
ENDROOT
BRANCH   1   9
ATOM      6  C   UNL     1       0.989   9.327  19.504  0.00  0.00    +0.000 A 
ATOM      7  C   UNL     1       1.478   9.539  18.215  0.00  0.00    +0.000 A 
ATOM      8  C   UNL     1       2.355   8.605  17.648  0.00  0.00    +0.000 A 
ATOM      9  C   UNL     1       2.769   7.473  18.369  0.00  0.00    +0.000 A 
ATOM     10  C   UNL     1       2.345   7.351  19.703  0.00  0.00    +0.000 A 
ATOM     11  C   UNL     1       1.432   8.246  20.261  0.00  0.00    +0.000 A 
BRANCH   6  13
ATOM     12  C   UNL     1       0.683  11.983  20.263  0.00  0.00    +0.000 C 
ATOM     13  S   UNL     1      -0.203  10.446  20.201  0.00  0.00    +0.000 S 
ATOM     14  O   UNL     1      -0.457  10.013  21.562  0.00  0.00    +0.000 OA
ATOM     15  O   UNL     1      -1.284  10.587  19.246  0.00  0.00    +0.000 OA
ENDBRANCH   6  13
ENDBRANCH   1   9
BRANCH   5  16
ATOM     16  C   UNL     1       2.799   4.305  18.840  0.00  0.00    +0.000 A 
ATOM     17  C   UNL     1       1.597   3.862  18.272  0.00  0.00    +0.000 A 
ATOM     18  C   UNL     1       0.772   2.992  18.985  0.00  0.00    +0.000 A 
ATOM     19  C   UNL     1       1.124   2.588  20.273  0.00  0.00    +0.000 A 
ATOM     20  C   UNL     1       2.289   3.073  20.864  0.00  0.00    +0.000 A 
ATOM     21  C   UNL     1       3.121   3.941  20.155  0.00  0.00    +0.000 A 
ENDBRANCH   5  16
BRANCH   3  22
ATOM     22  C   UNL     1       6.320   5.049  15.662  0.00  0.00    +0.000 C 
ATOM     23  O   UNL     1       7.347   5.730  15.607  0.00  0.00    +0.000 OA
BRANCH  22  24
ATOM     24  C   UNL     1       6.137   3.861  14.732  0.00  0.00    +0.000 C 
BRANCH  24  25
ATOM     25  C   UNL     1       6.522   4.188  13.293  0.00  0.00    +0.000 C 
BRANCH  25  26
ATOM     26  C   UNL     1       5.842   3.300  12.257  0.00  0.00    +0.000 C 
BRANCH  26  27
ATOM     27  O   UNL     1       6.705   2.251  11.848  0.00  0.00    +0.000 OA
ATOM     28  H   UNL     1       6.183   1.423  11.826  0.00  0.00    +0.000 HD
ENDBRANCH  26  27
ENDBRANCH  25  26
ENDBRANCH  24  25
ENDBRANCH  22  24
ENDBRANCH   3  22
TORSDOF 8
ENDMDL
MODEL 4
REMARK VINA RESULT:      -8.6      0.962      1.059
REMARK  Name = 
REMARK  9 active torsions:
REMARK  status: ('A' for Active; 'I' for Inactive)
REMARK    1  A    between atoms: C_1  and  S_2
REMARK    2  A    between atoms: S_2  and  C_5
REMARK    3  A    between atoms: C_8  and  C_9
REMARK    4  A    between atoms: C_11  and  C_12
REMARK    5  A    between atoms: C_12  and  C_14
REMARK    6  A    between atoms: C_14  and  C_15
REMARK    7  A    between atoms: C_15  and  C_16
REMARK    8  A    between atoms: C_16  and  O_17
REMARK    9  A    between atoms: N_19  and  C_20
REMARK                            x       y       z     vdW  Elec       q    Type
REMARK                         _______ _______ _______ _____ _____    ______ ____
ROOT
ATOM      1  C   UNL     1       3.585   6.555  17.967  0.00  0.00    +0.000 A 
ATOM      2  C   UNL     1       4.603   6.789  17.056  0.00  0.00    +0.000 A 
ATOM      3  C   UNL     1       5.345   5.591  16.959  0.00  0.00    +0.000 A 
ATOM      4  N   UNL     1       4.874   4.670  17.811  0.00  0.00    +0.000 NA
ATOM      5  N   UNL     1       3.712   5.199  18.291  0.00  0.00    +0.000 N 
ENDROOT
BRANCH   1   9
ATOM      6  C   UNL     1       0.886   9.433  19.636  0.00  0.00    +0.000 A 
ATOM      7  C   UNL     1       1.335   8.371  20.421  0.00  0.00    +0.000 A 
ATOM      8  C   UNL     1       2.205   7.423  19.867  0.00  0.00    +0.000 A 
ATOM      9  C   UNL     1       2.609   7.513  18.525  0.00  0.00    +0.000 A 
ATOM     10  C   UNL     1       2.049   8.531  17.735  0.00  0.00    +0.000 A 
ATOM     11  C   UNL     1       1.223   9.509  18.287  0.00  0.00    +0.000 A 
BRANCH   6  13
ATOM     12  C   UNL     1       0.957  12.099  20.417  0.00  0.00    +0.000 C 
ATOM     13  S   UNL     1      -0.135  10.701  20.350  0.00  0.00    +0.000 S 
ATOM     14  O   UNL     1      -0.438  10.297  21.709  0.00  0.00    +0.000 OA
ATOM     15  O   UNL     1      -1.191  10.999  19.403  0.00  0.00    +0.000 OA
ENDBRANCH   6  13
ENDBRANCH   1   9
BRANCH   5  16
ATOM     16  C   UNL     1       2.824   4.354  19.017  0.00  0.00    +0.000 A 
ATOM     17  C   UNL     1       3.115   4.049  20.353  0.00  0.00    +0.000 A 
ATOM     18  C   UNL     1       2.197   3.324  21.114  0.00  0.00    +0.000 A 
ATOM     19  C   UNL     1       1.007   2.878  20.540  0.00  0.00    +0.000 A 
ATOM     20  C   UNL     1       0.741   3.130  19.195  0.00  0.00    +0.000 A 
ATOM     21  C   UNL     1       1.654   3.856  18.428  0.00  0.00    +0.000 A 
ENDBRANCH   5  16
BRANCH   3  22
ATOM     22  C   UNL     1       6.509   5.339  16.099  0.00  0.00    +0.000 C 
ATOM     23  O   UNL     1       7.441   6.144  16.037  0.00  0.00    +0.000 OA
BRANCH  22  24
ATOM     24  C   UNL     1       6.534   4.070  15.263  0.00  0.00    +0.000 C 
BRANCH  24  25
ATOM     25  C   UNL     1       5.590   4.146  14.068  0.00  0.00    +0.000 C 
BRANCH  25  26
ATOM     26  C   UNL     1       6.191   3.607  12.774  0.00  0.00    +0.000 C 
BRANCH  26  27
ATOM     27  O   UNL     1       5.171   3.190  11.881  0.00  0.00    +0.000 OA
ATOM     28  H   UNL     1       4.624   2.520  12.341  0.00  0.00    +0.000 HD
ENDBRANCH  26  27
ENDBRANCH  25  26
ENDBRANCH  24  25
ENDBRANCH  22  24
ENDBRANCH   3  22
TORSDOF 8
ENDMDL
MODEL 5
REMARK VINA RESULT:      -8.6      0.764      1.369
REMARK  Name = 
REMARK  9 active torsions:
REMARK  status: ('A' for Active; 'I' for Inactive)
REMARK    1  A    between atoms: C_1  and  S_2
REMARK    2  A    between atoms: S_2  and  C_5
REMARK    3  A    between atoms: C_8  and  C_9
REMARK    4  A    between atoms: C_11  and  C_12
REMARK    5  A    between atoms: C_12  and  C_14
REMARK    6  A    between atoms: C_14  and  C_15
REMARK    7  A    between atoms: C_15  and  C_16
REMARK    8  A    between atoms: C_16  and  O_17
REMARK    9  A    between atoms: N_19  and  C_20
REMARK                            x       y       z     vdW  Elec       q    Type
REMARK                         _______ _______ _______ _____ _____    ______ ____
ROOT
ATOM      1  C   UNL     1       3.867   6.273  17.960  0.00  0.00    +0.000 A 
ATOM      2  C   UNL     1       4.998   6.415  17.171  0.00  0.00    +0.000 A 
ATOM      3  C   UNL     1       5.659   5.167  17.178  0.00  0.00    +0.000 A 
ATOM      4  N   UNL     1       5.028   4.300  17.983  0.00  0.00    +0.000 NA
ATOM      5  N   UNL     1       3.859   4.919  18.316  0.00  0.00    +0.000 N 
ENDROOT
BRANCH   1   9
ATOM      6  C   UNL     1       1.204   9.367  19.258  0.00  0.00    +0.000 A 
ATOM      7  C   UNL     1       1.494   8.303  20.112  0.00  0.00    +0.000 A 
ATOM      8  C   UNL     1       2.353   7.284  19.677  0.00  0.00    +0.000 A 
ATOM      9  C   UNL     1       2.904   7.307  18.386  0.00  0.00    +0.000 A 
ATOM     10  C   UNL     1       2.501   8.335  17.516  0.00  0.00    +0.000 A 
ATOM     11  C   UNL     1       1.688   9.381  17.952  0.00  0.00    +0.000 A 
BRANCH   6  13
ATOM     12  C   UNL     1      -1.041  10.851  18.564  0.00  0.00    +0.000 C 
ATOM     13  S   UNL     1       0.200  10.719  19.827  0.00  0.00    +0.000 S 
ATOM     14  O   UNL     1       1.020  11.914  19.782  0.00  0.00    +0.000 OA
ATOM     15  O   UNL     1      -0.447  10.300  21.053  0.00  0.00    +0.000 OA
ENDBRANCH   6  13
ENDBRANCH   1   9
BRANCH   5  16
ATOM     16  C   UNL     1       2.835   4.153  18.944  0.00  0.00    +0.000 A 
ATOM     17  C   UNL     1       1.807   3.618  18.157  0.00  0.00    +0.000 A 
ATOM     18  C   UNL     1       0.865   2.766  18.734  0.00  0.00    +0.000 A 
ATOM     19  C   UNL     1       0.925   2.472  20.097  0.00  0.00    +0.000 A 
ATOM     20  C   UNL     1       1.912   3.050  20.893  0.00  0.00    +0.000 A 
ATOM     21  C   UNL     1       2.860   3.901  20.322  0.00  0.00    +0.000 A 
ENDBRANCH   5  16
BRANCH   3  22
ATOM     22  C   UNL     1       6.894   4.817  16.464  0.00  0.00    +0.000 C 
ATOM     23  O   UNL     1       7.902   4.454  17.074  0.00  0.00    +0.000 OA
BRANCH  22  24
ATOM     24  C   UNL     1       6.914   4.932  14.949  0.00  0.00    +0.000 C 
BRANCH  24  25
ATOM     25  C   UNL     1       5.831   4.084  14.290  0.00  0.00    +0.000 C 
BRANCH  25  26
ATOM     26  C   UNL     1       6.189   3.612  12.885  0.00  0.00    +0.000 C 
BRANCH  26  27
ATOM     27  O   UNL     1       5.018   3.390  12.115  0.00  0.00    +0.000 OA
ATOM     28  H   UNL     1       5.103   3.903  11.285  0.00  0.00    +0.000 HD
ENDBRANCH  26  27
ENDBRANCH  25  26
ENDBRANCH  24  25
ENDBRANCH  22  24
ENDBRANCH   3  22
TORSDOF 8
ENDMDL
MODEL 6
REMARK VINA RESULT:      -8.6      1.188      1.325
REMARK  Name = 
REMARK  9 active torsions:
REMARK  status: ('A' for Active; 'I' for Inactive)
REMARK    1  A    between atoms: C_1  and  S_2
REMARK    2  A    between atoms: S_2  and  C_5
REMARK    3  A    between atoms: C_8  and  C_9
REMARK    4  A    between atoms: C_11  and  C_12
REMARK    5  A    between atoms: C_12  and  C_14
REMARK    6  A    between atoms: C_14  and  C_15
REMARK    7  A    between atoms: C_15  and  C_16
REMARK    8  A    between atoms: C_16  and  O_17
REMARK    9  A    between atoms: N_19  and  C_20
REMARK                            x       y       z     vdW  Elec       q    Type
REMARK                         _______ _______ _______ _____ _____    ______ ____
ROOT
ATOM      1  C   UNL     1       3.560   6.437  17.937  0.00  0.00    +0.000 A 
ATOM      2  C   UNL     1       4.536   6.625  16.970  0.00  0.00    +0.000 A 
ATOM      3  C   UNL     1       5.252   5.411  16.873  0.00  0.00    +0.000 A 
ATOM      4  N   UNL     1       4.807   4.524  17.774  0.00  0.00    +0.000 NA
ATOM      5  N   UNL     1       3.680   5.088  18.294  0.00  0.00    +0.000 N 
ENDROOT
BRANCH   1   9
ATOM      6  C   UNL     1       0.997   9.408  19.656  0.00  0.00    +0.000 A 
ATOM      7  C   UNL     1       1.426   8.332  20.434  0.00  0.00    +0.000 A 
ATOM      8  C   UNL     1       2.251   7.354  19.863  0.00  0.00    +0.000 A 
ATOM      9  C   UNL     1       2.630   7.428  18.513  0.00  0.00    +0.000 A 
ATOM     10  C   UNL     1       2.088   8.463  17.733  0.00  0.00    +0.000 A 
ATOM     11  C   UNL     1       1.308   9.471  18.300  0.00  0.00    +0.000 A 
BRANCH   6  13
ATOM     12  C   UNL     1      -1.269  10.953  19.208  0.00  0.00    +0.000 C 
ATOM     13  S   UNL     1       0.035  10.711  20.388  0.00  0.00    +0.000 S 
ATOM     14  O   UNL     1       0.861  11.902  20.400  0.00  0.00    +0.000 OA
ATOM     15  O   UNL     1      -0.551  10.192  21.607  0.00  0.00    +0.000 OA
ENDBRANCH   6  13
ENDBRANCH   1   9
BRANCH   5  16
ATOM     16  C   UNL     1       2.814   4.281  19.086  0.00  0.00    +0.000 A 
ATOM     17  C   UNL     1       3.195   3.956  20.395  0.00  0.00    +0.000 A 
ATOM     18  C   UNL     1       2.307   3.271  21.225  0.00  0.00    +0.000 A 
ATOM     19  C   UNL     1       1.057   2.882  20.747  0.00  0.00    +0.000 A 
ATOM     20  C   UNL     1       0.698   3.152  19.427  0.00  0.00    +0.000 A 
ATOM     21  C   UNL     1       1.579   3.840  18.592  0.00  0.00    +0.000 A 
ENDBRANCH   5  16
BRANCH   3  22
ATOM     22  C   UNL     1       6.367   5.113  15.965  0.00  0.00    +0.000 C 
ATOM     23  O   UNL     1       7.333   5.874  15.872  0.00  0.00    +0.000 OA
BRANCH  22  24
ATOM     24  C   UNL     1       6.299   3.852  15.120  0.00  0.00    +0.000 C 
BRANCH  24  25
ATOM     25  C   UNL     1       5.916   4.145  13.673  0.00  0.00    +0.000 C 
BRANCH  25  26
ATOM     26  C   UNL     1       7.108   4.238  12.727  0.00  0.00    +0.000 C 
BRANCH  26  27
ATOM     27  O   UNL     1       7.827   5.442  12.941  0.00  0.00    +0.000 OA
ATOM     28  H   UNL     1       7.529   6.093  12.272  0.00  0.00    +0.000 HD
ENDBRANCH  26  27
ENDBRANCH  25  26
ENDBRANCH  24  25
ENDBRANCH  22  24
ENDBRANCH   3  22
TORSDOF 8
ENDMDL
MODEL 7
REMARK VINA RESULT:      -8.6      3.449      5.498
REMARK  Name = 
REMARK  9 active torsions:
REMARK  status: ('A' for Active; 'I' for Inactive)
REMARK    1  A    between atoms: C_1  and  S_2
REMARK    2  A    between atoms: S_2  and  C_5
REMARK    3  A    between atoms: C_8  and  C_9
REMARK    4  A    between atoms: C_11  and  C_12
REMARK    5  A    between atoms: C_12  and  C_14
REMARK    6  A    between atoms: C_14  and  C_15
REMARK    7  A    between atoms: C_15  and  C_16
REMARK    8  A    between atoms: C_16  and  O_17
REMARK    9  A    between atoms: N_19  and  C_20
REMARK                            x       y       z     vdW  Elec       q    Type
REMARK                         _______ _______ _______ _____ _____    ______ ____
ROOT
ATOM      1  C   UNL     1       5.296   4.181  15.792  0.00  0.00    +0.000 A 
ATOM      2  C   UNL     1       5.240   3.620  14.526  0.00  0.00    +0.000 A 
ATOM      3  C   UNL     1       6.295   4.191  13.780  0.00  0.00    +0.000 A 
ATOM      4  N   UNL     1       6.942   5.115  14.503  0.00  0.00    +0.000 NA
ATOM      5  N   UNL     1       6.444   4.984  15.766  0.00  0.00    +0.000 N 
ENDROOT
BRANCH   1   9
ATOM      6  C   UNL     1       2.414   3.717  18.927  0.00  0.00    +0.000 A 
ATOM      7  C   UNL     1       2.733   4.995  18.465  0.00  0.00    +0.000 A 
ATOM      8  C   UNL     1       3.687   5.143  17.451  0.00  0.00    +0.000 A 
ATOM      9  C   UNL     1       4.347   4.027  16.912  0.00  0.00    +0.000 A 
ATOM     10  C   UNL     1       4.083   2.769  17.479  0.00  0.00    +0.000 A 
ATOM     11  C   UNL     1       3.098   2.602  18.453  0.00  0.00    +0.000 A 
BRANCH   6  13
ATOM     12  C   UNL     1       1.976   2.675  21.466  0.00  0.00    +0.000 C 
ATOM     13  S   UNL     1       1.133   3.501  20.140  0.00  0.00    +0.000 S 
ATOM     14  O   UNL     1       0.160   2.583  19.580  0.00  0.00    +0.000 OA
ATOM     15  O   UNL     1       0.742   4.816  20.605  0.00  0.00    +0.000 OA
ENDBRANCH   6  13
ENDBRANCH   1   9
BRANCH   5  16
ATOM     16  C   UNL     1       7.116   5.637  16.838  0.00  0.00    +0.000 A 
ATOM     17  C   UNL     1       7.308   7.023  16.776  0.00  0.00    +0.000 A 
ATOM     18  C   UNL     1       7.854   7.697  17.869  0.00  0.00    +0.000 A 
ATOM     19  C   UNL     1       8.238   6.990  19.009  0.00  0.00    +0.000 A 
ATOM     20  C   UNL     1       8.102   5.603  19.051  0.00  0.00    +0.000 A 
ATOM     21  C   UNL     1       7.554   4.923  17.962  0.00  0.00    +0.000 A 
ENDBRANCH   5  16
BRANCH   3  22
ATOM     22  C   UNL     1       6.656   3.891  12.388  0.00  0.00    +0.000 C 
ATOM     23  O   UNL     1       7.550   4.515  11.813  0.00  0.00    +0.000 OA
BRANCH  22  24
ATOM     24  C   UNL     1       5.887   2.802  11.656  0.00  0.00    +0.000 C 
BRANCH  24  25
ATOM     25  C   UNL     1       6.761   1.595  11.333  0.00  0.00    +0.000 C 
BRANCH  25  26
ATOM     26  C   UNL     1       5.971   0.340  10.980  0.00  0.00    +0.000 C 
BRANCH  26  27
ATOM     27  O   UNL     1       6.360  -0.748  11.804  0.00  0.00    +0.000 OA
ATOM     28  H   UNL     1       6.351  -0.438  12.733  0.00  0.00    +0.000 HD
ENDBRANCH  26  27
ENDBRANCH  25  26
ENDBRANCH  24  25
ENDBRANCH  22  24
ENDBRANCH   3  22
TORSDOF 8
ENDMDL
MODEL 8
REMARK VINA RESULT:      -8.6      1.053      1.494
REMARK  Name = 
REMARK  9 active torsions:
REMARK  status: ('A' for Active; 'I' for Inactive)
REMARK    1  A    between atoms: C_1  and  S_2
REMARK    2  A    between atoms: S_2  and  C_5
REMARK    3  A    between atoms: C_8  and  C_9
REMARK    4  A    between atoms: C_11  and  C_12
REMARK    5  A    between atoms: C_12  and  C_14
REMARK    6  A    between atoms: C_14  and  C_15
REMARK    7  A    between atoms: C_15  and  C_16
REMARK    8  A    between atoms: C_16  and  O_17
REMARK    9  A    between atoms: N_19  and  C_20
REMARK                            x       y       z     vdW  Elec       q    Type
REMARK                         _______ _______ _______ _____ _____    ______ ____
ROOT
ATOM      1  C   UNL     1       3.698   6.310  17.709  0.00  0.00    +0.000 A 
ATOM      2  C   UNL     1       4.632   6.502  16.703  0.00  0.00    +0.000 A 
ATOM      3  C   UNL     1       5.285   5.263  16.513  0.00  0.00    +0.000 A 
ATOM      4  N   UNL     1       4.846   4.354  17.396  0.00  0.00    +0.000 NA
ATOM      5  N   UNL     1       3.773   4.942  17.999  0.00  0.00    +0.000 N 
ENDROOT
BRANCH   1   9
ATOM      6  C   UNL     1       1.082   9.133  19.591  0.00  0.00    +0.000 A 
ATOM      7  C   UNL     1       1.527   9.365  18.289  0.00  0.00    +0.000 A 
ATOM      8  C   UNL     1       2.395   8.448  17.683  0.00  0.00    +0.000 A 
ATOM      9  C   UNL     1       2.844   7.313  18.377  0.00  0.00    +0.000 A 
ATOM     10  C   UNL     1       2.465   7.171  19.723  0.00  0.00    +0.000 A 
ATOM     11  C   UNL     1       1.561   8.049  20.321  0.00  0.00    +0.000 A 
BRANCH   6  13
ATOM     12  C   UNL     1       0.839  11.717  20.585  0.00  0.00    +0.000 C 
ATOM     13  S   UNL     1      -0.100  10.230  20.339  0.00  0.00    +0.000 S 
ATOM     14  O   UNL     1      -0.432   9.684  21.641  0.00  0.00    +0.000 OA
ATOM     15  O   UNL     1      -1.128  10.504  19.356  0.00  0.00    +0.000 OA
ENDBRANCH   6  13
ENDBRANCH   1   9
BRANCH   5  16
ATOM     16  C   UNL     1       2.912   4.137  18.798  0.00  0.00    +0.000 A 
ATOM     17  C   UNL     1       3.350   3.717  20.060  0.00  0.00    +0.000 A 
ATOM     18  C   UNL     1       2.476   3.033  20.905  0.00  0.00    +0.000 A 
ATOM     19  C   UNL     1       1.179   2.738  20.484  0.00  0.00    +0.000 A 
ATOM     20  C   UNL     1       0.759   3.103  19.206  0.00  0.00    +0.000 A 
ATOM     21  C   UNL     1       1.627   3.791  18.357  0.00  0.00    +0.000 A 
ENDBRANCH   5  16
BRANCH   3  22
ATOM     22  C   UNL     1       6.339   4.961  15.536  0.00  0.00    +0.000 C 
ATOM     23  O   UNL     1       7.278   5.737  15.351  0.00  0.00    +0.000 OA
BRANCH  22  24
ATOM     24  C   UNL     1       6.239   3.672  14.735  0.00  0.00    +0.000 C 
BRANCH  24  25
ATOM     25  C   UNL     1       5.742   3.912  13.314  0.00  0.00    +0.000 C 
BRANCH  25  26
ATOM     26  C   UNL     1       6.841   3.849  12.259  0.00  0.00    +0.000 C 
BRANCH  26  27
ATOM     27  O   UNL     1       7.677   4.992  12.333  0.00  0.00    +0.000 OA
ATOM     28  H   UNL     1       8.159   5.068  11.484  0.00  0.00    +0.000 HD
ENDBRANCH  26  27
ENDBRANCH  25  26
ENDBRANCH  24  25
ENDBRANCH  22  24
ENDBRANCH   3  22
TORSDOF 8
ENDMDL
MODEL 9
REMARK VINA RESULT:      -8.5      0.976      1.475
REMARK  Name = 
REMARK  9 active torsions:
REMARK  status: ('A' for Active; 'I' for Inactive)
REMARK    1  A    between atoms: C_1  and  S_2
REMARK    2  A    between atoms: S_2  and  C_5
REMARK    3  A    between atoms: C_8  and  C_9
REMARK    4  A    between atoms: C_11  and  C_12
REMARK    5  A    between atoms: C_12  and  C_14
REMARK    6  A    between atoms: C_14  and  C_15
REMARK    7  A    between atoms: C_15  and  C_16
REMARK    8  A    between atoms: C_16  and  O_17
REMARK    9  A    between atoms: N_19  and  C_20
REMARK                            x       y       z     vdW  Elec       q    Type
REMARK                         _______ _______ _______ _____ _____    ______ ____
ROOT
ATOM      1  C   UNL     1       3.507   6.481  17.828  0.00  0.00    +0.000 A 
ATOM      2  C   UNL     1       4.443   6.650  16.821  0.00  0.00    +0.000 A 
ATOM      3  C   UNL     1       5.107   5.412  16.670  0.00  0.00    +0.000 A 
ATOM      4  N   UNL     1       4.671   4.526  17.576  0.00  0.00    +0.000 NA
ATOM      5  N   UNL     1       3.591   5.122  18.158  0.00  0.00    +0.000 N 
ENDROOT
BRANCH   1   9
ATOM      6  C   UNL     1       1.140   9.509  19.720  0.00  0.00    +0.000 A 
ATOM      7  C   UNL     1       1.516   8.375  20.441  0.00  0.00    +0.000 A 
ATOM      8  C   UNL     1       2.276   7.380  19.814  0.00  0.00    +0.000 A 
ATOM      9  C   UNL     1       2.642   7.495  18.463  0.00  0.00    +0.000 A 
ATOM     10  C   UNL     1       2.150   8.594  17.739  0.00  0.00    +0.000 A 
ATOM     11  C   UNL     1       1.437   9.617  18.364  0.00  0.00    +0.000 A 
BRANCH   6  13
ATOM     12  C   UNL     1       1.107  12.279  19.945  0.00  0.00    +0.000 C 
ATOM     13  S   UNL     1       0.264  10.829  20.525  0.00  0.00    +0.000 S 
ATOM     14  O   UNL     1       0.507  10.703  21.949  0.00  0.00    +0.000 OA
ATOM     15  O   UNL     1      -1.084  10.849  19.994  0.00  0.00    +0.000 OA
ENDBRANCH   6  13
ENDBRANCH   1   9
BRANCH   5  16
ATOM     16  C   UNL     1       2.733   4.334  18.976  0.00  0.00    +0.000 A 
ATOM     17  C   UNL     1       1.598   3.746  18.402  0.00  0.00    +0.000 A 
ATOM     18  C   UNL     1       0.813   2.872  19.157  0.00  0.00    +0.000 A 
ATOM     19  C   UNL     1       1.138   2.609  20.487  0.00  0.00    +0.000 A 
ATOM     20  C   UNL     1       2.233   3.238  21.078  0.00  0.00    +0.000 A 
ATOM     21  C   UNL     1       3.024   4.110  20.329  0.00  0.00    +0.000 A 
ENDBRANCH   5  16
BRANCH   3  22
ATOM     22  C   UNL     1       6.168   5.090  15.707  0.00  0.00    +0.000 C 
ATOM     23  O   UNL     1       7.213   5.743  15.668  0.00  0.00    +0.000 OA
BRANCH  22  24
ATOM     24  C   UNL     1       5.944   3.941  14.736  0.00  0.00    +0.000 C 
BRANCH  24  25
ATOM     25  C   UNL     1       6.647   4.166  13.402  0.00  0.00    +0.000 C 
BRANCH  25  26
ATOM     26  C   UNL     1       5.920   3.551  12.211  0.00  0.00    +0.000 C 
BRANCH  26  27
ATOM     27  O   UNL     1       6.096   2.144  12.185  0.00  0.00    +0.000 OA
ATOM     28  H   UNL     1       5.527   1.757  12.882  0.00  0.00    +0.000 HD
ENDBRANCH  26  27
ENDBRANCH  25  26
ENDBRANCH  24  25
ENDBRANCH  22  24
ENDBRANCH   3  22
TORSDOF 8
ENDMDL
