MODEL 1
REMARK VINA RESULT:      -8.2      0.000      0.000
REMARK  Name = 
REMARK  5 active torsions:
REMARK  status: ('A' for Active; 'I' for Inactive)
REMARK    1  A    between atoms: C_2  and  C_3
REMARK    2  A    between atoms: C_3  and  C_4
REMARK    3  A    between atoms: C_4  and  S_5
REMARK    4  A    between atoms: S_5  and  C_8
REMARK    5  A    between atoms: C_17  and  C_18
REMARK                            x       y       z     vdW  Elec       q    Type
REMARK                         _______ _______ _______ _____ _____    ______ ____
ROOT
ATOM      1  O   UNL     1       5.429   3.150  19.842  0.00  0.00    +0.000 OA
ATOM      2  C   UNL     1       4.802   4.071  19.312  0.00  0.00    +0.000 C 
ATOM      3  N   UNL     1       3.497   3.912  18.895  0.00  0.00    +0.000 N 
ATOM      4  C   UNL     1       2.786   2.662  19.093  0.00  0.00    +0.000 C 
ATOM      5  C   UNL     1       1.858   2.570  17.898  0.00  0.00    +0.000 C 
ATOM      6  C   UNL     1       1.479   4.022  17.623  0.00  0.00    +0.000 C 
ATOM      7  C   UNL     1       2.693   4.844  18.092  0.00  0.00    +0.000 C 
ENDROOT
BRANCH   7   8
ATOM      8  C   UNL     1       2.263   6.082  18.855  0.00  0.00    +0.000 A 
ATOM      9  C   UNL     1       1.881   6.021  20.206  0.00  0.00    +0.000 A 
ATOM     10  C   UNL     1       1.532   7.177  20.904  0.00  0.00    +0.000 A 
ATOM     11  C   UNL     1       1.536   8.415  20.261  0.00  0.00    +0.000 A 
ATOM     12 CL   UNL     1       1.114   9.806  21.194  0.00  0.00    +0.000 Cl
ATOM     13  C   UNL     1       1.876   8.491  18.907  0.00  0.00    +0.000 A 
ATOM     14 CL   UNL     1       1.880   9.983  18.036  0.00  0.00    +0.000 Cl
ATOM     15  C   UNL     1       2.233   7.328  18.209  0.00  0.00    +0.000 A 
ENDBRANCH   7   8
BRANCH   2  16
ATOM     16  C   UNL     1       5.436   5.441  19.169  0.00  0.00    +0.000 C 
BRANCH  16  17
ATOM     17  C   UNL     1       6.761   5.365  18.416  0.00  0.00    +0.000 C 
BRANCH  17  18
ATOM     18  S   UNL     1       6.612   6.167  16.824  0.00  0.00    +0.000 S 
ATOM     19  O   UNL     1       5.313   6.812  16.795  0.00  0.00    +0.000 OA
ATOM     20  O   UNL     1       7.822   6.935  16.604  0.00  0.00    +0.000 OA
BRANCH  18  21
ATOM     21  C   UNL     1       6.559   4.830  15.643  0.00  0.00    +0.000 C 
ATOM     22  C   UNL     1       5.140   4.543  15.160  0.00  0.00    +0.000 C 
ATOM     23  C   UNL     1       5.350   3.689  13.918  0.00  0.00    +0.000 C 
ATOM     24  C   UNL     1       6.691   4.130  13.334  0.00  0.00    +0.000 C 
ATOM     25  C   UNL     1       7.310   5.094  14.348  0.00  0.00    +0.000 C 
ENDBRANCH  18  21
ENDBRANCH  17  18
ENDBRANCH  16  17
ENDBRANCH   2  16
TORSDOF 5
ENDMDL
MODEL 2
REMARK VINA RESULT:      -8.0      1.327      1.991
REMARK  Name = 
REMARK  5 active torsions:
REMARK  status: ('A' for Active; 'I' for Inactive)
REMARK    1  A    between atoms: C_2  and  C_3
REMARK    2  A    between atoms: C_3  and  C_4
REMARK    3  A    between atoms: C_4  and  S_5
REMARK    4  A    between atoms: S_5  and  C_8
REMARK    5  A    between atoms: C_17  and  C_18
REMARK                            x       y       z     vdW  Elec       q    Type
REMARK                         _______ _______ _______ _____ _____    ______ ____
ROOT
ATOM      1  O   UNL     1       5.523   3.496  19.528  0.00  0.00    +0.000 OA
ATOM      2  C   UNL     1       4.545   4.107  19.090  0.00  0.00    +0.000 C 
ATOM      3  N   UNL     1       3.313   4.037  19.707  0.00  0.00    +0.000 N 
ATOM      4  C   UNL     1       3.118   3.269  20.923  0.00  0.00    +0.000 C 
ATOM      5  C   UNL     1       1.694   2.760  20.816  0.00  0.00    +0.000 C 
ATOM      6  C   UNL     1       0.962   3.889  20.096  0.00  0.00    +0.000 C 
ATOM      7  C   UNL     1       2.031   4.550  19.207  0.00  0.00    +0.000 C 
ENDROOT
BRANCH   7   8
ATOM      8  C   UNL     1       1.928   6.063  19.249  0.00  0.00    +0.000 A 
ATOM      9  C   UNL     1       2.104   6.846  18.096  0.00  0.00    +0.000 A 
ATOM     10  C   UNL     1       1.962   8.233  18.144  0.00  0.00    +0.000 A 
ATOM     11  C   UNL     1       1.661   8.867  19.351  0.00  0.00    +0.000 A 
ATOM     12 CL   UNL     1       1.478  10.585  19.330  0.00  0.00    +0.000 Cl
ATOM     13  C   UNL     1       1.520   8.108  20.516  0.00  0.00    +0.000 A 
ATOM     14 CL   UNL     1       1.175   8.823  22.050  0.00  0.00    +0.000 Cl
ATOM     15  C   UNL     1       1.658   6.714  20.464  0.00  0.00    +0.000 A 
ENDBRANCH   7   8
BRANCH   2  16
ATOM     16  C   UNL     1       4.692   5.020  17.888  0.00  0.00    +0.000 C 
BRANCH  16  17
ATOM     17  C   UNL     1       5.091   4.237  16.641  0.00  0.00    +0.000 C 
BRANCH  17  18
ATOM     18  S   UNL     1       6.562   4.945  15.912  0.00  0.00    +0.000 S 
ATOM     19  O   UNL     1       6.256   6.329  15.604  0.00  0.00    +0.000 OA
ATOM     20  O   UNL     1       7.683   4.611  16.769  0.00  0.00    +0.000 OA
BRANCH  18  21
ATOM     21  C   UNL     1       6.755   4.093  14.356  0.00  0.00    +0.000 C 
ATOM     22  C   UNL     1       5.416   3.820  13.677  0.00  0.00    +0.000 C 
ATOM     23  C   UNL     1       5.802   3.470  12.247  0.00  0.00    +0.000 C 
ATOM     24  C   UNL     1       7.092   4.241  11.967  0.00  0.00    +0.000 C 
ATOM     25  C   UNL     1       7.519   4.870  13.295  0.00  0.00    +0.000 C 
ENDBRANCH  18  21
ENDBRANCH  17  18
ENDBRANCH  16  17
ENDBRANCH   2  16
TORSDOF 5
ENDMDL
MODEL 3
REMARK VINA RESULT:      -7.8      1.441      2.210
REMARK  Name = 
REMARK  5 active torsions:
REMARK  status: ('A' for Active; 'I' for Inactive)
REMARK    1  A    between atoms: C_2  and  C_3
REMARK    2  A    between atoms: C_3  and  C_4
REMARK    3  A    between atoms: C_4  and  S_5
REMARK    4  A    between atoms: S_5  and  C_8
REMARK    5  A    between atoms: C_17  and  C_18
REMARK                            x       y       z     vdW  Elec       q    Type
REMARK                         _______ _______ _______ _____ _____    ______ ____
ROOT
ATOM      1  O   UNL     1       5.280   2.756  20.512  0.00  0.00    +0.000 OA
ATOM      2  C   UNL     1       4.495   3.377  19.791  0.00  0.00    +0.000 C 
ATOM      3  N   UNL     1       3.146   3.444  20.079  0.00  0.00    +0.000 N 
ATOM      4  C   UNL     1       2.594   2.815  21.265  0.00  0.00    +0.000 C 
ATOM      5  C   UNL     1       1.203   2.385  20.842  0.00  0.00    +0.000 C 
ATOM      6  C   UNL     1       0.768   3.476  19.869  0.00  0.00    +0.000 C 
ATOM      7  C   UNL     1       2.075   3.980  19.229  0.00  0.00    +0.000 C 
ENDROOT
BRANCH   7   8
ATOM      8  C   UNL     1       2.092   5.492  19.118  0.00  0.00    +0.000 A 
ATOM      9  C   UNL     1       2.361   6.140  17.901  0.00  0.00    +0.000 A 
ATOM     10  C   UNL     1       2.328   7.531  17.807  0.00  0.00    +0.000 A 
ATOM     11  C   UNL     1       2.046   8.305  18.934  0.00  0.00    +0.000 A 
ATOM     12 CL   UNL     1       2.000  10.020  18.738  0.00  0.00    +0.000 Cl
ATOM     13  C   UNL     1       1.813   7.680  20.162  0.00  0.00    +0.000 A 
ATOM     14 CL   UNL     1       1.483   8.570  21.606  0.00  0.00    +0.000 Cl
ATOM     15  C   UNL     1       1.841   6.281  20.253  0.00  0.00    +0.000 A 
ENDBRANCH   7   8
BRANCH   2  16
ATOM     16  C   UNL     1       5.009   4.153  18.595  0.00  0.00    +0.000 C 
BRANCH  16  17
ATOM     17  C   UNL     1       5.734   5.424  19.027  0.00  0.00    +0.000 C 
BRANCH  17  18
ATOM     18  S   UNL     1       7.331   5.525  18.228  0.00  0.00    +0.000 S 
ATOM     19  O   UNL     1       7.935   6.776  18.647  0.00  0.00    +0.000 OA
ATOM     20  O   UNL     1       8.015   4.266  18.449  0.00  0.00    +0.000 OA
BRANCH  18  21
ATOM     21  C   UNL     1       6.961   5.679  16.489  0.00  0.00    +0.000 C 
ATOM     22  C   UNL     1       6.930   4.327  15.783  0.00  0.00    +0.000 C 
ATOM     23  C   UNL     1       6.231   4.625  14.465  0.00  0.00    +0.000 C 
ATOM     24  C   UNL     1       5.282   5.788  14.754  0.00  0.00    +0.000 C 
ATOM     25  C   UNL     1       5.587   6.253  16.178  0.00  0.00    +0.000 C 
ENDBRANCH  18  21
ENDBRANCH  17  18
ENDBRANCH  16  17
ENDBRANCH   2  16
TORSDOF 5
ENDMDL
MODEL 4
REMARK VINA RESULT:      -7.7      0.979      1.248
REMARK  Name = 
REMARK  5 active torsions:
REMARK  status: ('A' for Active; 'I' for Inactive)
REMARK    1  A    between atoms: C_2  and  C_3
REMARK    2  A    between atoms: C_3  and  C_4
REMARK    3  A    between atoms: C_4  and  S_5
REMARK    4  A    between atoms: S_5  and  C_8
REMARK    5  A    between atoms: C_17  and  C_18
REMARK                            x       y       z     vdW  Elec       q    Type
REMARK                         _______ _______ _______ _____ _____    ______ ____
ROOT
ATOM      1  O   UNL     1       5.212   2.927  20.134  0.00  0.00    +0.000 OA
ATOM      2  C   UNL     1       4.607   3.829  19.550  0.00  0.00    +0.000 C 
ATOM      3  N   UNL     1       3.289   3.686  19.166  0.00  0.00    +0.000 N 
ATOM      4  C   UNL     1       2.541   2.479  19.466  0.00  0.00    +0.000 C 
ATOM      5  C   UNL     1       1.589   2.334  18.295  0.00  0.00    +0.000 C 
ATOM      6  C   UNL     1       1.254   3.775  17.922  0.00  0.00    +0.000 C 
ATOM      7  C   UNL     1       2.503   4.586  18.311  0.00  0.00    +0.000 C 
ENDROOT
BRANCH   7   8
ATOM      8  C   UNL     1       2.129   5.889  18.989  0.00  0.00    +0.000 A 
ATOM      9  C   UNL     1       1.695   5.928  20.325  0.00  0.00    +0.000 A 
ATOM     10  C   UNL     1       1.398   7.141  20.947  0.00  0.00    +0.000 A 
ATOM     11  C   UNL     1       1.508   8.339  20.239  0.00  0.00    +0.000 A 
ATOM     12 CL   UNL     1       1.146   9.803  21.080  0.00  0.00    +0.000 Cl
ATOM     13  C   UNL     1       1.902   8.317  18.898  0.00  0.00    +0.000 A 
ATOM     14 CL   UNL     1       2.036   9.755  17.950  0.00  0.00    +0.000 Cl
ATOM     15  C   UNL     1       2.206   7.097  18.277  0.00  0.00    +0.000 A 
ENDBRANCH   7   8
BRANCH   2  16
ATOM     16  C   UNL     1       5.284   5.162  19.299  0.00  0.00    +0.000 C 
BRANCH  16  17
ATOM     17  C   UNL     1       6.797   5.058  19.467  0.00  0.00    +0.000 C 
BRANCH  17  18
ATOM     18  S   UNL     1       7.603   5.150  17.873  0.00  0.00    +0.000 S 
ATOM     19  O   UNL     1       8.016   6.528  17.687  0.00  0.00    +0.000 OA
ATOM     20  O   UNL     1       8.574   4.074  17.808  0.00  0.00    +0.000 OA
BRANCH  18  21
ATOM     21  C   UNL     1       6.308   4.826  16.688  0.00  0.00    +0.000 C 
ATOM     22  C   UNL     1       5.810   6.102  16.015  0.00  0.00    +0.000 C 
ATOM     23  C   UNL     1       5.035   5.592  14.808  0.00  0.00    +0.000 C 
ATOM     24  C   UNL     1       5.704   4.276  14.414  0.00  0.00    +0.000 C 
ATOM     25  C   UNL     1       6.727   3.963  15.508  0.00  0.00    +0.000 C 
ENDBRANCH  18  21
ENDBRANCH  17  18
ENDBRANCH  16  17
ENDBRANCH   2  16
TORSDOF 5
ENDMDL
MODEL 5
REMARK VINA RESULT:      -7.7      0.955      1.403
REMARK  Name = 
REMARK  5 active torsions:
REMARK  status: ('A' for Active; 'I' for Inactive)
REMARK    1  A    between atoms: C_2  and  C_3
REMARK    2  A    between atoms: C_3  and  C_4
REMARK    3  A    between atoms: C_4  and  S_5
REMARK    4  A    between atoms: S_5  and  C_8
REMARK    5  A    between atoms: C_17  and  C_18
REMARK                            x       y       z     vdW  Elec       q    Type
REMARK                         _______ _______ _______ _____ _____    ______ ____
ROOT
ATOM      1  O   UNL     1       5.959   3.649  19.427  0.00  0.00    +0.000 OA
ATOM      2  C   UNL     1       5.043   4.343  18.979  0.00  0.00    +0.000 C 
ATOM      3  N   UNL     1       3.723   3.955  19.086  0.00  0.00    +0.000 N 
ATOM      4  C   UNL     1       3.347   2.728  19.764  0.00  0.00    +0.000 C 
ATOM      5  C   UNL     1       2.120   2.250  19.012  0.00  0.00    +0.000 C 
ATOM      6  C   UNL     1       1.421   3.543  18.605  0.00  0.00    +0.000 C 
ATOM      7  C   UNL     1       2.553   4.574  18.447  0.00  0.00    +0.000 C 
ENDROOT
BRANCH   7   8
ATOM      8  C   UNL     1       2.174   5.912  19.051  0.00  0.00    +0.000 A 
ATOM      9  C   UNL     1       1.784   6.032  20.395  0.00  0.00    +0.000 A 
ATOM     10  C   UNL     1       1.482   7.278  20.945  0.00  0.00    +0.000 A 
ATOM     11  C   UNL     1       1.542   8.427  20.157  0.00  0.00    +0.000 A 
ATOM     12 CL   UNL     1       1.176   9.937  20.911  0.00  0.00    +0.000 Cl
ATOM     13  C   UNL     1       1.890   8.324  18.807  0.00  0.00    +0.000 A 
ATOM     14 CL   UNL     1       1.961   9.698  17.762  0.00  0.00    +0.000 Cl
ATOM     15  C   UNL     1       2.200   7.071  18.258  0.00  0.00    +0.000 A 
ENDBRANCH   7   8
BRANCH   2  16
ATOM     16  C   UNL     1       5.343   5.691  18.355  0.00  0.00    +0.000 C 
BRANCH  16  17
ATOM     17  C   UNL     1       5.229   5.638  16.834  0.00  0.00    +0.000 C 
BRANCH  17  18
ATOM     18  S   UNL     1       6.846   5.422  16.101  0.00  0.00    +0.000 S 
ATOM     19  O   UNL     1       7.532   6.696  16.209  0.00  0.00    +0.000 OA
ATOM     20  O   UNL     1       7.429   4.221  16.666  0.00  0.00    +0.000 OA
BRANCH  18  21
ATOM     21  C   UNL     1       6.527   5.145  14.367  0.00  0.00    +0.000 C 
ATOM     22  C   UNL     1       7.804   5.173  13.533  0.00  0.00    +0.000 C 
ATOM     23  C   UNL     1       7.386   4.541  12.213  0.00  0.00    +0.000 C 
ATOM     24  C   UNL     1       6.267   3.561  12.561  0.00  0.00    +0.000 C 
ATOM     25  C   UNL     1       5.939   3.781  14.038  0.00  0.00    +0.000 C 
ENDBRANCH  18  21
ENDBRANCH  17  18
ENDBRANCH  16  17
ENDBRANCH   2  16
TORSDOF 5
ENDMDL
MODEL 6
REMARK VINA RESULT:      -7.7      1.703      3.043
REMARK  Name = 
REMARK  5 active torsions:
REMARK  status: ('A' for Active; 'I' for Inactive)
REMARK    1  A    between atoms: C_2  and  C_3
REMARK    2  A    between atoms: C_3  and  C_4
REMARK    3  A    between atoms: C_4  and  S_5
REMARK    4  A    between atoms: S_5  and  C_8
REMARK    5  A    between atoms: C_17  and  C_18
REMARK                            x       y       z     vdW  Elec       q    Type
REMARK                         _______ _______ _______ _____ _____    ______ ____
ROOT
ATOM      1  O   UNL     1       5.174   2.723  19.083  0.00  0.00    +0.000 OA
ATOM      2  C   UNL     1       4.194   3.406  18.773  0.00  0.00    +0.000 C 
ATOM      3  N   UNL     1       3.116   3.551  19.623  0.00  0.00    +0.000 N 
ATOM      4  C   UNL     1       3.101   2.937  20.938  0.00  0.00    +0.000 C 
ATOM      5  C   UNL     1       1.641   2.603  21.173  0.00  0.00    +0.000 C 
ATOM      6  C   UNL     1       0.895   3.737  20.478  0.00  0.00    +0.000 C 
ATOM      7  C   UNL     1       1.818   4.169  19.324  0.00  0.00    +0.000 C 
ENDROOT
BRANCH   7   8
ATOM      8  C   UNL     1       1.882   5.680  19.201  0.00  0.00    +0.000 A 
ATOM      9  C   UNL     1       2.160   6.309  17.976  0.00  0.00    +0.000 A 
ATOM     10  C   UNL     1       2.170   7.700  17.871  0.00  0.00    +0.000 A 
ATOM     11  C   UNL     1       1.924   8.491  18.994  0.00  0.00    +0.000 A 
ATOM     12 CL   UNL     1       1.931  10.205  18.784  0.00  0.00    +0.000 Cl
ATOM     13  C   UNL     1       1.684   7.883  20.229  0.00  0.00    +0.000 A 
ATOM     14 CL   UNL     1       1.397   8.795  21.669  0.00  0.00    +0.000 Cl
ATOM     15  C   UNL     1       1.667   6.485  20.331  0.00  0.00    +0.000 A 
ENDBRANCH   7   8
BRANCH   2  16
ATOM     16  C   UNL     1       4.180   4.170  17.464  0.00  0.00    +0.000 C 
BRANCH  16  17
ATOM     17  C   UNL     1       5.338   3.751  16.563  0.00  0.00    +0.000 C 
BRANCH  17  18
ATOM     18  S   UNL     1       6.226   5.193  15.989  0.00  0.00    +0.000 S 
ATOM     19  O   UNL     1       7.454   4.718  15.379  0.00  0.00    +0.000 OA
ATOM     20  O   UNL     1       5.297   6.011  15.234  0.00  0.00    +0.000 OA
BRANCH  18  21
ATOM     21  C   UNL     1       6.685   6.068  17.475  0.00  0.00    +0.000 C 
ATOM     22  C   UNL     1       7.549   5.218  18.402  0.00  0.00    +0.000 C 
ATOM     23  C   UNL     1       8.143   6.231  19.370  0.00  0.00    +0.000 C 
ATOM     24  C   UNL     1       8.247   7.539  18.586  0.00  0.00    +0.000 C 
ATOM     25  C   UNL     1       7.545   7.301  17.248  0.00  0.00    +0.000 C 
ENDBRANCH  18  21
ENDBRANCH  17  18
ENDBRANCH  16  17
ENDBRANCH   2  16
TORSDOF 5
ENDMDL
MODEL 7
REMARK VINA RESULT:      -7.6      1.117      1.943
REMARK  Name = 
REMARK  5 active torsions:
REMARK  status: ('A' for Active; 'I' for Inactive)
REMARK    1  A    between atoms: C_2  and  C_3
REMARK    2  A    between atoms: C_3  and  C_4
REMARK    3  A    between atoms: C_4  and  S_5
REMARK    4  A    between atoms: S_5  and  C_8
REMARK    5  A    between atoms: C_17  and  C_18
REMARK                            x       y       z     vdW  Elec       q    Type
REMARK                         _______ _______ _______ _____ _____    ______ ____
ROOT
ATOM      1  O   UNL     1       5.436   3.183  19.987  0.00  0.00    +0.000 OA
ATOM      2  C   UNL     1       4.691   3.876  19.290  0.00  0.00    +0.000 C 
ATOM      3  N   UNL     1       3.317   3.770  19.373  0.00  0.00    +0.000 N 
ATOM      4  C   UNL     1       2.684   2.863  20.312  0.00  0.00    +0.000 C 
ATOM      5  C   UNL     1       1.419   2.419  19.602  0.00  0.00    +0.000 C 
ATOM      6  C   UNL     1       1.001   3.653  18.807  0.00  0.00    +0.000 C 
ATOM      7  C   UNL     1       2.317   4.385  18.489  0.00  0.00    +0.000 C 
ENDROOT
BRANCH   7   8
ATOM      8  C   UNL     1       2.180   5.882  18.682  0.00  0.00    +0.000 A 
ATOM      9  C   UNL     1       2.331   6.781  17.613  0.00  0.00    +0.000 A 
ATOM     10  C   UNL     1       2.157   8.152  17.799  0.00  0.00    +0.000 A 
ATOM     11  C   UNL     1       1.849   8.656  19.064  0.00  0.00    +0.000 A 
ATOM     12 CL   UNL     1       1.625  10.362  19.216  0.00  0.00    +0.000 Cl
ATOM     13  C   UNL     1       1.732   7.781  20.148  0.00  0.00    +0.000 A 
ATOM     14 CL   UNL     1       1.379   8.331  21.747  0.00  0.00    +0.000 Cl
ATOM     15  C   UNL     1       1.902   6.402  19.957  0.00  0.00    +0.000 A 
ENDBRANCH   7   8
BRANCH   2  16
ATOM     16  C   UNL     1       5.272   4.926  18.364  0.00  0.00    +0.000 C 
BRANCH  16  17
ATOM     17  C   UNL     1       5.386   4.406  16.935  0.00  0.00    +0.000 C 
BRANCH  17  18
ATOM     18  S   UNL     1       6.746   5.206  16.093  0.00  0.00    +0.000 S 
ATOM     19  O   UNL     1       6.643   6.625  16.377  0.00  0.00    +0.000 OA
ATOM     20  O   UNL     1       7.956   4.476  16.416  0.00  0.00    +0.000 OA
BRANCH  18  21
ATOM     21  C   UNL     1       6.394   4.994  14.356  0.00  0.00    +0.000 C 
ATOM     22  C   UNL     1       7.660   5.013  13.504  0.00  0.00    +0.000 C 
ATOM     23  C   UNL     1       7.206   4.437  12.171  0.00  0.00    +0.000 C 
ATOM     24  C   UNL     1       6.064   3.477  12.504  0.00  0.00    +0.000 C 
ATOM     25  C   UNL     1       5.764   3.659  13.992  0.00  0.00    +0.000 C 
ENDBRANCH  18  21
ENDBRANCH  17  18
ENDBRANCH  16  17
ENDBRANCH   2  16
TORSDOF 5
ENDMDL
MODEL 8
REMARK VINA RESULT:      -7.5      1.199      1.351
REMARK  Name = 
REMARK  5 active torsions:
REMARK  status: ('A' for Active; 'I' for Inactive)
REMARK    1  A    between atoms: C_2  and  C_3
REMARK    2  A    between atoms: C_3  and  C_4
REMARK    3  A    between atoms: C_4  and  S_5
REMARK    4  A    between atoms: S_5  and  C_8
REMARK    5  A    between atoms: C_17  and  C_18
REMARK                            x       y       z     vdW  Elec       q    Type
REMARK                         _______ _______ _______ _____ _____    ______ ____
ROOT
ATOM      1  O   UNL     1       5.569   3.548  19.540  0.00  0.00    +0.000 OA
ATOM      2  C   UNL     1       4.571   4.170  19.165  0.00  0.00    +0.000 C 
ATOM      3  N   UNL     1       3.322   3.920  19.696  0.00  0.00    +0.000 N 
ATOM      4  C   UNL     1       3.129   2.938  20.747  0.00  0.00    +0.000 C 
ATOM      5  C   UNL     1       1.747   2.375  20.479  0.00  0.00    +0.000 C 
ATOM      6  C   UNL     1       0.972   3.569  19.930  0.00  0.00    +0.000 C 
ATOM      7  C   UNL     1       2.030   4.439  19.227  0.00  0.00    +0.000 C 
ENDROOT
BRANCH   7   8
ATOM      8  C   UNL     1       1.826   5.911  19.526  0.00  0.00    +0.000 A 
ATOM      9  C   UNL     1       1.442   6.358  20.801  0.00  0.00    +0.000 A 
ATOM     10  C   UNL     1       1.302   7.720  21.071  0.00  0.00    +0.000 A 
ATOM     11  C   UNL     1       1.523   8.662  20.066  0.00  0.00    +0.000 A 
ATOM     12 CL   UNL     1       1.354  10.330  20.478  0.00  0.00    +0.000 Cl
ATOM     13  C   UNL     1       1.869   8.234  18.780  0.00  0.00    +0.000 A 
ATOM     14 CL   UNL     1       2.133   9.338  17.478  0.00  0.00    +0.000 Cl
ATOM     15  C   UNL     1       2.014   6.865  18.513  0.00  0.00    +0.000 A 
ENDBRANCH   7   8
BRANCH   2  16
ATOM     16  C   UNL     1       4.706   5.287  18.150  0.00  0.00    +0.000 C 
BRANCH  16  17
ATOM     17  C   UNL     1       4.802   4.740  16.729  0.00  0.00    +0.000 C 
BRANCH  17  18
ATOM     18  S   UNL     1       6.115   5.563  15.838  0.00  0.00    +0.000 S 
ATOM     19  O   UNL     1       5.537   6.747  15.231  0.00  0.00    +0.000 OA
ATOM     20  O   UNL     1       7.252   5.673  16.731  0.00  0.00    +0.000 OA
BRANCH  18  21
ATOM     21  C   UNL     1       6.535   4.446  14.511  0.00  0.00    +0.000 C 
ATOM     22  C   UNL     1       5.304   3.977  13.741  0.00  0.00    +0.000 C 
ATOM     23  C   UNL     1       5.882   3.387  12.462  0.00  0.00    +0.000 C 
ATOM     24  C   UNL     1       7.172   4.162  12.197  0.00  0.00    +0.000 C 
ATOM     25  C   UNL     1       7.404   5.052  13.419  0.00  0.00    +0.000 C 
ENDBRANCH  18  21
ENDBRANCH  17  18
ENDBRANCH  16  17
ENDBRANCH   2  16
TORSDOF 5
ENDMDL
MODEL 9
REMARK VINA RESULT:      -7.5      1.016      1.683
REMARK  Name = 
REMARK  5 active torsions:
REMARK  status: ('A' for Active; 'I' for Inactive)
REMARK    1  A    between atoms: C_2  and  C_3
REMARK    2  A    between atoms: C_3  and  C_4
REMARK    3  A    between atoms: C_4  and  S_5
REMARK    4  A    between atoms: S_5  and  C_8
REMARK    5  A    between atoms: C_17  and  C_18
REMARK                            x       y       z     vdW  Elec       q    Type
REMARK                         _______ _______ _______ _____ _____    ______ ____
ROOT
ATOM      1  O   UNL     1       5.162   3.504  19.915  0.00  0.00    +0.000 OA
ATOM      2  C   UNL     1       4.592   4.325  19.192  0.00  0.00    +0.000 C 
ATOM      3  N   UNL     1       3.250   4.214  18.890  0.00  0.00    +0.000 N 
ATOM      4  C   UNL     1       2.437   3.145  19.439  0.00  0.00    +0.000 C 
ATOM      5  C   UNL     1       1.420   2.857  18.351  0.00  0.00    +0.000 C 
ATOM      6  C   UNL     1       1.166   4.225  17.725  0.00  0.00    +0.000 C 
ATOM      7  C   UNL     1       2.485   4.996  17.909  0.00  0.00    +0.000 C 
ENDROOT
BRANCH   7   8
ATOM      8  C   UNL     1       2.235   6.428  18.341  0.00  0.00    +0.000 A 
ATOM      9  C   UNL     1       2.293   7.495  17.429  0.00  0.00    +0.000 A 
ATOM     10  C   UNL     1       2.015   8.801  17.835  0.00  0.00    +0.000 A 
ATOM     11  C   UNL     1       1.696   9.069  19.167  0.00  0.00    +0.000 A 
ATOM     12 CL   UNL     1       1.343  10.706  19.592  0.00  0.00    +0.000 Cl
ATOM     13  C   UNL     1       1.672   8.026  20.097  0.00  0.00    +0.000 A 
ATOM     14 CL   UNL     1       1.311   8.285  21.767  0.00  0.00    +0.000 Cl
ATOM     15  C   UNL     1       1.945   6.714  19.685  0.00  0.00    +0.000 A 
ENDBRANCH   7   8
BRANCH   2  16
ATOM     16  C   UNL     1       5.344   5.533  18.670  0.00  0.00    +0.000 C 
BRANCH  16  17
ATOM     17  C   UNL     1       5.420   5.524  17.146  0.00  0.00    +0.000 C 
BRANCH  17  18
ATOM     18  S   UNL     1       7.115   5.323  16.612  0.00  0.00    +0.000 S 
ATOM     19  O   UNL     1       7.611   6.643  16.274  0.00  0.00    +0.000 OA
ATOM     20  O   UNL     1       7.795   4.512  17.604  0.00  0.00    +0.000 OA
BRANCH  18  21
ATOM     21  C   UNL     1       7.007   4.398  15.090  0.00  0.00    +0.000 C 
ATOM     22  C   UNL     1       5.562   4.122  14.684  0.00  0.00    +0.000 C 
ATOM     23  C   UNL     1       5.673   3.701  13.225  0.00  0.00    +0.000 C 
ATOM     24  C   UNL     1       6.898   4.432  12.676  0.00  0.00    +0.000 C 
ATOM     25  C   UNL     1       7.570   5.110  13.870  0.00  0.00    +0.000 C 
ENDBRANCH  18  21
ENDBRANCH  17  18
ENDBRANCH  16  17
ENDBRANCH   2  16
TORSDOF 5
ENDMDL
