MODEL 1
REMARK VINA RESULT:      -7.5      0.000      0.000
REMARK  Name = 
REMARK  3 active torsions:
REMARK  status: ('A' for Active; 'I' for Inactive)
REMARK    1  A    between atoms: C_2  and  C_3
REMARK    2  A    between atoms: C_3  and  C_4
REMARK    3  A    between atoms: C_14  and  N_15
REMARK                            x       y       z     vdW  Elec       q    Type
REMARK                         _______ _______ _______ _____ _____    ______ ____
ROOT
ATOM      1  O   UNL     1       2.192   9.669  17.401  0.00  0.00    +0.000 OA
ATOM      2  C   UNL     1       1.865   9.015  18.396  0.00  0.00    +0.000 C 
ATOM      3  N   UNL     1       2.417   7.767  18.680  0.00  0.00    +0.000 N 
ATOM      4  C   UNL     1       1.895   6.879  19.718  0.00  0.00    +0.000 C 
ATOM      5  C   UNL     1       2.978   6.015  20.342  0.00  0.00    +0.000 C 
ATOM      6  C   UNL     1       3.892   5.329  19.325  0.00  0.00    +0.000 C 
ATOM      7  C   UNL     1       4.366   6.304  18.245  0.00  0.00    +0.000 C 
ATOM      8  C   UNL     1       3.249   7.148  17.651  0.00  0.00    +0.000 C 
ENDROOT
BRANCH   6   9
ATOM      9  N   UNL     1       3.365   4.062  18.806  0.00  0.00    +0.000 N 
ATOM     10  C   UNL     1       3.956   2.853  19.085  0.00  0.00    +0.000 C 
ATOM     11  O   UNL     1       4.951   2.662  19.772  0.00  0.00    +0.000 OA
ATOM     12  C   UNL     1       3.172   1.747  18.404  0.00  0.00    +0.000 C 
ATOM     13  N   UNL     1       2.153   2.514  17.761  0.00  0.00    +0.000 N 
ATOM     14  C   UNL     1       2.284   3.860  18.000  0.00  0.00    +0.000 C 
ATOM     15  O   UNL     1       1.507   4.668  17.525  0.00  0.00    +0.000 OA
ATOM     16  H   UNL     1       1.405   2.158  17.179  0.00  0.00    +0.000 HD
ENDBRANCH   6   9
BRANCH   2  17
ATOM     17  C   UNL     1       0.868   9.601  19.387  0.00  0.00    +0.000 C 
BRANCH  17  18
ATOM     18  C   UNL     1      -0.420  10.076  18.749  0.00  0.00    +0.000 A 
ATOM     19  C   UNL     1      -0.891   9.509  17.554  0.00  0.00    +0.000 A 
ATOM     20  C   UNL     1      -2.085   9.947  16.982  0.00  0.00    +0.000 A 
ATOM     21  C   UNL     1      -2.828  10.943  17.610  0.00  0.00    +0.000 A 
ATOM     22 BR   UNL     1      -4.454  11.524  16.843  0.00  0.00    +0.000 Br
ATOM     23  C   UNL     1      -2.385  11.506  18.805  0.00  0.00    +0.000 A 
ATOM     24  C   UNL     1      -1.186  11.070  19.375  0.00  0.00    +0.000 A 
ENDBRANCH  17  18
ENDBRANCH   2  17
TORSDOF 3
ENDMDL
MODEL 2
REMARK VINA RESULT:      -7.1      2.308      3.065
REMARK  Name = 
REMARK  3 active torsions:
REMARK  status: ('A' for Active; 'I' for Inactive)
REMARK    1  A    between atoms: C_2  and  C_3
REMARK    2  A    between atoms: C_3  and  C_4
REMARK    3  A    between atoms: C_14  and  N_15
REMARK                            x       y       z     vdW  Elec       q    Type
REMARK                         _______ _______ _______ _____ _____    ______ ____
ROOT
ATOM      1  O   UNL     1       1.448   8.682  20.606  0.00  0.00    +0.000 OA
ATOM      2  C   UNL     1       1.737   8.112  19.550  0.00  0.00    +0.000 C 
ATOM      3  N   UNL     1       1.851   6.725  19.460  0.00  0.00    +0.000 N 
ATOM      4  C   UNL     1       2.404   6.043  18.291  0.00  0.00    +0.000 C 
ATOM      5  C   UNL     1       1.791   4.669  18.078  0.00  0.00    +0.000 C 
ATOM      6  C   UNL     1       1.732   3.808  19.341  0.00  0.00    +0.000 C 
ATOM      7  C   UNL     1       1.187   4.597  20.534  0.00  0.00    +0.000 C 
ATOM      8  C   UNL     1       1.828   5.966  20.707  0.00  0.00    +0.000 C 
ENDROOT
BRANCH   6   9
ATOM      9  N   UNL     1       2.968   3.069  19.619  0.00  0.00    +0.000 N 
ATOM     10  C   UNL     1       3.243   2.542  20.858  0.00  0.00    +0.000 C 
ATOM     11  O   UNL     1       2.537   2.602  21.857  0.00  0.00    +0.000 OA
ATOM     12  C   UNL     1       4.589   1.843  20.814  0.00  0.00    +0.000 C 
ATOM     13  N   UNL     1       4.956   2.080  19.454  0.00  0.00    +0.000 N 
ATOM     14  C   UNL     1       4.005   2.800  18.775  0.00  0.00    +0.000 C 
ATOM     15  O   UNL     1       4.151   3.101  17.605  0.00  0.00    +0.000 OA
ATOM     16  H   UNL     1       5.809   1.782  18.997  0.00  0.00    +0.000 HD
ENDBRANCH   6   9
BRANCH   2  17
ATOM     17  C   UNL     1       1.920   8.931  18.279  0.00  0.00    +0.000 C 
BRANCH  17  18
ATOM     18  C   UNL     1       1.413  10.353  18.390  0.00  0.00    +0.000 A 
ATOM     19  C   UNL     1       0.051  10.624  18.600  0.00  0.00    +0.000 A 
ATOM     20  C   UNL     1      -0.402  11.939  18.711  0.00  0.00    +0.000 A 
ATOM     21  C   UNL     1       0.505  12.992  18.633  0.00  0.00    +0.000 A 
ATOM     22 BR   UNL     1      -0.109  14.771  18.801  0.00  0.00    +0.000 Br
ATOM     23  C   UNL     1       1.862  12.741  18.441  0.00  0.00    +0.000 A 
ATOM     24  C   UNL     1       2.315  11.425  18.324  0.00  0.00    +0.000 A 
ENDBRANCH  17  18
ENDBRANCH   2  17
TORSDOF 3
ENDMDL
MODEL 3
REMARK VINA RESULT:      -7.1      1.727      2.758
REMARK  Name = 
REMARK  3 active torsions:
REMARK  status: ('A' for Active; 'I' for Inactive)
REMARK    1  A    between atoms: C_2  and  C_3
REMARK    2  A    between atoms: C_3  and  C_4
REMARK    3  A    between atoms: C_14  and  N_15
REMARK                            x       y       z     vdW  Elec       q    Type
REMARK                         _______ _______ _______ _____ _____    ______ ____
ROOT
ATOM      1  O   UNL     1       0.724   8.534  21.652  0.00  0.00    +0.000 OA
ATOM      2  C   UNL     1       1.209   8.670  20.525  0.00  0.00    +0.000 C 
ATOM      3  N   UNL     1       1.751   7.601  19.813  0.00  0.00    +0.000 N 
ATOM      4  C   UNL     1       2.525   7.768  18.584  0.00  0.00    +0.000 C 
ATOM      5  C   UNL     1       2.375   6.588  17.639  0.00  0.00    +0.000 C 
ATOM      6  C   UNL     1       2.545   5.224  18.311  0.00  0.00    +0.000 C 
ATOM      7  C   UNL     1       1.744   5.134  19.612  0.00  0.00    +0.000 C 
ATOM      8  C   UNL     1       1.923   6.337  20.525  0.00  0.00    +0.000 C 
ENDROOT
BRANCH   6   9
ATOM      9  N   UNL     1       3.939   4.785  18.428  0.00  0.00    +0.000 N 
ATOM     10  C   UNL     1       4.934   5.281  17.620  0.00  0.00    +0.000 C 
ATOM     11  O   UNL     1       4.813   6.118  16.734  0.00  0.00    +0.000 OA
ATOM     12  C   UNL     1       6.251   4.628  17.994  0.00  0.00    +0.000 C 
ATOM     13  N   UNL     1       5.820   3.764  19.047  0.00  0.00    +0.000 N 
ATOM     14  C   UNL     1       4.470   3.864  19.282  0.00  0.00    +0.000 C 
ATOM     15  O   UNL     1       3.924   3.195  20.140  0.00  0.00    +0.000 OA
ATOM     16  H   UNL     1       6.397   3.128  19.582  0.00  0.00    +0.000 HD
ENDBRANCH   6   9
BRANCH   2  17
ATOM     17  C   UNL     1       1.171  10.035  19.850  0.00  0.00    +0.000 C 
BRANCH  17  18
ATOM     18  C   UNL     1      -0.156  10.356  19.194  0.00  0.00    +0.000 A 
ATOM     19  C   UNL     1      -1.056  11.260  19.780  0.00  0.00    +0.000 A 
ATOM     20  C   UNL     1      -2.271  11.555  19.161  0.00  0.00    +0.000 A 
ATOM     21  C   UNL     1      -2.586  10.964  17.941  0.00  0.00    +0.000 A 
ATOM     22 BR   UNL     1      -4.224  11.378  17.095  0.00  0.00    +0.000 Br
ATOM     23  C   UNL     1      -1.698  10.076  17.336  0.00  0.00    +0.000 A 
ATOM     24  C   UNL     1      -0.484   9.777  17.959  0.00  0.00    +0.000 A 
ENDBRANCH  17  18
ENDBRANCH   2  17
TORSDOF 3
ENDMDL
MODEL 4
REMARK VINA RESULT:      -7.1      1.710      2.046
REMARK  Name = 
REMARK  3 active torsions:
REMARK  status: ('A' for Active; 'I' for Inactive)
REMARK    1  A    between atoms: C_2  and  C_3
REMARK    2  A    between atoms: C_3  and  C_4
REMARK    3  A    between atoms: C_14  and  N_15
REMARK                            x       y       z     vdW  Elec       q    Type
REMARK                         _______ _______ _______ _____ _____    ______ ____
ROOT
ATOM      1  O   UNL     1       2.172   9.350  17.435  0.00  0.00    +0.000 OA
ATOM      2  C   UNL     1       1.840   8.688  18.423  0.00  0.00    +0.000 C 
ATOM      3  N   UNL     1       2.408   7.449  18.714  0.00  0.00    +0.000 N 
ATOM      4  C   UNL     1       1.884   6.550  19.742  0.00  0.00    +0.000 C 
ATOM      5  C   UNL     1       2.972   5.703  20.381  0.00  0.00    +0.000 C 
ATOM      6  C   UNL     1       3.913   5.034  19.378  0.00  0.00    +0.000 C 
ATOM      7  C   UNL     1       4.387   6.019  18.307  0.00  0.00    +0.000 C 
ATOM      8  C   UNL     1       3.266   6.846  17.697  0.00  0.00    +0.000 C 
ENDROOT
BRANCH   6   9
ATOM      9  N   UNL     1       3.414   3.760  18.848  0.00  0.00    +0.000 N 
ATOM     10  C   UNL     1       3.997   2.556  19.165  0.00  0.00    +0.000 C 
ATOM     11  O   UNL     1       4.961   2.377  19.898  0.00  0.00    +0.000 OA
ATOM     12  C   UNL     1       3.249   1.441  18.461  0.00  0.00    +0.000 C 
ATOM     13  N   UNL     1       2.257   2.196  17.764  0.00  0.00    +0.000 N 
ATOM     14  C   UNL     1       2.372   3.545  17.996  0.00  0.00    +0.000 C 
ATOM     15  O   UNL     1       1.614   4.344  17.479  0.00  0.00    +0.000 OA
ATOM     16  H   UNL     1       1.537   1.831  17.153  0.00  0.00    +0.000 HD
ENDBRANCH   6   9
BRANCH   2  17
ATOM     17  C   UNL     1       0.819   9.256  19.400  0.00  0.00    +0.000 C 
BRANCH  17  18
ATOM     18  C   UNL     1       0.581  10.743  19.240  0.00  0.00    +0.000 A 
ATOM     19  C   UNL     1      -0.522  11.229  18.520  0.00  0.00    +0.000 A 
ATOM     20  C   UNL     1      -0.736  12.601  18.389  0.00  0.00    +0.000 A 
ATOM     21  C   UNL     1       0.140  13.498  18.993  0.00  0.00    +0.000 A 
ATOM     22 BR   UNL     1      -0.161  15.356  18.828  0.00  0.00    +0.000 Br
ATOM     23  C   UNL     1       1.231  13.034  19.724  0.00  0.00    +0.000 A 
ATOM     24  C   UNL     1       1.448  11.660  19.852  0.00  0.00    +0.000 A 
ENDBRANCH  17  18
ENDBRANCH   2  17
TORSDOF 3
ENDMDL
MODEL 5
REMARK VINA RESULT:      -7.0      1.741      2.185
REMARK  Name = 
REMARK  3 active torsions:
REMARK  status: ('A' for Active; 'I' for Inactive)
REMARK    1  A    between atoms: C_2  and  C_3
REMARK    2  A    between atoms: C_3  and  C_4
REMARK    3  A    between atoms: C_14  and  N_15
REMARK                            x       y       z     vdW  Elec       q    Type
REMARK                         _______ _______ _______ _____ _____    ______ ____
ROOT
ATOM      1  O   UNL     1       2.162   9.455  17.495  0.00  0.00    +0.000 OA
ATOM      2  C   UNL     1       1.824   8.785  18.476  0.00  0.00    +0.000 C 
ATOM      3  N   UNL     1       2.390   7.543  18.760  0.00  0.00    +0.000 N 
ATOM      4  C   UNL     1       1.860   6.636  19.777  0.00  0.00    +0.000 C 
ATOM      5  C   UNL     1       2.944   5.783  20.415  0.00  0.00    +0.000 C 
ATOM      6  C   UNL     1       3.890   5.121  19.411  0.00  0.00    +0.000 C 
ATOM      7  C   UNL     1       4.370   6.115  18.351  0.00  0.00    +0.000 C 
ATOM      8  C   UNL     1       3.253   6.948  17.742  0.00  0.00    +0.000 C 
ENDROOT
BRANCH   6   9
ATOM      9  N   UNL     1       3.393   3.852  18.868  0.00  0.00    +0.000 N 
ATOM     10  C   UNL     1       3.994   2.649  19.151  0.00  0.00    +0.000 C 
ATOM     11  O   UNL     1       4.975   2.466  19.860  0.00  0.00    +0.000 OA
ATOM     12  C   UNL     1       3.243   1.539  18.442  0.00  0.00    +0.000 C 
ATOM     13  N   UNL     1       2.229   2.296  17.780  0.00  0.00    +0.000 N 
ATOM     14  C   UNL     1       2.335   3.642  18.034  0.00  0.00    +0.000 C 
ATOM     15  O   UNL     1       1.559   4.443  17.547  0.00  0.00    +0.000 OA
ATOM     16  H   UNL     1       1.501   1.936  17.177  0.00  0.00    +0.000 HD
ENDBRANCH   6   9
BRANCH   2  17
ATOM     17  C   UNL     1       0.798   9.346  19.452  0.00  0.00    +0.000 C 
BRANCH  17  18
ATOM     18  C   UNL     1       0.576  10.837  19.316  0.00  0.00    +0.000 A 
ATOM     19  C   UNL     1       1.445  11.759  19.922  0.00  0.00    +0.000 A 
ATOM     20  C   UNL     1       1.236  13.131  19.780  0.00  0.00    +0.000 A 
ATOM     21  C   UNL     1       0.169  13.592  19.015  0.00  0.00    +0.000 A 
ATOM     22 BR   UNL     1      -0.103  15.451  18.810  0.00  0.00    +0.000 Br
ATOM     23  C   UNL     1      -0.694  12.693  18.393  0.00  0.00    +0.000 A 
ATOM     24  C   UNL     1      -0.488  11.318  18.539  0.00  0.00    +0.000 A 
ENDBRANCH  17  18
ENDBRANCH   2  17
TORSDOF 3
ENDMDL
MODEL 6
REMARK VINA RESULT:      -7.0      1.960      2.933
REMARK  Name = 
REMARK  3 active torsions:
REMARK  status: ('A' for Active; 'I' for Inactive)
REMARK    1  A    between atoms: C_2  and  C_3
REMARK    2  A    between atoms: C_3  and  C_4
REMARK    3  A    between atoms: C_14  and  N_15
REMARK                            x       y       z     vdW  Elec       q    Type
REMARK                         _______ _______ _______ _____ _____    ______ ____
ROOT
ATOM      1  O   UNL     1       0.731   8.294  20.882  0.00  0.00    +0.000 OA
ATOM      2  C   UNL     1       1.370   8.644  19.885  0.00  0.00    +0.000 C 
ATOM      3  N   UNL     1       2.198   7.767  19.186  0.00  0.00    +0.000 N 
ATOM      4  C   UNL     1       3.129   8.203  18.147  0.00  0.00    +0.000 C 
ATOM      5  C   UNL     1       3.344   7.144  17.079  0.00  0.00    +0.000 C 
ATOM      6  C   UNL     1       3.627   5.747  17.633  0.00  0.00    +0.000 C 
ATOM      7  C   UNL     1       2.644   5.373  18.745  0.00  0.00    +0.000 C 
ATOM      8  C   UNL     1       2.459   6.463  19.790  0.00  0.00    +0.000 C 
ENDROOT
BRANCH   6   9
ATOM      9  N   UNL     1       5.035   5.509  17.966  0.00  0.00    +0.000 N 
ATOM     10  C   UNL     1       6.058   6.188  17.348  0.00  0.00    +0.000 C 
ATOM     11  O   UNL     1       5.954   7.045  16.480  0.00  0.00    +0.000 OA
ATOM     12  C   UNL     1       7.383   5.714  17.915  0.00  0.00    +0.000 C 
ATOM     13  N   UNL     1       6.926   4.741  18.856  0.00  0.00    +0.000 N 
ATOM     14  C   UNL     1       5.558   4.630  18.868  0.00  0.00    +0.000 C 
ATOM     15  O   UNL     1       4.991   3.844  19.604  0.00  0.00    +0.000 OA
ATOM     16  H   UNL     1       7.501   4.168  19.460  0.00  0.00    +0.000 HD
ENDBRANCH   6   9
BRANCH   2  17
ATOM     17  C   UNL     1       1.216  10.063  19.353  0.00  0.00    +0.000 C 
BRANCH  17  18
ATOM     18  C   UNL     1      -0.166  10.366  18.814  0.00  0.00    +0.000 A 
ATOM     19  C   UNL     1      -0.669   9.697  17.686  0.00  0.00    +0.000 A 
ATOM     20  C   UNL     1      -1.948   9.977  17.204  0.00  0.00    +0.000 A 
ATOM     21  C   UNL     1      -2.742  10.915  17.858  0.00  0.00    +0.000 A 
ATOM     22 BR   UNL     1      -4.480  11.281  17.215  0.00  0.00    +0.000 Br
ATOM     23  C   UNL     1      -2.267  11.577  18.988  0.00  0.00    +0.000 A 
ATOM     24  C   UNL     1      -0.984  11.300  19.468  0.00  0.00    +0.000 A 
ENDBRANCH  17  18
ENDBRANCH   2  17
TORSDOF 3
ENDMDL
MODEL 7
REMARK VINA RESULT:      -7.0      5.381      7.712
REMARK  Name = 
REMARK  3 active torsions:
REMARK  status: ('A' for Active; 'I' for Inactive)
REMARK    1  A    between atoms: C_2  and  C_3
REMARK    2  A    between atoms: C_3  and  C_4
REMARK    3  A    between atoms: C_14  and  N_15
REMARK                            x       y       z     vdW  Elec       q    Type
REMARK                         _______ _______ _______ _____ _____    ______ ____
ROOT
ATOM      1  O   UNL     1       7.885   4.871  17.236  0.00  0.00    +0.000 OA
ATOM      2  C   UNL     1       6.804   5.238  16.766  0.00  0.00    +0.000 C 
ATOM      3  N   UNL     1       5.603   5.092  17.459  0.00  0.00    +0.000 N 
ATOM      4  C   UNL     1       4.294   5.311  16.846  0.00  0.00    +0.000 C 
ATOM      5  C   UNL     1       3.264   5.817  17.842  0.00  0.00    +0.000 C 
ATOM      6  C   UNL     1       3.223   5.028  19.152  0.00  0.00    +0.000 C 
ATOM      7  C   UNL     1       4.627   4.797  19.715  0.00  0.00    +0.000 C 
ATOM      8  C   UNL     1       5.625   4.294  18.683  0.00  0.00    +0.000 C 
ENDROOT
BRANCH   6   9
ATOM      9  N   UNL     1       2.388   3.823  19.099  0.00  0.00    +0.000 N 
ATOM     10  C   UNL     1       1.207   3.719  19.795  0.00  0.00    +0.000 C 
ATOM     11  O   UNL     1       0.703   4.567  20.519  0.00  0.00    +0.000 OA
ATOM     12  C   UNL     1       0.591   2.359  19.527  0.00  0.00    +0.000 C 
ATOM     13  N   UNL     1       1.571   1.800  18.650  0.00  0.00    +0.000 N 
ATOM     14  C   UNL     1       2.613   2.664  18.417  0.00  0.00    +0.000 C 
ATOM     15  O   UNL     1       3.545   2.355  17.698  0.00  0.00    +0.000 OA
ATOM     16  H   UNL     1       1.552   0.880  18.230  0.00  0.00    +0.000 HD
ENDBRANCH   6   9
BRANCH   2  17
ATOM     17  C   UNL     1       6.770   5.929  15.409  0.00  0.00    +0.000 C 
BRANCH  17  18
ATOM     18  C   UNL     1       6.734   4.972  14.237  0.00  0.00    +0.000 A 
ATOM     19  C   UNL     1       7.572   5.154  13.125  0.00  0.00    +0.000 A 
ATOM     20  C   UNL     1       7.538   4.259  12.055  0.00  0.00    +0.000 A 
ATOM     21  C   UNL     1       6.679   3.163  12.098  0.00  0.00    +0.000 A 
ATOM     22 BR   UNL     1       6.646   1.942  10.657  0.00  0.00    +0.000 Br
ATOM     23  C   UNL     1       5.852   2.958  13.200  0.00  0.00    +0.000 A 
ATOM     24  C   UNL     1       5.883   3.857  14.269  0.00  0.00    +0.000 A 
ENDBRANCH  17  18
ENDBRANCH   2  17
TORSDOF 3
ENDMDL
MODEL 8
REMARK VINA RESULT:      -7.0      1.017      1.031
REMARK  Name = 
REMARK  3 active torsions:
REMARK  status: ('A' for Active; 'I' for Inactive)
REMARK    1  A    between atoms: C_2  and  C_3
REMARK    2  A    between atoms: C_3  and  C_4
REMARK    3  A    between atoms: C_14  and  N_15
REMARK                            x       y       z     vdW  Elec       q    Type
REMARK                         _______ _______ _______ _____ _____    ______ ____
ROOT
ATOM      1  O   UNL     1       2.205   9.816  17.430  0.00  0.00    +0.000 OA
ATOM      2  C   UNL     1       1.802   9.230  18.440  0.00  0.00    +0.000 C 
ATOM      3  N   UNL     1       2.212   7.938  18.764  0.00  0.00    +0.000 N 
ATOM      4  C   UNL     1       1.590   7.143  19.821  0.00  0.00    +0.000 C 
ATOM      5  C   UNL     1       2.568   6.184  20.479  0.00  0.00    +0.000 C 
ATOM      6  C   UNL     1       3.407   5.372  19.490  0.00  0.00    +0.000 C 
ATOM      7  C   UNL     1       3.991   6.258  18.388  0.00  0.00    +0.000 C 
ATOM      8  C   UNL     1       2.977   7.202  17.760  0.00  0.00    +0.000 C 
ENDROOT
BRANCH   6   9
ATOM      9  N   UNL     1       2.746   4.157  19.002  0.00  0.00    +0.000 N 
ATOM     10  C   UNL     1       3.284   3.381  18.004  0.00  0.00    +0.000 C 
ATOM     11  O   UNL     1       4.337   3.575  17.408  0.00  0.00    +0.000 OA
ATOM     12  C   UNL     1       2.364   2.206  17.735  0.00  0.00    +0.000 C 
ATOM     13  N   UNL     1       1.324   2.474  18.678  0.00  0.00    +0.000 N 
ATOM     14  C   UNL     1       1.560   3.616  19.402  0.00  0.00    +0.000 C 
ATOM     15  O   UNL     1       0.776   4.004  20.249  0.00  0.00    +0.000 OA
ATOM     16  H   UNL     1       0.488   1.924  18.829  0.00  0.00    +0.000 HD
ENDBRANCH   6   9
BRANCH   2  17
ATOM     17  C   UNL     1       0.871   9.951  19.405  0.00  0.00    +0.000 C 
BRANCH  17  18
ATOM     18  C   UNL     1      -0.459  10.342  18.795  0.00  0.00    +0.000 A 
ATOM     19  C   UNL     1      -0.961   9.679  17.663  0.00  0.00    +0.000 A 
ATOM     20  C   UNL     1      -2.192  10.041  17.116  0.00  0.00    +0.000 A 
ATOM     21  C   UNL     1      -2.940  11.056  17.707  0.00  0.00    +0.000 A 
ATOM     22 BR   UNL     1      -4.614  11.534  16.975  0.00  0.00    +0.000 Br
ATOM     23  C   UNL     1      -2.464  11.714  18.839  0.00  0.00    +0.000 A 
ATOM     24  C   UNL     1      -1.229  11.355  19.385  0.00  0.00    +0.000 A 
ENDBRANCH  17  18
ENDBRANCH   2  17
TORSDOF 3
ENDMDL
MODEL 9
REMARK VINA RESULT:      -7.0      0.716      1.236
REMARK  Name = 
REMARK  3 active torsions:
REMARK  status: ('A' for Active; 'I' for Inactive)
REMARK    1  A    between atoms: C_2  and  C_3
REMARK    2  A    between atoms: C_3  and  C_4
REMARK    3  A    between atoms: C_14  and  N_15
REMARK                            x       y       z     vdW  Elec       q    Type
REMARK                         _______ _______ _______ _____ _____    ______ ____
ROOT
ATOM      1  O   UNL     1       2.208   9.582  17.383  0.00  0.00    +0.000 OA
ATOM      2  C   UNL     1       1.835   9.070  18.442  0.00  0.00    +0.000 C 
ATOM      3  N   UNL     1       2.206   7.780  18.817  0.00  0.00    +0.000 N 
ATOM      4  C   UNL     1       1.608   7.071  19.947  0.00  0.00    +0.000 C 
ATOM      5  C   UNL     1       2.578   6.106  20.607  0.00  0.00    +0.000 C 
ATOM      6  C   UNL     1       3.328   5.205  19.623  0.00  0.00    +0.000 C 
ATOM      7  C   UNL     1       3.889   6.004  18.445  0.00  0.00    +0.000 C 
ATOM      8  C   UNL     1       2.885   6.958  17.818  0.00  0.00    +0.000 C 
ENDROOT
BRANCH   6   9
ATOM      9  N   UNL     1       2.592   3.996  19.238  0.00  0.00    +0.000 N 
ATOM     10  C   UNL     1       2.774   2.793  19.876  0.00  0.00    +0.000 C 
ATOM     11  O   UNL     1       3.531   2.563  20.810  0.00  0.00    +0.000 OA
ATOM     12  C   UNL     1       1.870   1.753  19.244  0.00  0.00    +0.000 C 
ATOM     13  N   UNL     1       1.235   2.542  18.236  0.00  0.00    +0.000 N 
ATOM     14  C   UNL     1       1.672   3.844  18.243  0.00  0.00    +0.000 C 
ATOM     15  O   UNL     1       1.245   4.661  17.448  0.00  0.00    +0.000 OA
ATOM     16  H   UNL     1       0.545   2.227  17.566  0.00  0.00    +0.000 HD
ENDBRANCH   6   9
BRANCH   2  17
ATOM     17  C   UNL     1       0.987   9.883  19.413  0.00  0.00    +0.000 C 
BRANCH  17  18
ATOM     18  C   UNL     1      -0.368  10.274  18.861  0.00  0.00    +0.000 A 
ATOM     19  C   UNL     1      -1.122  11.303  19.448  0.00  0.00    +0.000 A 
ATOM     20  C   UNL     1      -2.364  11.661  18.923  0.00  0.00    +0.000 A 
ATOM     21  C   UNL     1      -2.853  11.007  17.796  0.00  0.00    +0.000 A 
ATOM     22 BR   UNL     1      -4.527  11.506  17.077  0.00  0.00    +0.000 Br
ATOM     23  C   UNL     1      -2.112   9.995  17.191  0.00  0.00    +0.000 A 
ATOM     24  C   UNL     1      -0.870   9.633  17.719  0.00  0.00    +0.000 A 
ENDBRANCH  17  18
ENDBRANCH   2  17
TORSDOF 3
ENDMDL
