MODEL 1
REMARK VINA RESULT:      -6.7      0.000      0.000
REMARK  Name = 
REMARK  2 active torsions:
REMARK  status: ('A' for Active; 'I' for Inactive)
REMARK    1  A    between atoms: C_1  and  N_2
REMARK    2  A    between atoms: C_7  and  O_8
REMARK                            x       y       z     vdW  Elec       q    Type
REMARK                         _______ _______ _______ _____ _____    ______ ____
ROOT
ATOM      1  C   UNL     1       1.651   7.021  18.077  0.00  0.00    +0.000 C 
ATOM      2  N   UNL     1       3.013   6.583  18.481  0.00  0.00    +0.000 NA
ATOM      3  C   UNL     1       3.973   7.366  17.656  0.00  0.00    +0.000 C 
ATOM      4  C   UNL     1       5.189   6.581  17.639  0.00  0.00    +0.000 A 
ATOM      5  C   UNL     1       6.416   7.013  17.119  0.00  0.00    +0.000 A 
ATOM      6  C   UNL     1       7.500   6.141  17.138  0.00  0.00    +0.000 A 
ATOM      7  C   UNL     1       7.348   4.863  17.690  0.00  0.00    +0.000 A 
ATOM      8  C   UNL     1       6.099   4.458  18.198  0.00  0.00    +0.000 A 
ATOM      9  C   UNL     1       4.978   5.321  18.149  0.00  0.00    +0.000 A 
ATOM     10  C   UNL     1       3.454   5.122  18.443  0.00  0.00    +0.000 C 
ATOM     11  C   UNL     1       2.712   4.484  17.223  0.00  0.00    +0.000 C 
ATOM     12  C   UNL     1       3.291   3.216  16.584  0.00  0.00    +0.000 C 
ATOM     13  C   UNL     1       3.501   2.047  17.576  0.00  0.00    +0.000 C 
ATOM     14  C   UNL     1       4.036   1.917  19.017  0.00  0.00    +0.000 C 
ATOM     15  C   UNL     1       3.321   2.847  19.980  0.00  0.00    +0.000 A 
ATOM     16  C   UNL     1       2.840   2.165  21.111  0.00  0.00    +0.000 A 
ATOM     17  C   UNL     1       2.074   2.786  22.063  0.00  0.00    +0.000 A 
ATOM     18  C   UNL     1       1.770   4.129  21.911  0.00  0.00    +0.000 A 
ATOM     19  C   UNL     1       2.251   4.867  20.802  0.00  0.00    +0.000 A 
ATOM     20  C   UNL     1       3.057   4.277  19.770  0.00  0.00    +0.000 A 
ENDROOT
BRANCH   7  21
ATOM     21  O   UNL     1       8.386   4.002  17.709  0.00  0.00    +0.000 OA
ATOM     22  H   UNL     1       8.446   3.279  18.352  0.00  0.00    +0.000 HD
ENDBRANCH   7  21
TORSDOF 1
ENDMDL
MODEL 2
REMARK VINA RESULT:      -6.6      2.287      3.510
REMARK  Name = 
REMARK  2 active torsions:
REMARK  status: ('A' for Active; 'I' for Inactive)
REMARK    1  A    between atoms: C_1  and  N_2
REMARK    2  A    between atoms: C_7  and  O_8
REMARK                            x       y       z     vdW  Elec       q    Type
REMARK                         _______ _______ _______ _____ _____    ______ ____
ROOT
ATOM      1  C   UNL     1       7.200   5.375  19.955  0.00  0.00    +0.000 C 
ATOM      2  N   UNL     1       6.730   4.626  18.761  0.00  0.00    +0.000 NA
ATOM      3  C   UNL     1       7.690   4.929  17.665  0.00  0.00    +0.000 C 
ATOM      4  C   UNL     1       6.960   4.680  16.439  0.00  0.00    +0.000 A 
ATOM      5  C   UNL     1       7.523   4.674  15.157  0.00  0.00    +0.000 A 
ATOM      6  C   UNL     1       6.697   4.452  14.060  0.00  0.00    +0.000 A 
ATOM      7  C   UNL     1       5.330   4.221  14.260  0.00  0.00    +0.000 A 
ATOM      8  C   UNL     1       4.795   4.240  15.562  0.00  0.00    +0.000 A 
ATOM      9  C   UNL     1       5.617   4.504  16.684  0.00  0.00    +0.000 A 
ATOM     10  C   UNL     1       5.320   4.776  18.196  0.00  0.00    +0.000 C 
ATOM     11  C   UNL     1       4.917   6.267  18.444  0.00  0.00    +0.000 C 
ATOM     12  C   UNL     1       3.821   6.893  17.574  0.00  0.00    +0.000 C 
ATOM     13  C   UNL     1       2.483   6.114  17.585  0.00  0.00    +0.000 C 
ATOM     14  C   UNL     1       2.083   4.626  17.531  0.00  0.00    +0.000 C 
ATOM     15  C   UNL     1       2.780   3.806  18.602  0.00  0.00    +0.000 A 
ATOM     16  C   UNL     1       1.871   3.043  19.354  0.00  0.00    +0.000 A 
ATOM     17  C   UNL     1       2.267   2.306  20.441  0.00  0.00    +0.000 A 
ATOM     18  C   UNL     1       3.603   2.306  20.804  0.00  0.00    +0.000 A 
ATOM     19  C   UNL     1       4.562   3.040  20.063  0.00  0.00    +0.000 A 
ATOM     20  C   UNL     1       4.214   3.832  18.917  0.00  0.00    +0.000 A 
ENDROOT
BRANCH   7  21
ATOM     21  O   UNL     1       4.513   4.011  13.207  0.00  0.00    +0.000 OA
ATOM     22  H   UNL     1       3.953   3.224  13.137  0.00  0.00    +0.000 HD
ENDBRANCH   7  21
TORSDOF 1
ENDMDL
MODEL 3
REMARK VINA RESULT:      -6.5      7.186      9.184
REMARK  Name = 
REMARK  2 active torsions:
REMARK  status: ('A' for Active; 'I' for Inactive)
REMARK    1  A    between atoms: C_1  and  N_2
REMARK    2  A    between atoms: C_7  and  O_8
REMARK                            x       y       z     vdW  Elec       q    Type
REMARK                         _______ _______ _______ _____ _____    ______ ____
ROOT
ATOM      1  C   UNL     1      -2.978  13.987  21.440  0.00  0.00    +0.000 C 
ATOM      2  N   UNL     1      -1.523  13.892  21.153  0.00  0.00    +0.000 NA
ATOM      3  C   UNL     1      -1.126  15.186  20.534  0.00  0.00    +0.000 C 
ATOM      4  C   UNL     1       0.076  14.896  19.782  0.00  0.00    +0.000 A 
ATOM      5  C   UNL     1       0.894  15.856  19.173  0.00  0.00    +0.000 A 
ATOM      6  C   UNL     1       2.005  15.435  18.450  0.00  0.00    +0.000 A 
ATOM      7  C   UNL     1       2.294  14.067  18.363  0.00  0.00    +0.000 A 
ATOM      8  C   UNL     1       1.448  13.127  18.982  0.00  0.00    +0.000 A 
ATOM      9  C   UNL     1       0.292  13.540  19.687  0.00  0.00    +0.000 A 
ATOM     10  C   UNL     1      -0.921  12.771  20.308  0.00  0.00    +0.000 C 
ATOM     11  C   UNL     1      -1.998  12.426  19.228  0.00  0.00    +0.000 C 
ATOM     12  C   UNL     1      -1.553  11.740  17.931  0.00  0.00    +0.000 C 
ATOM     13  C   UNL     1      -0.773  10.421  18.148  0.00  0.00    +0.000 C 
ATOM     14  C   UNL     1       0.327   9.948  19.120  0.00  0.00    +0.000 C 
ATOM     15  C   UNL     1      -0.054  10.176  20.572  0.00  0.00    +0.000 A 
ATOM     16  C   UNL     1       0.091   9.010  21.343  0.00  0.00    +0.000 A 
ATOM     17  C   UNL     1      -0.294   8.957  22.658  0.00  0.00    +0.000 A 
ATOM     18  C   UNL     1      -0.833  10.088  23.248  0.00  0.00    +0.000 A 
ATOM     19  C   UNL     1      -0.977  11.295  22.521  0.00  0.00    +0.000 A 
ATOM     20  C   UNL     1      -0.595  11.417  21.142  0.00  0.00    +0.000 A 
ENDROOT
BRANCH   7  21
ATOM     21  O   UNL     1       3.363  13.640  17.661  0.00  0.00    +0.000 OA
ATOM     22  H   UNL     1       3.497  13.874  16.730  0.00  0.00    +0.000 HD
ENDBRANCH   7  21
TORSDOF 1
ENDMDL
MODEL 4
REMARK VINA RESULT:      -6.3      7.064      9.885
REMARK  Name = 
REMARK  2 active torsions:
REMARK  status: ('A' for Active; 'I' for Inactive)
REMARK    1  A    between atoms: C_1  and  N_2
REMARK    2  A    between atoms: C_7  and  O_8
REMARK                            x       y       z     vdW  Elec       q    Type
REMARK                         _______ _______ _______ _____ _____    ______ ____
ROOT
ATOM      1  C   UNL     1       1.015   9.446  17.849  0.00  0.00    +0.000 C 
ATOM      2  N   UNL     1      -0.422   9.663  18.162  0.00  0.00    +0.000 NA
ATOM      3  C   UNL     1      -1.137   9.708  16.858  0.00  0.00    +0.000 C 
ATOM      4  C   UNL     1      -2.357  10.443  17.118  0.00  0.00    +0.000 A 
ATOM      5  C   UNL     1      -3.417  10.584  16.214  0.00  0.00    +0.000 A 
ATOM      6  C   UNL     1      -4.520  11.348  16.583  0.00  0.00    +0.000 A 
ATOM      7  C   UNL     1      -4.556  11.941  17.851  0.00  0.00    +0.000 A 
ATOM      8  C   UNL     1      -3.471  11.784  18.733  0.00  0.00    +0.000 A 
ATOM      9  C   UNL     1      -2.326  11.043  18.356  0.00  0.00    +0.000 A 
ATOM     10  C   UNL     1      -0.914  10.839  19.001  0.00  0.00    +0.000 C 
ATOM     11  C   UNL     1       0.046  12.029  18.673  0.00  0.00    +0.000 C 
ATOM     12  C   UNL     1      -0.440  13.462  18.919  0.00  0.00    +0.000 C 
ATOM     13  C   UNL     1      -0.920  13.728  20.367  0.00  0.00    +0.000 C 
ATOM     14  C   UNL     1      -1.764  12.953  21.399  0.00  0.00    +0.000 C 
ATOM     15  C   UNL     1      -1.233  11.551  21.637  0.00  0.00    +0.000 A 
ATOM     16  C   UNL     1      -1.046  11.284  23.004  0.00  0.00    +0.000 A 
ATOM     17  C   UNL     1      -0.478  10.117  23.445  0.00  0.00    +0.000 A 
ATOM     18  C   UNL     1      -0.083   9.167  22.518  0.00  0.00    +0.000 A 
ATOM     19  C   UNL     1      -0.273   9.378  21.130  0.00  0.00    +0.000 A 
ATOM     20  C   UNL     1      -0.860  10.577  20.602  0.00  0.00    +0.000 A 
ENDROOT
BRANCH   7  21
ATOM     21  O   UNL     1      -5.614  12.691  18.222  0.00  0.00    +0.000 OA
ATOM     22  H   UNL     1      -6.240  12.400  18.903  0.00  0.00    +0.000 HD
ENDBRANCH   7  21
TORSDOF 1
ENDMDL
MODEL 5
REMARK VINA RESULT:      -6.3      6.840      9.670
REMARK  Name = 
REMARK  2 active torsions:
REMARK  status: ('A' for Active; 'I' for Inactive)
REMARK    1  A    between atoms: C_1  and  N_2
REMARK    2  A    between atoms: C_7  and  O_8
REMARK                            x       y       z     vdW  Elec       q    Type
REMARK                         _______ _______ _______ _____ _____    ______ ____
ROOT
ATOM      1  C   UNL     1       1.442   9.227  18.557  0.00  0.00    +0.000 C 
ATOM      2  N   UNL     1       1.108  10.626  18.184  0.00  0.00    +0.000 NA
ATOM      3  C   UNL     1       2.386  11.388  18.205  0.00  0.00    +0.000 C 
ATOM      4  C   UNL     1       2.003  12.771  18.395  0.00  0.00    +0.000 A 
ATOM      5  C   UNL     1       2.874  13.864  18.308  0.00  0.00    +0.000 A 
ATOM      6  C   UNL     1       2.377  15.142  18.546  0.00  0.00    +0.000 A 
ATOM      7  C   UNL     1       1.019  15.310  18.848  0.00  0.00    +0.000 A 
ATOM      8  C   UNL     1       0.173  14.189  18.933  0.00  0.00    +0.000 A 
ATOM      9  C   UNL     1       0.673  12.880  18.732  0.00  0.00    +0.000 A 
ATOM     10  C   UNL     1       0.065  11.452  18.934  0.00  0.00    +0.000 C 
ATOM     11  C   UNL     1       0.152  10.996  20.427  0.00  0.00    +0.000 C 
ATOM     12  C   UNL     1      -0.358  11.941  21.522  0.00  0.00    +0.000 C 
ATOM     13  C   UNL     1      -1.825  12.397  21.331  0.00  0.00    +0.000 C 
ATOM     14  C   UNL     1      -2.683  12.850  20.133  0.00  0.00    +0.000 C 
ATOM     15  C   UNL     1      -2.655  11.845  18.995  0.00  0.00    +0.000 A 
ATOM     16  C   UNL     1      -3.949  11.495  18.571  0.00  0.00    +0.000 A 
ATOM     17  C   UNL     1      -4.165  10.527  17.625  0.00  0.00    +0.000 A 
ATOM     18  C   UNL     1      -3.078   9.878  17.064  0.00  0.00    +0.000 A 
ATOM     19  C   UNL     1      -1.754  10.211  17.440  0.00  0.00    +0.000 A 
ATOM     20  C   UNL     1      -1.457  11.215  18.424  0.00  0.00    +0.000 A 
ENDROOT
BRANCH   7  21
ATOM     21  O   UNL     1       0.522  16.540  19.089  0.00  0.00    +0.000 OA
ATOM     22  H   UNL     1      -0.210  16.912  18.575  0.00  0.00    +0.000 HD
ENDBRANCH   7  21
TORSDOF 1
ENDMDL
MODEL 6
REMARK VINA RESULT:      -6.2      7.177     10.063
REMARK  Name = 
REMARK  2 active torsions:
REMARK  status: ('A' for Active; 'I' for Inactive)
REMARK    1  A    between atoms: C_1  and  N_2
REMARK    2  A    between atoms: C_7  and  O_8
REMARK                            x       y       z     vdW  Elec       q    Type
REMARK                         _______ _______ _______ _____ _____    ______ ____
ROOT
ATOM      1  C   UNL     1      -1.864  13.556  21.874  0.00  0.00    +0.000 C 
ATOM      2  N   UNL     1      -1.976  13.214  20.432  0.00  0.00    +0.000 NA
ATOM      3  C   UNL     1      -3.377  12.765  20.209  0.00  0.00    +0.000 C 
ATOM      4  C   UNL     1      -3.330  11.944  19.018  0.00  0.00    +0.000 A 
ATOM      5  C   UNL     1      -4.450  11.446  18.341  0.00  0.00    +0.000 A 
ATOM      6  C   UNL     1      -4.259  10.639  17.224  0.00  0.00    +0.000 A 
ATOM      7  C   UNL     1      -2.957  10.358  16.790  0.00  0.00    +0.000 A 
ATOM      8  C   UNL     1      -1.853  10.869  17.497  0.00  0.00    +0.000 A 
ATOM      9  C   UNL     1      -2.033  11.659  18.658  0.00  0.00    +0.000 A 
ATOM     10  C   UNL     1      -1.053  12.207  19.749  0.00  0.00    +0.000 C 
ATOM     11  C   UNL     1      -0.731  11.123  20.830  0.00  0.00    +0.000 C 
ATOM     12  C   UNL     1      -0.278   9.732  20.371  0.00  0.00    +0.000 C 
ATOM     13  C   UNL     1       0.960   9.745  19.441  0.00  0.00    +0.000 C 
ATOM     14  C   UNL     1       1.425  10.609  18.252  0.00  0.00    +0.000 C 
ATOM     15  C   UNL     1       1.436  12.089  18.589  0.00  0.00    +0.000 A 
ATOM     16  C   UNL     1       2.668  12.690  18.280  0.00  0.00    +0.000 A 
ATOM     17  C   UNL     1       2.938  13.997  18.596  0.00  0.00    +0.000 A 
ATOM     18  C   UNL     1       1.964  14.752  19.229  0.00  0.00    +0.000 A 
ATOM     19  C   UNL     1       0.697  14.199  19.539  0.00  0.00    +0.000 A 
ATOM     20  C   UNL     1       0.351  12.838  19.237  0.00  0.00    +0.000 A 
ENDROOT
BRANCH   7  21
ATOM     21  O   UNL     1      -2.753   9.571  15.714  0.00  0.00    +0.000 OA
ATOM     22  H   UNL     1      -3.422   9.458  15.022  0.00  0.00    +0.000 HD
ENDBRANCH   7  21
TORSDOF 1
ENDMDL
MODEL 7
REMARK VINA RESULT:      -6.1     10.058     11.927
REMARK  Name = 
REMARK  2 active torsions:
REMARK  status: ('A' for Active; 'I' for Inactive)
REMARK    1  A    between atoms: C_1  and  N_2
REMARK    2  A    between atoms: C_7  and  O_8
REMARK                            x       y       z     vdW  Elec       q    Type
REMARK                         _______ _______ _______ _____ _____    ______ ____
ROOT
ATOM      1  C   UNL     1       8.605  13.369  22.729  0.00  0.00    +0.000 C 
ATOM      2  N   UNL     1       8.782  13.186  21.265  0.00  0.00    +0.000 NA
ATOM      3  C   UNL     1       9.780  12.096  21.090  0.00  0.00    +0.000 C 
ATOM      4  C   UNL     1      10.342  12.301  19.772  0.00  0.00    +0.000 A 
ATOM      5  C   UNL     1      11.202  11.410  19.119  0.00  0.00    +0.000 A 
ATOM      6  C   UNL     1      11.695  11.748  17.862  0.00  0.00    +0.000 A 
ATOM      7  C   UNL     1      11.308  12.957  17.271  0.00  0.00    +0.000 A 
ATOM      8  C   UNL     1      10.447  13.833  17.958  0.00  0.00    +0.000 A 
ATOM      9  C   UNL     1       9.969  13.520  19.253  0.00  0.00    +0.000 A 
ATOM     10  C   UNL     1       9.178  14.329  20.334  0.00  0.00    +0.000 C 
ATOM     11  C   UNL     1      10.125  15.252  21.169  0.00  0.00    +0.000 C 
ATOM     12  C   UNL     1      11.099  16.178  20.431  0.00  0.00    +0.000 C 
ATOM     13  C   UNL     1      10.420  17.125  19.411  0.00  0.00    +0.000 C 
ATOM     14  C   UNL     1       9.301  16.981  18.360  0.00  0.00    +0.000 C 
ATOM     15  C   UNL     1       8.026  16.410  18.955  0.00  0.00    +0.000 A 
ATOM     16  C   UNL     1       6.905  17.201  18.652  0.00  0.00    +0.000 A 
ATOM     17  C   UNL     1       5.665  16.932  19.171  0.00  0.00    +0.000 A 
ATOM     18  C   UNL     1       5.509  15.843  20.014  0.00  0.00    +0.000 A 
ATOM     19  C   UNL     1       6.604  15.001  20.330  0.00  0.00    +0.000 A 
ATOM     20  C   UNL     1       7.928  15.228  19.820  0.00  0.00    +0.000 A 
ENDROOT
BRANCH   7  21
ATOM     21  O   UNL     1      11.783  13.304  16.058  0.00  0.00    +0.000 OA
ATOM     22  H   UNL     1      12.142  12.652  15.437  0.00  0.00    +0.000 HD
ENDBRANCH   7  21
TORSDOF 1
ENDMDL
MODEL 8
REMARK VINA RESULT:      -5.9      9.817     12.370
REMARK  Name = 
REMARK  2 active torsions:
REMARK  status: ('A' for Active; 'I' for Inactive)
REMARK    1  A    between atoms: C_1  and  N_2
REMARK    2  A    between atoms: C_7  and  O_8
REMARK                            x       y       z     vdW  Elec       q    Type
REMARK                         _______ _______ _______ _____ _____    ______ ____
ROOT
ATOM      1  C   UNL     1      11.923  12.040  18.195  0.00  0.00    +0.000 C 
ATOM      2  N   UNL     1      11.216  12.797  19.261  0.00  0.00    +0.000 NA
ATOM      3  C   UNL     1      10.797  11.800  20.283  0.00  0.00    +0.000 C 
ATOM      4  C   UNL     1       9.687  12.413  20.981  0.00  0.00    +0.000 A 
ATOM      5  C   UNL     1       9.085  11.902  22.138  0.00  0.00    +0.000 A 
ATOM      6  C   UNL     1       8.001  12.578  22.689  0.00  0.00    +0.000 A 
ATOM      7  C   UNL     1       7.548  13.761  22.089  0.00  0.00    +0.000 A 
ATOM      8  C   UNL     1       8.172  14.244  20.923  0.00  0.00    +0.000 A 
ATOM      9  C   UNL     1       9.250  13.544  20.330  0.00  0.00    +0.000 A 
ATOM     10  C   UNL     1      10.018  13.698  18.975  0.00  0.00    +0.000 C 
ATOM     11  C   UNL     1       9.245  13.021  17.796  0.00  0.00    +0.000 C 
ATOM     12  C   UNL     1       7.761  13.349  17.597  0.00  0.00    +0.000 C 
ATOM     13  C   UNL     1       7.462  14.861  17.450  0.00  0.00    +0.000 C 
ATOM     14  C   UNL     1       7.954  16.146  18.146  0.00  0.00    +0.000 C 
ATOM     15  C   UNL     1       9.467  16.259  18.139  0.00  0.00    +0.000 A 
ATOM     16  C   UNL     1       9.901  17.499  17.640  0.00  0.00    +0.000 A 
ATOM     17  C   UNL     1      11.228  17.780  17.447  0.00  0.00    +0.000 A 
ATOM     18  C   UNL     1      12.173  16.817  17.760  0.00  0.00    +0.000 A 
ATOM     19  C   UNL     1      11.789  15.561  18.289  0.00  0.00    +0.000 A 
ATOM     20  C   UNL     1      10.417  15.203  18.515  0.00  0.00    +0.000 A 
ENDROOT
BRANCH   7  21
ATOM     21  O   UNL     1       6.495  14.425  22.606  0.00  0.00    +0.000 OA
ATOM     22  H   UNL     1       5.714  13.968  22.952  0.00  0.00    +0.000 HD
ENDBRANCH   7  21
TORSDOF 1
ENDMDL
MODEL 9
REMARK VINA RESULT:      -5.8      8.353     10.161
REMARK  Name = 
REMARK  2 active torsions:
REMARK  status: ('A' for Active; 'I' for Inactive)
REMARK    1  A    between atoms: C_1  and  N_2
REMARK    2  A    between atoms: C_7  and  O_8
REMARK                            x       y       z     vdW  Elec       q    Type
REMARK                         _______ _______ _______ _____ _____    ______ ____
ROOT
ATOM      1  C   UNL     1      -2.225  11.540  17.696  0.00  0.00    +0.000 C 
ATOM      2  N   UNL     1      -1.594  12.552  18.582  0.00  0.00    +0.000 NA
ATOM      3  C   UNL     1      -0.309  12.939  17.937  0.00  0.00    +0.000 C 
ATOM      4  C   UNL     1       0.515  13.456  19.008  0.00  0.00    +0.000 A 
ATOM      5  C   UNL     1       1.750  14.093  18.835  0.00  0.00    +0.000 A 
ATOM      6  C   UNL     1       2.455  14.513  19.959  0.00  0.00    +0.000 A 
ATOM      7  C   UNL     1       1.910  14.307  21.233  0.00  0.00    +0.000 A 
ATOM      8  C   UNL     1       0.669  13.658  21.372  0.00  0.00    +0.000 A 
ATOM      9  C   UNL     1      -0.040  13.191  20.239  0.00  0.00    +0.000 A 
ATOM     10  C   UNL     1      -1.309  12.292  20.059  0.00  0.00    +0.000 C 
ATOM     11  C   UNL     1      -0.958  10.772  20.165  0.00  0.00    +0.000 C 
ATOM     12  C   UNL     1      -0.136  10.283  21.364  0.00  0.00    +0.000 C 
ATOM     13  C   UNL     1      -0.748  10.646  22.740  0.00  0.00    +0.000 C 
ATOM     14  C   UNL     1      -1.427  11.893  23.340  0.00  0.00    +0.000 C 
ATOM     15  C   UNL     1      -2.588  12.379  22.491  0.00  0.00    +0.000 A 
ATOM     16  C   UNL     1      -3.760  12.547  23.249  0.00  0.00    +0.000 A 
ATOM     17  C   UNL     1      -4.957  12.880  22.670  0.00  0.00    +0.000 A 
ATOM     18  C   UNL     1      -5.013  13.065  21.298  0.00  0.00    +0.000 A 
ATOM     19  C   UNL     1      -3.855  12.932  20.494  0.00  0.00    +0.000 A 
ATOM     20  C   UNL     1      -2.571  12.585  21.037  0.00  0.00    +0.000 A 
ENDROOT
BRANCH   7  21
ATOM     21  O   UNL     1       2.583  14.701  22.333  0.00  0.00    +0.000 OA
ATOM     22  H   UNL     1       2.270  15.421  22.900  0.00  0.00    +0.000 HD
ENDBRANCH   7  21
TORSDOF 1
ENDMDL
