MODEL 1
REMARK VINA RESULT:      -8.7      0.000      0.000
REMARK  Name = 
REMARK  6 active torsions:
REMARK  status: ('A' for Active; 'I' for Inactive)
REMARK    1  A    between atoms: C_1  and  C_2
REMARK    2  A    between atoms: C_6  and  C_7
REMARK    3  A    between atoms: C_7  and  N_8
REMARK    4  A    between atoms: C_9  and  C_11
REMARK    5  A    between atoms: C_16  and  C_17
REMARK    6  A    between atoms: C_19  and  C_20
REMARK                            x       y       z     vdW  Elec       q    Type
REMARK                         _______ _______ _______ _____ _____    ______ ____
ROOT
ATOM      1  C   UNL     1       2.695   6.316  19.177  0.00  0.00    +0.000 A 
ATOM      2  C   UNL     1       2.061   6.283  20.425  0.00  0.00    +0.000 A 
ATOM      3  C   UNL     1       1.360   7.397  20.899  0.00  0.00    +0.000 A 
ATOM      4  C   UNL     1       1.289   8.556  20.109  0.00  0.00    +0.000 A 
ATOM      5  C   UNL     1       0.670   9.820  20.289  0.00  0.00    +0.000 A 
ATOM      6  C   UNL     1       0.890  10.562  19.151  0.00  0.00    +0.000 A 
ATOM      7  N   UNL     1       1.681   9.816  18.310  0.00  0.00    +0.000 N 
ATOM      8  C   UNL     1       1.930   8.577  18.867  0.00  0.00    +0.000 A 
ATOM      9  C   UNL     1       2.659   7.478  18.384  0.00  0.00    +0.000 A 
ATOM     10  H   UNL     1       1.997  10.139  17.409  0.00  0.00    +0.000 HD
ENDROOT
BRANCH   6  11
ATOM     11  C   UNL     1       0.374  11.918  18.860  0.00  0.00    +0.000 A 
ATOM     12  C   UNL     1       1.031  13.132  19.151  0.00  0.00    +0.000 A 
ATOM     13  C   UNL     1       0.192  14.131  18.701  0.00  0.00    +0.000 A 
ATOM     14  N   UNL     1      -0.897  13.463  18.199  0.00  0.00    +0.000 N 
ATOM     15  N   UNL     1      -0.811  12.120  18.276  0.00  0.00    +0.000 NA
ATOM     16  H   UNL     1      -1.722  13.865  17.773  0.00  0.00    +0.000 HD
BRANCH  13  17
ATOM     17  C   UNL     1       0.351  15.583  18.682  0.00  0.00    +0.000 A 
ATOM     18  C   UNL     1      -0.775  16.415  18.773  0.00  0.00    +0.000 A 
ATOM     19  C   UNL     1      -0.639  17.807  18.767  0.00  0.00    +0.000 A 
ATOM     20  C   UNL     1       0.626  18.381  18.667  0.00  0.00    +0.000 A 
ATOM     21  C   UNL     1       1.752  17.567  18.571  0.00  0.00    +0.000 A 
ATOM     22  C   UNL     1       1.615  16.176  18.575  0.00  0.00    +0.000 A 
ENDBRANCH  13  17
ENDBRANCH   6  11
BRANCH   1  24
ATOM     23  N   UNL     1       3.678   5.075  17.317  0.00  0.00    +0.000 N 
ATOM     24  C   UNL     1       3.449   5.126  18.680  0.00  0.00    +0.000 C 
ATOM     25  O   UNL     1       3.845   4.271  19.462  0.00  0.00    +0.000 OA
ATOM     26  H   UNL     1       3.607   5.936  16.791  0.00  0.00    +0.000 HD
BRANCH  23  27
ATOM     27  C   UNL     1       4.465   4.008  16.743  0.00  0.00    +0.000 C 
BRANCH  27  33
ATOM     28  C   UNL     1       7.299   5.418  17.926  0.00  0.00    +0.000 C 
ATOM     29  C   UNL     1       6.790   5.153  16.566  0.00  0.00    +0.000 A 
ATOM     30  O   UNL     1       7.590   5.571  15.547  0.00  0.00    +0.000 OA
ATOM     31  N   UNL     1       6.992   5.274  14.337  0.00  0.00    +0.000 NA
ATOM     32  C   UNL     1       5.838   4.684  14.651  0.00  0.00    +0.000 A 
ATOM     33  C   UNL     1       5.649   4.568  16.049  0.00  0.00    +0.000 A 
ENDBRANCH  27  33
ENDBRANCH  23  27
ENDBRANCH   1  24
TORSDOF 5
ENDMDL
MODEL 2
REMARK VINA RESULT:      -8.6      0.521      1.452
REMARK  Name = 
REMARK  6 active torsions:
REMARK  status: ('A' for Active; 'I' for Inactive)
REMARK    1  A    between atoms: C_1  and  C_2
REMARK    2  A    between atoms: C_6  and  C_7
REMARK    3  A    between atoms: C_7  and  N_8
REMARK    4  A    between atoms: C_9  and  C_11
REMARK    5  A    between atoms: C_16  and  C_17
REMARK    6  A    between atoms: C_19  and  C_20
REMARK                            x       y       z     vdW  Elec       q    Type
REMARK                         _______ _______ _______ _____ _____    ______ ____
ROOT
ATOM      1  C   UNL     1       2.841   6.212  19.037  0.00  0.00    +0.000 A 
ATOM      2  C   UNL     1       2.156   6.090  20.252  0.00  0.00    +0.000 A 
ATOM      3  C   UNL     1       1.402   7.155  20.756  0.00  0.00    +0.000 A 
ATOM      4  C   UNL     1       1.330   8.355  20.031  0.00  0.00    +0.000 A 
ATOM      5  C   UNL     1       0.667   9.590  20.253  0.00  0.00    +0.000 A 
ATOM      6  C   UNL     1       0.913  10.401  19.170  0.00  0.00    +0.000 A 
ATOM      7  N   UNL     1       1.761   9.727  18.324  0.00  0.00    +0.000 N 
ATOM      8  C   UNL     1       2.023   8.465  18.822  0.00  0.00    +0.000 A 
ATOM      9  C   UNL     1       2.805   7.416  18.310  0.00  0.00    +0.000 A 
ATOM     10  H   UNL     1       2.106  10.109  17.457  0.00  0.00    +0.000 HD
ENDROOT
BRANCH   6  11
ATOM     11  C   UNL     1       0.370  11.757  18.933  0.00  0.00    +0.000 A 
ATOM     12  C   UNL     1       1.038  12.972  19.193  0.00  0.00    +0.000 A 
ATOM     13  C   UNL     1       0.164  13.971  18.815  0.00  0.00    +0.000 A 
ATOM     14  N   UNL     1      -0.953  13.301  18.382  0.00  0.00    +0.000 N 
ATOM     15  N   UNL     1      -0.855  11.958  18.435  0.00  0.00    +0.000 NA
ATOM     16  H   UNL     1      -1.809  13.703  18.019  0.00  0.00    +0.000 HD
BRANCH  13  17
ATOM     17  C   UNL     1       0.312  15.424  18.804  0.00  0.00    +0.000 A 
ATOM     18  C   UNL     1       1.582  16.001  18.662  0.00  0.00    +0.000 A 
ATOM     19  C   UNL     1       1.739  17.390  18.639  0.00  0.00    +0.000 A 
ATOM     20  C   UNL     1       0.625  18.217  18.761  0.00  0.00    +0.000 A 
ATOM     21  C   UNL     1      -0.641  17.658  18.909  0.00  0.00    +0.000 A 
ATOM     22  C   UNL     1      -0.798  16.269  18.933  0.00  0.00    +0.000 A 
ENDBRANCH  13  17
ENDBRANCH   6  11
BRANCH   1  24
ATOM     23  N   UNL     1       3.797   5.015  17.134  0.00  0.00    +0.000 N 
ATOM     24  C   UNL     1       3.650   5.073  18.508  0.00  0.00    +0.000 C 
ATOM     25  O   UNL     1       4.159   4.264  19.274  0.00  0.00    +0.000 OA
ATOM     26  H   UNL     1       3.627   5.859  16.603  0.00  0.00    +0.000 HD
BRANCH  23  27
ATOM     27  C   UNL     1       4.624   4.001  16.525  0.00  0.00    +0.000 C 
BRANCH  27  33
ATOM     28  C   UNL     1       5.878   3.662  13.405  0.00  0.00    +0.000 C 
ATOM     29  C   UNL     1       6.285   4.457  14.580  0.00  0.00    +0.000 A 
ATOM     30  O   UNL     1       7.412   5.205  14.422  0.00  0.00    +0.000 OA
ATOM     31  N   UNL     1       7.684   5.884  15.595  0.00  0.00    +0.000 NA
ATOM     32  C   UNL     1       6.717   5.528  16.439  0.00  0.00    +0.000 A 
ATOM     33  C   UNL     1       5.790   4.630  15.860  0.00  0.00    +0.000 A 
ENDBRANCH  27  33
ENDBRANCH  23  27
ENDBRANCH   1  24
TORSDOF 5
ENDMDL
MODEL 3
REMARK VINA RESULT:      -8.6      3.041      3.832
REMARK  Name = 
REMARK  6 active torsions:
REMARK  status: ('A' for Active; 'I' for Inactive)
REMARK    1  A    between atoms: C_1  and  C_2
REMARK    2  A    between atoms: C_6  and  C_7
REMARK    3  A    between atoms: C_7  and  N_8
REMARK    4  A    between atoms: C_9  and  C_11
REMARK    5  A    between atoms: C_16  and  C_17
REMARK    6  A    between atoms: C_19  and  C_20
REMARK                            x       y       z     vdW  Elec       q    Type
REMARK                         _______ _______ _______ _____ _____    ______ ____
ROOT
ATOM      1  C   UNL     1       3.041   4.470  18.828  0.00  0.00    +0.000 A 
ATOM      2  C   UNL     1       2.456   3.949  19.988  0.00  0.00    +0.000 A 
ATOM      3  C   UNL     1       1.783   4.785  20.885  0.00  0.00    +0.000 A 
ATOM      4  C   UNL     1       1.691   6.160  20.613  0.00  0.00    +0.000 A 
ATOM      5  C   UNL     1       1.090   7.250  21.295  0.00  0.00    +0.000 A 
ATOM      6  C   UNL     1       1.272   8.377  20.529  0.00  0.00    +0.000 A 
ATOM      7  N   UNL     1       2.023   8.024  19.433  0.00  0.00    +0.000 N 
ATOM      8  C   UNL     1       2.284   6.668  19.454  0.00  0.00    +0.000 A 
ATOM      9  C   UNL     1       2.984   5.849  18.552  0.00  0.00    +0.000 A 
ATOM     10  H   UNL     1       2.308   8.675  18.717  0.00  0.00    +0.000 HD
ENDROOT
BRANCH   6  11
ATOM     11  C   UNL     1       0.757   9.736  20.809  0.00  0.00    +0.000 A 
ATOM     12  C   UNL     1      -0.174  10.075  21.814  0.00  0.00    +0.000 A 
ATOM     13  C   UNL     1      -0.353  11.440  21.716  0.00  0.00    +0.000 A 
ATOM     14  N   UNL     1       0.451  11.815  20.668  0.00  0.00    +0.000 N 
ATOM     15  N   UNL     1       1.141  10.804  20.104  0.00  0.00    +0.000 NA
ATOM     16  H   UNL     1       0.587  12.749  20.301  0.00  0.00    +0.000 HD
BRANCH  13  17
ATOM     17  C   UNL     1      -1.155  12.364  22.513  0.00  0.00    +0.000 A 
ATOM     18  C   UNL     1      -0.676  13.653  22.791  0.00  0.00    +0.000 A 
ATOM     19  C   UNL     1      -1.437  14.552  23.544  0.00  0.00    +0.000 A 
ATOM     20  C   UNL     1      -2.685  14.171  24.030  0.00  0.00    +0.000 A 
ATOM     21  C   UNL     1      -3.170  12.892  23.767  0.00  0.00    +0.000 A 
ATOM     22  C   UNL     1      -2.409  11.992  23.015  0.00  0.00    +0.000 A 
ENDBRANCH  13  17
ENDBRANCH   6  11
BRANCH   1  24
ATOM     23  N   UNL     1       4.278   4.174  16.743  0.00  0.00    +0.000 N 
ATOM     24  C   UNL     1       3.765   3.574  17.878  0.00  0.00    +0.000 C 
ATOM     25  O   UNL     1       3.897   2.382  18.127  0.00  0.00    +0.000 OA
ATOM     26  H   UNL     1       4.407   5.178  16.754  0.00  0.00    +0.000 HD
BRANCH  23  27
ATOM     27  C   UNL     1       5.063   3.413  15.799  0.00  0.00    +0.000 C 
BRANCH  27  33
ATOM     28  C   UNL     1       6.238   3.672  12.641  0.00  0.00    +0.000 C 
ATOM     29  C   UNL     1       6.586   4.341  13.910  0.00  0.00    +0.000 A 
ATOM     30  O   UNL     1       7.605   5.241  13.840  0.00  0.00    +0.000 OA
ATOM     31  N   UNL     1       7.834   5.780  15.092  0.00  0.00    +0.000 NA
ATOM     32  C   UNL     1       6.947   5.191  15.894  0.00  0.00    +0.000 A 
ATOM     33  C   UNL     1       6.118   4.271  15.209  0.00  0.00    +0.000 A 
ENDBRANCH  27  33
ENDBRANCH  23  27
ENDBRANCH   1  24
TORSDOF 5
ENDMDL
MODEL 4
REMARK VINA RESULT:      -8.6      3.180      3.862
REMARK  Name = 
REMARK  6 active torsions:
REMARK  status: ('A' for Active; 'I' for Inactive)
REMARK    1  A    between atoms: C_1  and  C_2
REMARK    2  A    between atoms: C_6  and  C_7
REMARK    3  A    between atoms: C_7  and  N_8
REMARK    4  A    between atoms: C_9  and  C_11
REMARK    5  A    between atoms: C_16  and  C_17
REMARK    6  A    between atoms: C_19  and  C_20
REMARK                            x       y       z     vdW  Elec       q    Type
REMARK                         _______ _______ _______ _____ _____    ______ ____
ROOT
ATOM      1  C   UNL     1       2.593   7.023  18.894  0.00  0.00    +0.000 A 
ATOM      2  C   UNL     1       2.607   7.911  17.812  0.00  0.00    +0.000 A 
ATOM      3  C   UNL     1       1.929   9.132  17.882  0.00  0.00    +0.000 A 
ATOM      4  C   UNL     1       1.233   9.470  19.055  0.00  0.00    +0.000 A 
ATOM      5  C   UNL     1       0.469  10.601  19.442  0.00  0.00    +0.000 A 
ATOM      6  C   UNL     1       0.059  10.407  20.741  0.00  0.00    +0.000 A 
ATOM      7  N   UNL     1       0.490   9.163  21.136  0.00  0.00    +0.000 N 
ATOM      8  C   UNL     1       1.223   8.572  20.126  0.00  0.00    +0.000 A 
ATOM      9  C   UNL     1       1.877   7.330  20.066  0.00  0.00    +0.000 A 
ATOM     10  H   UNL     1       0.308   8.772  22.048  0.00  0.00    +0.000 HD
ENDROOT
BRANCH   6  11
ATOM     11  C   UNL     1      -0.705  11.354  21.583  0.00  0.00    +0.000 A 
ATOM     12  C   UNL     1      -1.750  12.193  21.143  0.00  0.00    +0.000 A 
ATOM     13  C   UNL     1      -2.170  12.888  22.259  0.00  0.00    +0.000 A 
ATOM     14  N   UNL     1      -1.351  12.443  23.267  0.00  0.00    +0.000 N 
ATOM     15  N   UNL     1      -0.458  11.507  22.888  0.00  0.00    +0.000 NA
ATOM     16  H   UNL     1      -1.365  12.724  24.240  0.00  0.00    +0.000 HD
BRANCH  13  17
ATOM     17  C   UNL     1      -3.245  13.861  22.437  0.00  0.00    +0.000 A 
ATOM     18  C   UNL     1      -4.555  13.542  22.049  0.00  0.00    +0.000 A 
ATOM     19  C   UNL     1      -5.596  14.458  22.223  0.00  0.00    +0.000 A 
ATOM     20  C   UNL     1      -5.338  15.705  22.785  0.00  0.00    +0.000 A 
ATOM     21  C   UNL     1      -4.042  16.038  23.170  0.00  0.00    +0.000 A 
ATOM     22  C   UNL     1      -3.000  15.122  22.995  0.00  0.00    +0.000 A 
ENDBRANCH  13  17
ENDBRANCH   6  11
BRANCH   1  24
ATOM     23  N   UNL     1       3.488   5.198  17.539  0.00  0.00    +0.000 N 
ATOM     24  C   UNL     1       3.313   5.717  18.809  0.00  0.00    +0.000 C 
ATOM     25  O   UNL     1       3.729   5.170  19.823  0.00  0.00    +0.000 OA
ATOM     26  H   UNL     1       3.407   5.830  16.753  0.00  0.00    +0.000 HD
BRANCH  23  27
ATOM     27  C   UNL     1       4.239   3.981  17.338  0.00  0.00    +0.000 C 
BRANCH  27  33
ATOM     28  C   UNL     1       5.900   4.069  14.397  0.00  0.00    +0.000 C 
ATOM     29  C   UNL     1       6.302   4.315  15.795  0.00  0.00    +0.000 A 
ATOM     30  O   UNL     1       7.615   4.621  15.984  0.00  0.00    +0.000 OA
ATOM     31  N   UNL     1       7.857   4.814  17.331  0.00  0.00    +0.000 NA
ATOM     32  C   UNL     1       6.682   4.616  17.930  0.00  0.00    +0.000 A 
ATOM     33  C   UNL     1       5.649   4.303  17.014  0.00  0.00    +0.000 A 
ENDBRANCH  27  33
ENDBRANCH  23  27
ENDBRANCH   1  24
TORSDOF 5
ENDMDL
MODEL 5
REMARK VINA RESULT:      -8.5      3.075      3.621
REMARK  Name = 
REMARK  6 active torsions:
REMARK  status: ('A' for Active; 'I' for Inactive)
REMARK    1  A    between atoms: C_1  and  C_2
REMARK    2  A    between atoms: C_6  and  C_7
REMARK    3  A    between atoms: C_7  and  N_8
REMARK    4  A    between atoms: C_9  and  C_11
REMARK    5  A    between atoms: C_16  and  C_17
REMARK    6  A    between atoms: C_19  and  C_20
REMARK                            x       y       z     vdW  Elec       q    Type
REMARK                         _______ _______ _______ _____ _____    ______ ____
ROOT
ATOM      1  C   UNL     1       2.580   6.909  18.917  0.00  0.00    +0.000 A 
ATOM      2  C   UNL     1       2.566   7.831  17.863  0.00  0.00    +0.000 A 
ATOM      3  C   UNL     1       1.939   9.072  18.008  0.00  0.00    +0.000 A 
ATOM      4  C   UNL     1       1.323   9.397  19.228  0.00  0.00    +0.000 A 
ATOM      5  C   UNL     1       0.624  10.541  19.692  0.00  0.00    +0.000 A 
ATOM      6  C   UNL     1       0.282  10.321  21.006  0.00  0.00    +0.000 A 
ATOM      7  N   UNL     1       0.688   9.051  21.338  0.00  0.00    +0.000 N 
ATOM      8  C   UNL     1       1.340   8.466  20.271  0.00  0.00    +0.000 A 
ATOM      9  C   UNL     1       1.944   7.204  20.137  0.00  0.00    +0.000 A 
ATOM     10  H   UNL     1       0.543   8.638  22.247  0.00  0.00    +0.000 HD
ENDROOT
BRANCH   6  11
ATOM     11  C   UNL     1      -0.398  11.267  21.918  0.00  0.00    +0.000 A 
ATOM     12  C   UNL     1      -0.255  12.670  21.910  0.00  0.00    +0.000 A 
ATOM     13  C   UNL     1      -1.074  13.139  22.917  0.00  0.00    +0.000 A 
ATOM     14  N   UNL     1      -1.625  12.006  23.463  0.00  0.00    +0.000 N 
ATOM     15  N   UNL     1      -1.240  10.857  22.873  0.00  0.00    +0.000 NA
ATOM     16  H   UNL     1      -2.287  11.951  24.227  0.00  0.00    +0.000 HD
BRANCH  13  17
ATOM     17  C   UNL     1      -1.379  14.499  23.354  0.00  0.00    +0.000 A 
ATOM     18  C   UNL     1      -0.618  15.578  22.880  0.00  0.00    +0.000 A 
ATOM     19  C   UNL     1      -0.905  16.886  23.280  0.00  0.00    +0.000 A 
ATOM     20  C   UNL     1      -1.954  17.129  24.163  0.00  0.00    +0.000 A 
ATOM     21  C   UNL     1      -2.714  16.067  24.646  0.00  0.00    +0.000 A 
ATOM     22  C   UNL     1      -2.426  14.758  24.247  0.00  0.00    +0.000 A 
ENDBRANCH  13  17
ENDBRANCH   6  11
BRANCH   1  24
ATOM     23  N   UNL     1       3.535   5.202  17.454  0.00  0.00    +0.000 N 
ATOM     24  C   UNL     1       3.245   5.582  18.752  0.00  0.00    +0.000 C 
ATOM     25  O   UNL     1       3.524   4.901  19.731  0.00  0.00    +0.000 OA
ATOM     26  H   UNL     1       3.568   5.922  16.745  0.00  0.00    +0.000 HD
BRANCH  23  27
ATOM     27  C   UNL     1       4.247   3.974  17.189  0.00  0.00    +0.000 C 
BRANCH  27  33
ATOM     28  C   UNL     1       6.062   4.021  14.339  0.00  0.00    +0.000 C 
ATOM     29  C   UNL     1       6.396   4.259  15.757  0.00  0.00    +0.000 A 
ATOM     30  O   UNL     1       7.704   4.534  16.015  0.00  0.00    +0.000 OA
ATOM     31  N   UNL     1       7.878   4.723  17.373  0.00  0.00    +0.000 NA
ATOM     32  C   UNL     1       6.669   4.553  17.909  0.00  0.00    +0.000 A 
ATOM     33  C   UNL     1       5.680   4.263  16.940  0.00  0.00    +0.000 A 
ENDBRANCH  27  33
ENDBRANCH  23  27
ENDBRANCH   1  24
TORSDOF 5
ENDMDL
MODEL 6
REMARK VINA RESULT:      -8.4      3.326      5.278
REMARK  Name = 
REMARK  6 active torsions:
REMARK  status: ('A' for Active; 'I' for Inactive)
REMARK    1  A    between atoms: C_1  and  C_2
REMARK    2  A    between atoms: C_6  and  C_7
REMARK    3  A    between atoms: C_7  and  N_8
REMARK    4  A    between atoms: C_9  and  C_11
REMARK    5  A    between atoms: C_16  and  C_17
REMARK    6  A    between atoms: C_19  and  C_20
REMARK                            x       y       z     vdW  Elec       q    Type
REMARK                         _______ _______ _______ _____ _____    ______ ____
ROOT
ATOM      1  C   UNL     1       5.744   5.147  15.997  0.00  0.00    +0.000 A 
ATOM      2  C   UNL     1       5.552   4.067  16.867  0.00  0.00    +0.000 A 
ATOM      3  C   UNL     1       4.718   4.189  17.982  0.00  0.00    +0.000 A 
ATOM      4  C   UNL     1       4.062   5.407  18.226  0.00  0.00    +0.000 A 
ATOM      5  C   UNL     1       3.168   5.848  19.236  0.00  0.00    +0.000 A 
ATOM      6  C   UNL     1       2.801   7.140  18.938  0.00  0.00    +0.000 A 
ATOM      7  N   UNL     1       3.495   7.526  17.817  0.00  0.00    +0.000 N 
ATOM      8  C   UNL     1       4.266   6.479  17.352  0.00  0.00    +0.000 A 
ATOM      9  C   UNL     1       5.120   6.385  16.239  0.00  0.00    +0.000 A 
ATOM     10  H   UNL     1       3.414   8.439  17.396  0.00  0.00    +0.000 HD
ENDROOT
BRANCH   6  11
ATOM     11  C   UNL     1       1.832   7.981  19.676  0.00  0.00    +0.000 A 
ATOM     12  C   UNL     1       1.213   9.150  19.186  0.00  0.00    +0.000 A 
ATOM     13  C   UNL     1       0.389   9.592  20.201  0.00  0.00    +0.000 A 
ATOM     14  N   UNL     1       0.581   8.688  21.216  0.00  0.00    +0.000 N 
ATOM     15  N   UNL     1       1.445   7.696  20.923  0.00  0.00    +0.000 NA
ATOM     16  H   UNL     1       0.138   8.682  22.126  0.00  0.00    +0.000 HD
BRANCH  13  17
ATOM     17  C   UNL     1      -0.536  10.721  20.265  0.00  0.00    +0.000 A 
ATOM     18  C   UNL     1      -0.679  11.447  21.457  0.00  0.00    +0.000 A 
ATOM     19  C   UNL     1      -1.552  12.537  21.531  0.00  0.00    +0.000 A 
ATOM     20  C   UNL     1      -2.294  12.910  20.414  0.00  0.00    +0.000 A 
ATOM     21  C   UNL     1      -2.167  12.194  19.226  0.00  0.00    +0.000 A 
ATOM     22  C   UNL     1      -1.295  11.104  19.152  0.00  0.00    +0.000 A 
ENDBRANCH  13  17
ENDBRANCH   6  11
BRANCH   1  24
ATOM     23  N   UNL     1       6.166   4.241  13.768  0.00  0.00    +0.000 N 
ATOM     24  C   UNL     1       6.643   5.013  14.812  0.00  0.00    +0.000 C 
ATOM     25  O   UNL     1       7.727   5.582  14.786  0.00  0.00    +0.000 OA
ATOM     26  H   UNL     1       5.169   4.070  13.721  0.00  0.00    +0.000 HD
BRANCH  23  27
ATOM     27  C   UNL     1       6.921   4.110  12.544  0.00  0.00    +0.000 C 
BRANCH  27  33
ATOM     28  C   UNL     1       3.901   3.185  11.343  0.00  0.00    +0.000 C 
ATOM     29  C   UNL     1       5.231   2.547  11.340  0.00  0.00    +0.000 A 
ATOM     30  O   UNL     1       5.291   1.315  10.762  0.00  0.00    +0.000 OA
ATOM     31  N   UNL     1       6.583   0.831  10.838  0.00  0.00    +0.000 NA
ATOM     32  C   UNL     1       7.278   1.781  11.464  0.00  0.00    +0.000 A 
ATOM     33  C   UNL     1       6.484   2.901  11.805  0.00  0.00    +0.000 A 
ENDBRANCH  27  33
ENDBRANCH  23  27
ENDBRANCH   1  24
TORSDOF 5
ENDMDL
MODEL 7
REMARK VINA RESULT:      -8.4      3.539      4.121
REMARK  Name = 
REMARK  6 active torsions:
REMARK  status: ('A' for Active; 'I' for Inactive)
REMARK    1  A    between atoms: C_1  and  C_2
REMARK    2  A    between atoms: C_6  and  C_7
REMARK    3  A    between atoms: C_7  and  N_8
REMARK    4  A    between atoms: C_9  and  C_11
REMARK    5  A    between atoms: C_16  and  C_17
REMARK    6  A    between atoms: C_19  and  C_20
REMARK                            x       y       z     vdW  Elec       q    Type
REMARK                         _______ _______ _______ _____ _____    ______ ____
ROOT
ATOM      1  C   UNL     1       2.303   7.480  19.094  0.00  0.00    +0.000 A 
ATOM      2  C   UNL     1       2.100   8.242  17.937  0.00  0.00    +0.000 A 
ATOM      3  C   UNL     1       1.329   9.408  17.976  0.00  0.00    +0.000 A 
ATOM      4  C   UNL     1       0.759   9.819  19.193  0.00  0.00    +0.000 A 
ATOM      5  C   UNL     1      -0.049  10.924  19.565  0.00  0.00    +0.000 A 
ATOM      6  C   UNL     1      -0.273  10.844  20.920  0.00  0.00    +0.000 A 
ATOM      7  N   UNL     1       0.315   9.688  21.375  0.00  0.00    +0.000 N 
ATOM      8  C   UNL     1       0.965   9.046  20.339  0.00  0.00    +0.000 A 
ATOM      9  C   UNL     1       1.716   7.859  20.315  0.00  0.00    +0.000 A 
ATOM     10  H   UNL     1       0.286   9.387  22.337  0.00  0.00    +0.000 HD
ENDROOT
BRANCH   6  11
ATOM     11  C   UNL     1      -1.007  11.817  21.759  0.00  0.00    +0.000 A 
ATOM     12  C   UNL     1      -2.303  12.313  21.507  0.00  0.00    +0.000 A 
ATOM     13  C   UNL     1      -2.584  13.178  22.545  0.00  0.00    +0.000 A 
ATOM     14  N   UNL     1      -1.452  13.158  23.321  0.00  0.00    +0.000 N 
ATOM     15  N   UNL     1      -0.482  12.336  22.874  0.00  0.00    +0.000 NA
ATOM     16  H   UNL     1      -1.287  13.668  24.181  0.00  0.00    +0.000 HD
BRANCH  13  17
ATOM     17  C   UNL     1      -3.784  13.952  22.854  0.00  0.00    +0.000 A 
ATOM     18  C   UNL     1      -4.982  13.693  22.173  0.00  0.00    +0.000 A 
ATOM     19  C   UNL     1      -6.142  14.418  22.465  0.00  0.00    +0.000 A 
ATOM     20  C   UNL     1      -6.114  15.411  23.440  0.00  0.00    +0.000 A 
ATOM     21  C   UNL     1      -4.929  15.683  24.119  0.00  0.00    +0.000 A 
ATOM     22  C   UNL     1      -3.769  14.960  23.826  0.00  0.00    +0.000 A 
ENDBRANCH  13  17
ENDBRANCH   6  11
BRANCH   1  24
ATOM     23  N   UNL     1       4.049   6.150  18.020  0.00  0.00    +0.000 N 
ATOM     24  C   UNL     1       3.121   6.231  19.043  0.00  0.00    +0.000 C 
ATOM     25  O   UNL     1       2.970   5.355  19.885  0.00  0.00    +0.000 OA
ATOM     26  H   UNL     1       4.334   7.010  17.570  0.00  0.00    +0.000 HD
BRANCH  23  27
ATOM     27  C   UNL     1       4.944   5.022  17.927  0.00  0.00    +0.000 C 
BRANCH  27  33
ATOM     28  C   UNL     1       7.719   6.949  17.873  0.00  0.00    +0.000 C 
ATOM     29  C   UNL     1       7.075   6.072  16.876  0.00  0.00    +0.000 A 
ATOM     30  O   UNL     1       7.682   6.021  15.659  0.00  0.00    +0.000 OA
ATOM     31  N   UNL     1       6.973   5.179  14.822  0.00  0.00    +0.000 NA
ATOM     32  C   UNL     1       5.948   4.741  15.553  0.00  0.00    +0.000 A 
ATOM     33  C   UNL     1       5.954   5.262  16.869  0.00  0.00    +0.000 A 
ENDBRANCH  27  33
ENDBRANCH  23  27
ENDBRANCH   1  24
TORSDOF 5
ENDMDL
MODEL 8
REMARK VINA RESULT:      -8.4      0.710      1.085
REMARK  Name = 
REMARK  6 active torsions:
REMARK  status: ('A' for Active; 'I' for Inactive)
REMARK    1  A    between atoms: C_1  and  C_2
REMARK    2  A    between atoms: C_6  and  C_7
REMARK    3  A    between atoms: C_7  and  N_8
REMARK    4  A    between atoms: C_9  and  C_11
REMARK    5  A    between atoms: C_16  and  C_17
REMARK    6  A    between atoms: C_19  and  C_20
REMARK                            x       y       z     vdW  Elec       q    Type
REMARK                         _______ _______ _______ _____ _____    ______ ____
ROOT
ATOM      1  C   UNL     1       2.687   6.199  19.077  0.00  0.00    +0.000 A 
ATOM      2  C   UNL     1       2.193   6.159  20.386  0.00  0.00    +0.000 A 
ATOM      3  C   UNL     1       1.492   7.245  20.919  0.00  0.00    +0.000 A 
ATOM      4  C   UNL     1       1.278   8.385  20.126  0.00  0.00    +0.000 A 
ATOM      5  C   UNL     1       0.620   9.621  20.355  0.00  0.00    +0.000 A 
ATOM      6  C   UNL     1       0.679  10.351  19.190  0.00  0.00    +0.000 A 
ATOM      7  N   UNL     1       1.411   9.629  18.279  0.00  0.00    +0.000 N 
ATOM      8  C   UNL     1       1.781   8.415  18.822  0.00  0.00    +0.000 A 
ATOM      9  C   UNL     1       2.508   7.343  18.277  0.00  0.00    +0.000 A 
ATOM     10  H   UNL     1       1.613   9.950  17.344  0.00  0.00    +0.000 HD
ENDROOT
BRANCH   6  11
ATOM     11  C   UNL     1       0.067  11.675  18.939  0.00  0.00    +0.000 A 
ATOM     12  C   UNL     1       0.367  12.868  19.630  0.00  0.00    +0.000 A 
ATOM     13  C   UNL     1      -0.427  13.843  19.060  0.00  0.00    +0.000 A 
ATOM     14  N   UNL     1      -1.148  13.177  18.100  0.00  0.00    +0.000 N 
ATOM     15  N   UNL     1      -0.865  11.863  17.999  0.00  0.00    +0.000 NA
ATOM     16  H   UNL     1      -1.836  13.567  17.468  0.00  0.00    +0.000 HD
BRANCH  13  17
ATOM     17  C   UNL     1      -0.524  15.277  19.320  0.00  0.00    +0.000 A 
ATOM     18  C   UNL     1       0.076  16.193  18.444  0.00  0.00    +0.000 A 
ATOM     19  C   UNL     1      -0.016  17.569  18.673  0.00  0.00    +0.000 A 
ATOM     20  C   UNL     1      -0.709  18.043  19.784  0.00  0.00    +0.000 A 
ATOM     21  C   UNL     1      -1.305  17.145  20.666  0.00  0.00    +0.000 A 
ATOM     22  C   UNL     1      -1.211  15.769  20.437  0.00  0.00    +0.000 A 
ENDBRANCH  13  17
ENDBRANCH   6  11
BRANCH   1  24
ATOM     23  N   UNL     1       3.842   5.149  17.198  0.00  0.00    +0.000 N 
ATOM     24  C   UNL     1       3.442   5.038  18.518  0.00  0.00    +0.000 C 
ATOM     25  O   UNL     1       3.694   4.066  19.218  0.00  0.00    +0.000 OA
ATOM     26  H   UNL     1       3.878   6.074  16.789  0.00  0.00    +0.000 HD
BRANCH  23  27
ATOM     27  C   UNL     1       4.644   4.118  16.584  0.00  0.00    +0.000 C 
BRANCH  27  33
ATOM     28  C   UNL     1       6.994   6.215  17.808  0.00  0.00    +0.000 C 
ATOM     29  C   UNL     1       6.785   5.586  16.489  0.00  0.00    +0.000 A 
ATOM     30  O   UNL     1       7.695   5.914  15.531  0.00  0.00    +0.000 OA
ATOM     31  N   UNL     1       7.376   5.270  14.350  0.00  0.00    +0.000 NA
ATOM     32  C   UNL     1       6.276   4.568  14.620  0.00  0.00    +0.000 A 
ATOM     33  C   UNL     1       5.849   4.717  15.961  0.00  0.00    +0.000 A 
ENDBRANCH  27  33
ENDBRANCH  23  27
ENDBRANCH   1  24
TORSDOF 5
ENDMDL
MODEL 9
REMARK VINA RESULT:      -8.4      3.513      3.962
REMARK  Name = 
REMARK  6 active torsions:
REMARK  status: ('A' for Active; 'I' for Inactive)
REMARK    1  A    between atoms: C_1  and  C_2
REMARK    2  A    between atoms: C_6  and  C_7
REMARK    3  A    between atoms: C_7  and  N_8
REMARK    4  A    between atoms: C_9  and  C_11
REMARK    5  A    between atoms: C_16  and  C_17
REMARK    6  A    between atoms: C_19  and  C_20
REMARK                            x       y       z     vdW  Elec       q    Type
REMARK                         _______ _______ _______ _____ _____    ______ ____
ROOT
ATOM      1  C   UNL     1       2.341   7.618  19.030  0.00  0.00    +0.000 A 
ATOM      2  C   UNL     1       2.150   8.533  17.987  0.00  0.00    +0.000 A 
ATOM      3  C   UNL     1       1.389   9.690  18.183  0.00  0.00    +0.000 A 
ATOM      4  C   UNL     1       0.817   9.936  19.443  0.00  0.00    +0.000 A 
ATOM      5  C   UNL     1       0.017  10.987  19.960  0.00  0.00    +0.000 A 
ATOM      6  C   UNL     1      -0.214  10.724  21.291  0.00  0.00    +0.000 A 
ATOM      7  N   UNL     1       0.362   9.511  21.585  0.00  0.00    +0.000 N 
ATOM      8  C   UNL     1       1.011   9.012  20.473  0.00  0.00    +0.000 A 
ATOM      9  C   UNL     1       1.752   7.832  20.290  0.00  0.00    +0.000 A 
ATOM     10  H   UNL     1       0.326   9.082  22.497  0.00  0.00    +0.000 HD
ENDROOT
BRANCH   6  11
ATOM     11  C   UNL     1      -0.943  11.580  22.253  0.00  0.00    +0.000 A 
ATOM     12  C   UNL     1      -0.772  12.971  22.416  0.00  0.00    +0.000 A 
ATOM     13  C   UNL     1      -1.656  13.345  23.408  0.00  0.00    +0.000 A 
ATOM     14  N   UNL     1      -2.270  12.174  23.777  0.00  0.00    +0.000 N 
ATOM     15  N   UNL     1      -1.863  11.089  23.089  0.00  0.00    +0.000 NA
ATOM     16  H   UNL     1      -2.991  12.052  24.479  0.00  0.00    +0.000 HD
BRANCH  13  17
ATOM     17  C   UNL     1      -1.968  14.655  23.974  0.00  0.00    +0.000 A 
ATOM     18  C   UNL     1      -3.297  15.098  24.033  0.00  0.00    +0.000 A 
ATOM     19  C   UNL     1      -3.612  16.345  24.582  0.00  0.00    +0.000 A 
ATOM     20  C   UNL     1      -2.599  17.163  25.075  0.00  0.00    +0.000 A 
ATOM     21  C   UNL     1      -1.274  16.739  25.016  0.00  0.00    +0.000 A 
ATOM     22  C   UNL     1      -0.959  15.492  24.467  0.00  0.00    +0.000 A 
ENDBRANCH  13  17
ENDBRANCH   6  11
BRANCH   1  24
ATOM     23  N   UNL     1       3.514   6.114  17.504  0.00  0.00    +0.000 N 
ATOM     24  C   UNL     1       3.148   6.381  18.811  0.00  0.00    +0.000 C 
ATOM     25  O   UNL     1       3.470   5.674  19.758  0.00  0.00    +0.000 OA
ATOM     26  H   UNL     1       3.489   6.876  16.839  0.00  0.00    +0.000 HD
BRANCH  23  27
ATOM     27  C   UNL     1       4.360   4.986  17.193  0.00  0.00    +0.000 C 
BRANCH  27  33
ATOM     28  C   UNL     1       6.172   3.917  14.548  0.00  0.00    +0.000 C 
ATOM     29  C   UNL     1       6.369   4.987  15.545  0.00  0.00    +0.000 A 
ATOM     30  O   UNL     1       7.523   5.700  15.423  0.00  0.00    +0.000 OA
ATOM     31  N   UNL     1       7.585   6.654  16.420  0.00  0.00    +0.000 NA
ATOM     32  C   UNL     1       6.467   6.495  17.129  0.00  0.00    +0.000 A 
ATOM     33  C   UNL     1       5.646   5.459  16.625  0.00  0.00    +0.000 A 
ENDBRANCH  27  33
ENDBRANCH  23  27
ENDBRANCH   1  24
TORSDOF 5
ENDMDL
