MODEL 1
REMARK VINA RESULT:      -7.5      0.000      0.000
REMARK  Name = 
REMARK  13 active torsions:
REMARK  status: ('A' for Active; 'I' for Inactive)
REMARK    1  A    between atoms: C_1  and  O_2
REMARK    2  A    between atoms: O_2  and  C_3
REMARK    3  A    between atoms: C_8  and  O_9
REMARK    4  A    between atoms: O_9  and  C_10
REMARK    5  A    between atoms: N_12  and  C_13
REMARK    6  A    between atoms: C_13  and  C_14
REMARK    7  A    between atoms: C_14  and  C_15
REMARK    8  A    between atoms: C_15  and  C_16
REMARK    9  A    between atoms: C_16  and  N_17
REMARK   10  A    between atoms: C_22  and  O_23
REMARK   11  A    between atoms: O_23  and  C_24
REMARK   12  A    between atoms: C_25  and  O_26
REMARK   13  A    between atoms: O_26  and  C_27
REMARK                            x       y       z     vdW  Elec       q    Type
REMARK                         _______ _______ _______ _____ _____    ______ ____
ROOT
ATOM      1  C   UNL     1       1.019   5.286  20.421  0.00  0.00    +0.000 C 
ENDROOT
BRANCH   1   2
ATOM      2  C   UNL     1       1.450   3.929  20.978  0.00  0.00    +0.000 C 
BRANCH   2   3
ATOM      3  C   UNL     1       2.647   3.307  20.238  0.00  0.00    +0.000 C 
BRANCH   3  11
ATOM      4  C   UNL     1       6.798   5.255  15.748  0.00  0.00    +0.000 A 
ATOM      5  C   UNL     1       5.872   4.202  15.820  0.00  0.00    +0.000 A 
ATOM      6  C   UNL     1       5.110   4.009  16.970  0.00  0.00    +0.000 A 
ATOM      7  C   UNL     1       5.273   4.867  18.063  0.00  0.00    +0.000 A 
ATOM      8  C   UNL     1       6.198   5.915  17.998  0.00  0.00    +0.000 A 
ATOM      9  C   UNL     1       6.955   6.133  16.840  0.00  0.00    +0.000 A 
ATOM     10  C   UNL     1       4.503   4.571  19.325  0.00  0.00    +0.000 C 
ATOM     11  N   UNL     1       3.105   4.139  19.118  0.00  0.00    +0.000 NA
ATOM     12  C   UNL     1       2.851   3.507  17.809  0.00  0.00    +0.000 C 
ATOM     13  C   UNL     1       4.081   2.920  17.103  0.00  0.00    +0.000 C 
BRANCH   4  15
ATOM     14  C   UNL     1       6.899   4.515  13.491  0.00  0.00    +0.000 C 
ATOM     15  O   UNL     1       7.427   5.329  14.530  0.00  0.00    +0.000 OA
ENDBRANCH   4  15
BRANCH   9  16
ATOM     16  O   UNL     1       7.832   7.176  16.706  0.00  0.00    +0.000 OA
ATOM     17  C   UNL     1       7.793   8.219  17.670  0.00  0.00    +0.000 C 
ENDBRANCH   9  16
ENDBRANCH   3  11
ENDBRANCH   2   3
ENDBRANCH   1   2
BRANCH   1  18
ATOM     18  C   UNL     1       1.763   6.448  21.080  0.00  0.00    +0.000 C 
BRANCH  18  19
ATOM     19  N   UNL     1       1.428   7.705  20.442  0.00  0.00    +0.000 N 
ATOM     20  C   UNL     1       2.038   8.051  19.261  0.00  0.00    +0.000 A 
ATOM     21  N   UNL     1       1.859   9.168  18.639  0.00  0.00    +0.000 NA
ATOM     22  C   UNL     1       0.980  10.093  19.217  0.00  0.00    +0.000 A 
ATOM     23  C   UNL     1       0.748  11.302  18.558  0.00  0.00    +0.000 A 
ATOM     24  C   UNL     1      -0.133  12.264  19.077  0.00  0.00    +0.000 A 
ATOM     25  C   UNL     1      -0.779  12.008  20.305  0.00  0.00    +0.000 A 
ATOM     26  C   UNL     1      -0.532  10.805  20.973  0.00  0.00    +0.000 A 
ATOM     27  C   UNL     1       0.329   9.857  20.425  0.00  0.00    +0.000 A 
ATOM     28  C   UNL     1       0.576   8.578  21.102  0.00  0.00    +0.000 A 
ATOM     29  O   UNL     1       0.056   8.342  22.189  0.00  0.00    +0.000 OA
BRANCH  24  30
ATOM     30  O   UNL     1      -0.396  13.447  18.441  0.00  0.00    +0.000 OA
ATOM     31  C   UNL     1       0.317  14.607  18.852  0.00  0.00    +0.000 C 
ENDBRANCH  24  30
BRANCH  25  32
ATOM     32  O   UNL     1      -1.667  12.792  20.992  0.00  0.00    +0.000 OA
ATOM     33  C   UNL     1      -3.043  12.725  20.663  0.00  0.00    +0.000 C 
ENDBRANCH  25  32
ENDBRANCH  18  19
ENDBRANCH   1  18
TORSDOF 9
ENDMDL
MODEL 2
REMARK VINA RESULT:      -7.4      6.975      9.828
REMARK  Name = 
REMARK  13 active torsions:
REMARK  status: ('A' for Active; 'I' for Inactive)
REMARK    1  A    between atoms: C_1  and  O_2
REMARK    2  A    between atoms: O_2  and  C_3
REMARK    3  A    between atoms: C_8  and  O_9
REMARK    4  A    between atoms: O_9  and  C_10
REMARK    5  A    between atoms: N_12  and  C_13
REMARK    6  A    between atoms: C_13  and  C_14
REMARK    7  A    between atoms: C_14  and  C_15
REMARK    8  A    between atoms: C_15  and  C_16
REMARK    9  A    between atoms: C_16  and  N_17
REMARK   10  A    between atoms: C_22  and  O_23
REMARK   11  A    between atoms: O_23  and  C_24
REMARK   12  A    between atoms: C_25  and  O_26
REMARK   13  A    between atoms: O_26  and  C_27
REMARK                            x       y       z     vdW  Elec       q    Type
REMARK                         _______ _______ _______ _____ _____    ______ ____
ROOT
ATOM      1  C   UNL     1      -6.844  14.427  22.517  0.00  0.00    +0.000 C 
ENDROOT
BRANCH   1   2
ATOM      2  C   UNL     1      -7.594  13.097  22.618  0.00  0.00    +0.000 C 
BRANCH   2   3
ATOM      3  C   UNL     1      -7.820  12.409  21.261  0.00  0.00    +0.000 C 
BRANCH   3  11
ATOM      4  C   UNL     1      -3.294  11.407  16.824  0.00  0.00    +0.000 A 
ATOM      5  C   UNL     1      -4.697  11.382  16.799  0.00  0.00    +0.000 A 
ATOM      6  C   UNL     1      -5.428  11.619  17.960  0.00  0.00    +0.000 A 
ATOM      7  C   UNL     1      -4.759  11.876  19.161  0.00  0.00    +0.000 A 
ATOM      8  C   UNL     1      -3.361  11.897  19.192  0.00  0.00    +0.000 A 
ATOM      9  C   UNL     1      -2.614  11.682  18.027  0.00  0.00    +0.000 A 
ATOM     10  C   UNL     1      -5.579  12.032  20.417  0.00  0.00    +0.000 C 
ATOM     11  N   UNL     1      -6.826  12.810  20.257  0.00  0.00    +0.000 NA
ATOM     12  C   UNL     1      -7.376  12.804  18.888  0.00  0.00    +0.000 C 
ATOM     13  C   UNL     1      -6.932  11.636  17.997  0.00  0.00    +0.000 C 
BRANCH   4  15
ATOM     14  C   UNL     1      -2.886   9.903  15.027  0.00  0.00    +0.000 C 
ATOM     15  O   UNL     1      -2.735  11.202  15.586  0.00  0.00    +0.000 OA
ENDBRANCH   4  15
BRANCH   9  16
ATOM     16  O   UNL     1      -1.246  11.747  17.994  0.00  0.00    +0.000 OA
ATOM     17  C   UNL     1      -0.631  13.027  17.993  0.00  0.00    +0.000 C 
ENDBRANCH   9  16
ENDBRANCH   3  11
ENDBRANCH   2   3
ENDBRANCH   1   2
BRANCH   1  18
ATOM     18  C   UNL     1      -5.805  14.594  23.626  0.00  0.00    +0.000 C 
BRANCH  18  19
ATOM     19  N   UNL     1      -4.478  14.267  23.144  0.00  0.00    +0.000 N 
ATOM     20  C   UNL     1      -3.854  15.106  22.254  0.00  0.00    +0.000 A 
ATOM     21  N   UNL     1      -2.700  14.885  21.718  0.00  0.00    +0.000 NA
ATOM     22  C   UNL     1      -2.046  13.697  22.068  0.00  0.00    +0.000 A 
ATOM     23  C   UNL     1      -0.787  13.437  21.521  0.00  0.00    +0.000 A 
ATOM     24  C   UNL     1      -0.072  12.272  21.844  0.00  0.00    +0.000 A 
ATOM     25  C   UNL     1      -0.653  11.335  22.723  0.00  0.00    +0.000 A 
ATOM     26  C   UNL     1      -1.921  11.587  23.256  0.00  0.00    +0.000 A 
ATOM     27  C   UNL     1      -2.599  12.762  22.938  0.00  0.00    +0.000 A 
ATOM     28  C   UNL     1      -3.919  13.052  23.512  0.00  0.00    +0.000 A 
ATOM     29  O   UNL     1      -4.465  12.239  24.253  0.00  0.00    +0.000 OA
BRANCH  24  30
ATOM     30  O   UNL     1       1.172  12.004  21.340  0.00  0.00    +0.000 OA
ATOM     31  C   UNL     1       1.882  13.056  20.698  0.00  0.00    +0.000 C 
ENDBRANCH  24  30
BRANCH  25  32
ATOM     32  O   UNL     1      -0.146  10.145  23.172  0.00  0.00    +0.000 OA
ATOM     33  C   UNL     1      -0.343   8.975  22.398  0.00  0.00    +0.000 C 
ENDBRANCH  25  32
ENDBRANCH  18  19
ENDBRANCH   1  18
TORSDOF 9
ENDMDL
MODEL 3
REMARK VINA RESULT:      -7.2      5.488      8.621
REMARK  Name = 
REMARK  13 active torsions:
REMARK  status: ('A' for Active; 'I' for Inactive)
REMARK    1  A    between atoms: C_1  and  O_2
REMARK    2  A    between atoms: O_2  and  C_3
REMARK    3  A    between atoms: C_8  and  O_9
REMARK    4  A    between atoms: O_9  and  C_10
REMARK    5  A    between atoms: N_12  and  C_13
REMARK    6  A    between atoms: C_13  and  C_14
REMARK    7  A    between atoms: C_14  and  C_15
REMARK    8  A    between atoms: C_15  and  C_16
REMARK    9  A    between atoms: C_16  and  N_17
REMARK   10  A    between atoms: C_22  and  O_23
REMARK   11  A    between atoms: O_23  and  C_24
REMARK   12  A    between atoms: C_25  and  O_26
REMARK   13  A    between atoms: O_26  and  C_27
REMARK                            x       y       z     vdW  Elec       q    Type
REMARK                         _______ _______ _______ _____ _____    ______ ____
ROOT
ATOM      1  C   UNL     1       8.541   8.557  18.290  0.00  0.00    +0.000 C 
ENDROOT
BRANCH   1   2
ATOM      2  C   UNL     1       7.572   7.425  17.944  0.00  0.00    +0.000 C 
BRANCH   2   3
ATOM      3  C   UNL     1       8.125   6.022  18.248  0.00  0.00    +0.000 C 
BRANCH   3  11
ATOM      4  C   UNL     1       2.046   3.974  18.432  0.00  0.00    +0.000 A 
ATOM      5  C   UNL     1       2.968   4.179  17.394  0.00  0.00    +0.000 A 
ATOM      6  C   UNL     1       4.241   4.673  17.667  0.00  0.00    +0.000 A 
ATOM      7  C   UNL     1       4.601   4.973  18.985  0.00  0.00    +0.000 A 
ATOM      8  C   UNL     1       3.684   4.775  20.023  0.00  0.00    +0.000 A 
ATOM      9  C   UNL     1       2.408   4.259  19.764  0.00  0.00    +0.000 A 
ATOM     10  C   UNL     1       5.951   5.596  19.233  0.00  0.00    +0.000 C 
ATOM     11  N   UNL     1       7.058   5.030  18.434  0.00  0.00    +0.000 NA
ATOM     12  C   UNL     1       6.636   4.414  17.161  0.00  0.00    +0.000 C 
ATOM     13  C   UNL     1       5.286   4.889  16.607  0.00  0.00    +0.000 C 
BRANCH   4  15
ATOM     14  C   UNL     1       0.516   2.155  18.500  0.00  0.00    +0.000 C 
ATOM     15  O   UNL     1       0.859   3.439  17.994  0.00  0.00    +0.000 OA
ENDBRANCH   4  15
BRANCH   9  16
ATOM     16  O   UNL     1       1.495   3.995  20.750  0.00  0.00    +0.000 OA
ATOM     17  C   UNL     1       1.903   3.198  21.853  0.00  0.00    +0.000 C 
ENDBRANCH   9  16
ENDBRANCH   3  11
ENDBRANCH   2   3
ENDBRANCH   1   2
BRANCH   1  18
ATOM     18  C   UNL     1       8.009   9.926  17.864  0.00  0.00    +0.000 C 
BRANCH  18  19
ATOM     19  N   UNL     1       8.865  10.988  18.355  0.00  0.00    +0.000 N 
ATOM     20  C   UNL     1       9.802  10.712  19.321  0.00  0.00    +0.000 A 
ATOM     21  N   UNL     1      10.574  11.589  19.870  0.00  0.00    +0.000 NA
ATOM     22  C   UNL     1      10.438  12.918  19.451  0.00  0.00    +0.000 A 
ATOM     23  C   UNL     1      11.273  13.888  20.010  0.00  0.00    +0.000 A 
ATOM     24  C   UNL     1      11.196  15.235  19.621  0.00  0.00    +0.000 A 
ATOM     25  C   UNL     1      10.237  15.617  18.660  0.00  0.00    +0.000 A 
ATOM     26  C   UNL     1       9.390  14.648  18.114  0.00  0.00    +0.000 A 
ATOM     27  C   UNL     1       9.502  13.314  18.500  0.00  0.00    +0.000 A 
ATOM     28  C   UNL     1       8.636  12.282  17.913  0.00  0.00    +0.000 A 
ATOM     29  O   UNL     1       7.769  12.590  17.100  0.00  0.00    +0.000 OA
BRANCH  24  30
ATOM     30  O   UNL     1      12.017  16.202  20.137  0.00  0.00    +0.000 OA
ATOM     31  C   UNL     1      11.593  16.897  21.303  0.00  0.00    +0.000 C 
ENDBRANCH  24  30
BRANCH  25  32
ATOM     32  O   UNL     1       9.987  16.857  18.137  0.00  0.00    +0.000 OA
ATOM     33  C   UNL     1      10.755  17.310  17.036  0.00  0.00    +0.000 C 
ENDBRANCH  25  32
ENDBRANCH  18  19
ENDBRANCH   1  18
TORSDOF 9
ENDMDL
MODEL 4
REMARK VINA RESULT:      -7.1      1.355      2.286
REMARK  Name = 
REMARK  13 active torsions:
REMARK  status: ('A' for Active; 'I' for Inactive)
REMARK    1  A    between atoms: C_1  and  O_2
REMARK    2  A    between atoms: O_2  and  C_3
REMARK    3  A    between atoms: C_8  and  O_9
REMARK    4  A    between atoms: O_9  and  C_10
REMARK    5  A    between atoms: N_12  and  C_13
REMARK    6  A    between atoms: C_13  and  C_14
REMARK    7  A    between atoms: C_14  and  C_15
REMARK    8  A    between atoms: C_15  and  C_16
REMARK    9  A    between atoms: C_16  and  N_17
REMARK   10  A    between atoms: C_22  and  O_23
REMARK   11  A    between atoms: O_23  and  C_24
REMARK   12  A    between atoms: C_25  and  O_26
REMARK   13  A    between atoms: O_26  and  C_27
REMARK                            x       y       z     vdW  Elec       q    Type
REMARK                         _______ _______ _______ _____ _____    ______ ____
ROOT
ATOM      1  C   UNL     1       0.992   6.351  20.435  0.00  0.00    +0.000 C 
ENDROOT
BRANCH   1   2
ATOM      2  C   UNL     1       1.645   5.072  20.960  0.00  0.00    +0.000 C 
BRANCH   2   3
ATOM      3  C   UNL     1       1.980   4.050  19.860  0.00  0.00    +0.000 C 
BRANCH   3  11
ATOM      4  C   UNL     1       6.915   5.308  15.957  0.00  0.00    +0.000 A 
ATOM      5  C   UNL     1       6.011   4.240  16.061  0.00  0.00    +0.000 A 
ATOM      6  C   UNL     1       5.036   4.234  17.057  0.00  0.00    +0.000 A 
ATOM      7  C   UNL     1       4.964   5.297  17.963  0.00  0.00    +0.000 A 
ATOM      8  C   UNL     1       5.867   6.361  17.866  0.00  0.00    +0.000 A 
ATOM      9  C   UNL     1       6.837   6.390  16.857  0.00  0.00    +0.000 A 
ATOM     10  C   UNL     1       3.961   5.211  19.085  0.00  0.00    +0.000 C 
ATOM     11  N   UNL     1       2.640   4.670  18.704  0.00  0.00    +0.000 NA
ATOM     12  C   UNL     1       2.663   3.780  17.527  0.00  0.00    +0.000 C 
ATOM     13  C   UNL     1       4.019   3.136  17.206  0.00  0.00    +0.000 C 
BRANCH   4  15
ATOM     14  C   UNL     1       7.204   4.748  13.664  0.00  0.00    +0.000 C 
ATOM     15  O   UNL     1       7.775   5.177  14.893  0.00  0.00    +0.000 OA
ENDBRANCH   4  15
BRANCH   9  16
ATOM     16  O   UNL     1       7.706   7.434  16.685  0.00  0.00    +0.000 OA
ATOM     17  C   UNL     1       8.083   8.193  17.825  0.00  0.00    +0.000 C 
ENDBRANCH   9  16
ENDBRANCH   3  11
ENDBRANCH   2   3
ENDBRANCH   1   2
BRANCH   1  18
ATOM     18  C   UNL     1       1.900   7.571  20.588  0.00  0.00    +0.000 C 
BRANCH  18  19
ATOM     19  N   UNL     1       1.165   8.698  21.128  0.00  0.00    +0.000 N 
ATOM     20  C   UNL     1       0.748   8.671  22.436  0.00  0.00    +0.000 A 
ATOM     21  N   UNL     1       0.039   9.591  23.002  0.00  0.00    +0.000 NA
ATOM     22  C   UNL     1      -0.333  10.690  22.218  0.00  0.00    +0.000 A 
ATOM     23  C   UNL     1      -1.082  11.712  22.806  0.00  0.00    +0.000 A 
ATOM     24  C   UNL     1      -1.473  12.848  22.078  0.00  0.00    +0.000 A 
ATOM     25  C   UNL     1      -1.119  12.943  20.716  0.00  0.00    +0.000 A 
ATOM     26  C   UNL     1      -0.384  11.911  20.124  0.00  0.00    +0.000 A 
ATOM     27  C   UNL     1       0.011  10.806  20.874  0.00  0.00    +0.000 A 
ATOM     28  C   UNL     1       0.807   9.728  20.271  0.00  0.00    +0.000 A 
ATOM     29  O   UNL     1       1.100   9.767  19.080  0.00  0.00    +0.000 OA
BRANCH  24  30
ATOM     30  O   UNL     1      -2.188  13.873  22.635  0.00  0.00    +0.000 OA
ATOM     31  C   UNL     1      -3.583  13.947  22.368  0.00  0.00    +0.000 C 
ENDBRANCH  24  30
BRANCH  25  32
ATOM     32  O   UNL     1      -1.389  13.945  19.823  0.00  0.00    +0.000 OA
ATOM     33  C   UNL     1      -0.347  14.825  19.438  0.00  0.00    +0.000 C 
ENDBRANCH  25  32
ENDBRANCH  18  19
ENDBRANCH   1  18
TORSDOF 9
ENDMDL
MODEL 5
REMARK VINA RESULT:      -7.1      3.134      4.792
REMARK  Name = 
REMARK  13 active torsions:
REMARK  status: ('A' for Active; 'I' for Inactive)
REMARK    1  A    between atoms: C_1  and  O_2
REMARK    2  A    between atoms: O_2  and  C_3
REMARK    3  A    between atoms: C_8  and  O_9
REMARK    4  A    between atoms: O_9  and  C_10
REMARK    5  A    between atoms: N_12  and  C_13
REMARK    6  A    between atoms: C_13  and  C_14
REMARK    7  A    between atoms: C_14  and  C_15
REMARK    8  A    between atoms: C_15  and  C_16
REMARK    9  A    between atoms: C_16  and  N_17
REMARK   10  A    between atoms: C_22  and  O_23
REMARK   11  A    between atoms: O_23  and  C_24
REMARK   12  A    between atoms: C_25  and  O_26
REMARK   13  A    between atoms: O_26  and  C_27
REMARK                            x       y       z     vdW  Elec       q    Type
REMARK                         _______ _______ _______ _____ _____    ______ ____
ROOT
ATOM      1  C   UNL     1      -0.149  10.398  22.227  0.00  0.00    +0.000 C 
ENDROOT
BRANCH   1   2
ATOM      2  C   UNL     1       0.879   9.267  22.292  0.00  0.00    +0.000 C 
BRANCH   2   3
ATOM      3  C   UNL     1       0.537   8.066  21.393  0.00  0.00    +0.000 C 
BRANCH   3  11
ATOM      4  C   UNL     1       3.775   3.804  17.854  0.00  0.00    +0.000 A 
ATOM      5  C   UNL     1       3.298   5.101  17.611  0.00  0.00    +0.000 A 
ATOM      6  C   UNL     1       2.584   5.786  18.591  0.00  0.00    +0.000 A 
ATOM      7  C   UNL     1       2.335   5.174  19.824  0.00  0.00    +0.000 A 
ATOM      8  C   UNL     1       2.804   3.879  20.069  0.00  0.00    +0.000 A 
ATOM      9  C   UNL     1       3.542   3.187  19.100  0.00  0.00    +0.000 A 
ATOM     10  C   UNL     1       1.476   5.905  20.825  0.00  0.00    +0.000 C 
ATOM     11  N   UNL     1       1.736   7.357  20.929  0.00  0.00    +0.000 NA
ATOM     12  C   UNL     1       2.310   7.961  19.711  0.00  0.00    +0.000 C 
ATOM     13  C   UNL     1       2.070   7.188  18.407  0.00  0.00    +0.000 C 
BRANCH   4  15
ATOM     14  C   UNL     1       5.506   4.138  16.259  0.00  0.00    +0.000 C 
ATOM     15  O   UNL     1       4.498   3.295  16.803  0.00  0.00    +0.000 OA
ENDBRANCH   4  15
BRANCH   9  16
ATOM     16  O   UNL     1       4.070   1.942  19.312  0.00  0.00    +0.000 OA
ATOM     17  C   UNL     1       4.791   1.709  20.513  0.00  0.00    +0.000 C 
ENDBRANCH   9  16
ENDBRANCH   3  11
ENDBRANCH   2   3
ENDBRANCH   1   2
BRANCH   1  18
ATOM     18  C   UNL     1       0.168  11.407  21.123  0.00  0.00    +0.000 C 
BRANCH  18  19
ATOM     19  N   UNL     1      -0.547  11.082  19.905  0.00  0.00    +0.000 N 
ATOM     20  C   UNL     1       0.065  10.316  18.943  0.00  0.00    +0.000 A 
ATOM     21  N   UNL     1      -0.455  10.015  17.800  0.00  0.00    +0.000 NA
ATOM     22  C   UNL     1      -1.733  10.514  17.524  0.00  0.00    +0.000 A 
ATOM     23  C   UNL     1      -2.332  10.189  16.305  0.00  0.00    +0.000 A 
ATOM     24  C   UNL     1      -3.619  10.645  15.974  0.00  0.00    +0.000 A 
ATOM     25  C   UNL     1      -4.309  11.469  16.888  0.00  0.00    +0.000 A 
ATOM     26  C   UNL     1      -3.701  11.808  18.101  0.00  0.00    +0.000 A 
ATOM     27  C   UNL     1      -2.433  11.323  18.414  0.00  0.00    +0.000 A 
ATOM     28  C   UNL     1      -1.795  11.649  19.696  0.00  0.00    +0.000 A 
ATOM     29  O   UNL     1      -2.356  12.392  20.497  0.00  0.00    +0.000 OA
BRANCH  24  30
ATOM     30  O   UNL     1      -4.237  10.324  14.796  0.00  0.00    +0.000 OA
ATOM     31  C   UNL     1      -3.427   9.986  13.677  0.00  0.00    +0.000 C 
ENDBRANCH  24  30
BRANCH  25  32
ATOM     32  O   UNL     1      -5.556  12.022  16.778  0.00  0.00    +0.000 OA
ATOM     33  C   UNL     1      -6.292  12.303  17.956  0.00  0.00    +0.000 C 
ENDBRANCH  25  32
ENDBRANCH  18  19
ENDBRANCH   1  18
TORSDOF 9
ENDMDL
MODEL 6
REMARK VINA RESULT:      -7.1      1.464      8.543
REMARK  Name = 
REMARK  13 active torsions:
REMARK  status: ('A' for Active; 'I' for Inactive)
REMARK    1  A    between atoms: C_1  and  O_2
REMARK    2  A    between atoms: O_2  and  C_3
REMARK    3  A    between atoms: C_8  and  O_9
REMARK    4  A    between atoms: O_9  and  C_10
REMARK    5  A    between atoms: N_12  and  C_13
REMARK    6  A    between atoms: C_13  and  C_14
REMARK    7  A    between atoms: C_14  and  C_15
REMARK    8  A    between atoms: C_15  and  C_16
REMARK    9  A    between atoms: C_16  and  N_17
REMARK   10  A    between atoms: C_22  and  O_23
REMARK   11  A    between atoms: O_23  and  C_24
REMARK   12  A    between atoms: C_25  and  O_26
REMARK   13  A    between atoms: O_26  and  C_27
REMARK                            x       y       z     vdW  Elec       q    Type
REMARK                         _______ _______ _______ _____ _____    ______ ____
ROOT
ATOM      1  C   UNL     1       1.606   3.606  20.153  0.00  0.00    +0.000 C 
ENDROOT
BRANCH   1   2
ATOM      2  C   UNL     1       1.307   5.080  20.429  0.00  0.00    +0.000 C 
BRANCH   2   3
ATOM      3  C   UNL     1       1.606   6.008  19.238  0.00  0.00    +0.000 C 
BRANCH   3  11
ATOM      4  C   UNL     1       0.762  12.253  20.446  0.00  0.00    +0.000 A 
ATOM      5  C   UNL     1       0.485  11.081  21.167  0.00  0.00    +0.000 A 
ATOM      6  C   UNL     1       0.761   9.832  20.617  0.00  0.00    +0.000 A 
ATOM      7  C   UNL     1       1.313   9.745  19.335  0.00  0.00    +0.000 A 
ATOM      8  C   UNL     1       1.587  10.910  18.610  0.00  0.00    +0.000 A 
ATOM      9  C   UNL     1       1.333  12.173  19.160  0.00  0.00    +0.000 A 
ATOM     10  C   UNL     1       1.510   8.376  18.733  0.00  0.00    +0.000 C 
ATOM     11  N   UNL     1       2.020   7.350  19.666  0.00  0.00    +0.000 NA
ATOM     12  C   UNL     1       1.708   7.608  21.085  0.00  0.00    +0.000 C 
ATOM     13  C   UNL     1       0.516   8.539  21.346  0.00  0.00    +0.000 C 
BRANCH   4  15
ATOM     14  C   UNL     1      -0.697  13.365  21.960  0.00  0.00    +0.000 C 
ATOM     15  O   UNL     1       0.474  13.395  21.153  0.00  0.00    +0.000 OA
ENDBRANCH   4  15
BRANCH   9  16
ATOM     16  O   UNL     1       1.635  13.342  18.515  0.00  0.00    +0.000 OA
ATOM     17  C   UNL     1       3.002  13.686  18.343  0.00  0.00    +0.000 C 
ENDBRANCH   9  16
ENDBRANCH   3  11
ENDBRANCH   2   3
ENDBRANCH   1   2
BRANCH   1  18
ATOM     18  C   UNL     1       3.088   3.272  20.326  0.00  0.00    +0.000 C 
BRANCH  18  19
ATOM     19  N   UNL     1       3.825   3.546  19.109  0.00  0.00    +0.000 N 
ATOM     20  C   UNL     1       3.697   2.702  18.034  0.00  0.00    +0.000 A 
ATOM     21  N   UNL     1       4.348   2.817  16.924  0.00  0.00    +0.000 NA
ATOM     22  C   UNL     1       5.254   3.880  16.818  0.00  0.00    +0.000 A 
ATOM     23  C   UNL     1       5.959   4.045  15.624  0.00  0.00    +0.000 A 
ATOM     24  C   UNL     1       6.870   5.100  15.449  0.00  0.00    +0.000 A 
ATOM     25  C   UNL     1       7.092   5.997  16.515  0.00  0.00    +0.000 A 
ATOM     26  C   UNL     1       6.399   5.819  17.716  0.00  0.00    +0.000 A 
ATOM     27  C   UNL     1       5.483   4.779  17.856  0.00  0.00    +0.000 A 
ATOM     28  C   UNL     1       4.728   4.599  19.103  0.00  0.00    +0.000 A 
ATOM     29  O   UNL     1       4.926   5.342  20.060  0.00  0.00    +0.000 OA
BRANCH  24  30
ATOM     30  O   UNL     1       7.557   5.298  14.282  0.00  0.00    +0.000 OA
ATOM     31  C   UNL     1       7.117   4.614  13.115  0.00  0.00    +0.000 C 
ENDBRANCH  24  30
BRANCH  25  32
ATOM     32  O   UNL     1       7.923   7.083  16.568  0.00  0.00    +0.000 OA
ATOM     33  C   UNL     1       7.674   8.095  17.528  0.00  0.00    +0.000 C 
ENDBRANCH  25  32
ENDBRANCH  18  19
ENDBRANCH   1  18
TORSDOF 9
ENDMDL
MODEL 7
REMARK VINA RESULT:      -7.1      6.090     10.274
REMARK  Name = 
REMARK  13 active torsions:
REMARK  status: ('A' for Active; 'I' for Inactive)
REMARK    1  A    between atoms: C_1  and  O_2
REMARK    2  A    between atoms: O_2  and  C_3
REMARK    3  A    between atoms: C_8  and  O_9
REMARK    4  A    between atoms: O_9  and  C_10
REMARK    5  A    between atoms: N_12  and  C_13
REMARK    6  A    between atoms: C_13  and  C_14
REMARK    7  A    between atoms: C_14  and  C_15
REMARK    8  A    between atoms: C_15  and  C_16
REMARK    9  A    between atoms: C_16  and  N_17
REMARK   10  A    between atoms: C_22  and  O_23
REMARK   11  A    between atoms: O_23  and  C_24
REMARK   12  A    between atoms: C_25  and  O_26
REMARK   13  A    between atoms: O_26  and  C_27
REMARK                            x       y       z     vdW  Elec       q    Type
REMARK                         _______ _______ _______ _____ _____    ______ ____
ROOT
ATOM      1  C   UNL     1       7.940   8.916  17.919  0.00  0.00    +0.000 C 
ENDROOT
BRANCH   1   2
ATOM      2  C   UNL     1       9.195   9.772  18.098  0.00  0.00    +0.000 C 
BRANCH   2   3
ATOM      3  C   UNL     1       9.327  10.392  19.500  0.00  0.00    +0.000 C 
BRANCH   3  11
ATOM      4  C   UNL     1      11.141  16.547  19.600  0.00  0.00    +0.000 A 
ATOM      5  C   UNL     1      11.058  15.578  18.588  0.00  0.00    +0.000 A 
ATOM      6  C   UNL     1      10.644  14.281  18.884  0.00  0.00    +0.000 A 
ATOM      7  C   UNL     1      10.315  13.941  20.200  0.00  0.00    +0.000 A 
ATOM      8  C   UNL     1      10.400  14.902  21.213  0.00  0.00    +0.000 A 
ATOM      9  C   UNL     1      10.795  16.215  20.926  0.00  0.00    +0.000 A 
ATOM     10  C   UNL     1       9.964  12.506  20.501  0.00  0.00    +0.000 C 
ATOM     11  N   UNL     1       9.112  11.845  19.490  0.00  0.00    +0.000 NA
ATOM     12  C   UNL     1       9.219  12.419  18.135  0.00  0.00    +0.000 C 
ATOM     13  C   UNL     1      10.505  13.204  17.843  0.00  0.00    +0.000 C 
BRANCH   4  15
ATOM     14  C   UNL     1      12.213  17.801  17.887  0.00  0.00    +0.000 C 
ATOM     15  O   UNL     1      11.518  17.780  19.128  0.00  0.00    +0.000 OA
ENDBRANCH   4  15
BRANCH   9  16
ATOM     16  O   UNL     1      10.841  17.205  21.870  0.00  0.00    +0.000 OA
ATOM     17  C   UNL     1      11.796  17.097  22.916  0.00  0.00    +0.000 C 
ENDBRANCH   9  16
ENDBRANCH   3  11
ENDBRANCH   2   3
ENDBRANCH   1   2
BRANCH   1  18
ATOM     18  C   UNL     1       8.159   7.466  18.350  0.00  0.00    +0.000 C 
BRANCH  18  19
ATOM     19  N   UNL     1       6.989   6.660  18.066  0.00  0.00    +0.000 N 
ATOM     20  C   UNL     1       6.146   7.025  17.045  0.00  0.00    +0.000 A 
ATOM     21  N   UNL     1       5.048   6.416  16.742  0.00  0.00    +0.000 NA
ATOM     22  C   UNL     1       4.693   5.306  17.519  0.00  0.00    +0.000 A 
ATOM     23  C   UNL     1       3.523   4.611  17.204  0.00  0.00    +0.000 A 
ATOM     24  C   UNL     1       3.120   3.482  17.935  0.00  0.00    +0.000 A 
ATOM     25  C   UNL     1       3.908   3.055  19.024  0.00  0.00    +0.000 A 
ATOM     26  C   UNL     1       5.070   3.762  19.350  0.00  0.00    +0.000 A 
ATOM     27  C   UNL     1       5.459   4.865  18.594  0.00  0.00    +0.000 A 
ATOM     28  C   UNL     1       6.692   5.599  18.908  0.00  0.00    +0.000 A 
ATOM     29  O   UNL     1       7.379   5.272  19.872  0.00  0.00    +0.000 OA
BRANCH  24  30
ATOM     30  O   UNL     1       1.990   2.771  17.634  0.00  0.00    +0.000 OA
ATOM     31  C   UNL     1       0.923   2.770  18.574  0.00  0.00    +0.000 C 
ENDBRANCH  24  30
BRANCH  25  32
ATOM     32  O   UNL     1       3.711   1.994  19.867  0.00  0.00    +0.000 OA
ATOM     33  C   UNL     1       4.715   1.669  20.813  0.00  0.00    +0.000 C 
ENDBRANCH  25  32
ENDBRANCH  18  19
ENDBRANCH   1  18
TORSDOF 9
ENDMDL
MODEL 8
REMARK VINA RESULT:      -7.0      0.991      1.074
REMARK  Name = 
REMARK  13 active torsions:
REMARK  status: ('A' for Active; 'I' for Inactive)
REMARK    1  A    between atoms: C_1  and  O_2
REMARK    2  A    between atoms: O_2  and  C_3
REMARK    3  A    between atoms: C_8  and  O_9
REMARK    4  A    between atoms: O_9  and  C_10
REMARK    5  A    between atoms: N_12  and  C_13
REMARK    6  A    between atoms: C_13  and  C_14
REMARK    7  A    between atoms: C_14  and  C_15
REMARK    8  A    between atoms: C_15  and  C_16
REMARK    9  A    between atoms: C_16  and  N_17
REMARK   10  A    between atoms: C_22  and  O_23
REMARK   11  A    between atoms: O_23  and  C_24
REMARK   12  A    between atoms: C_25  and  O_26
REMARK   13  A    between atoms: O_26  and  C_27
REMARK                            x       y       z     vdW  Elec       q    Type
REMARK                         _______ _______ _______ _____ _____    ______ ____
ROOT
ATOM      1  C   UNL     1       1.198   6.136  20.211  0.00  0.00    +0.000 C 
ENDROOT
BRANCH   1   2
ATOM      2  C   UNL     1       1.308   4.721  20.782  0.00  0.00    +0.000 C 
BRANCH   2   3
ATOM      3  C   UNL     1       2.233   3.796  19.972  0.00  0.00    +0.000 C 
BRANCH   3  11
ATOM      4  C   UNL     1       6.955   5.198  15.860  0.00  0.00    +0.000 A 
ATOM      5  C   UNL     1       6.026   4.150  15.947  0.00  0.00    +0.000 A 
ATOM      6  C   UNL     1       5.115   4.099  16.999  0.00  0.00    +0.000 A 
ATOM      7  C   UNL     1       5.131   5.095  17.980  0.00  0.00    +0.000 A 
ATOM      8  C   UNL     1       6.059   6.140  17.901  0.00  0.00    +0.000 A 
ATOM      9  C   UNL     1       6.966   6.215  16.836  0.00  0.00    +0.000 A 
ATOM     10  C   UNL     1       4.198   4.957  19.156  0.00  0.00    +0.000 C 
ATOM     11  N   UNL     1       2.839   4.480  18.822  0.00  0.00    +0.000 NA
ATOM     12  C   UNL     1       2.762   3.676  17.587  0.00  0.00    +0.000 C 
ATOM     13  C   UNL     1       4.075   3.021  17.136  0.00  0.00    +0.000 C 
BRANCH   4  15
ATOM     14  C   UNL     1       7.071   4.906  13.503  0.00  0.00    +0.000 C 
ATOM     15  O   UNL     1       7.743   5.121  14.737  0.00  0.00    +0.000 OA
ENDBRANCH   4  15
BRANCH   9  16
ATOM     16  O   UNL     1       7.855   7.245  16.683  0.00  0.00    +0.000 OA
ATOM     17  C   UNL     1       7.888   8.262  17.674  0.00  0.00    +0.000 C 
ENDBRANCH   9  16
ENDBRANCH   3  11
ENDBRANCH   2   3
ENDBRANCH   1   2
BRANCH   1  18
ATOM     18  C   UNL     1       1.472   7.210  21.264  0.00  0.00    +0.000 C 
BRANCH  18  19
ATOM     19  N   UNL     1       0.981   8.500  20.826  0.00  0.00    +0.000 N 
ATOM     20  C   UNL     1       1.404   9.015  19.625  0.00  0.00    +0.000 A 
ATOM     21  N   UNL     1       1.077  10.177  19.166  0.00  0.00    +0.000 NA
ATOM     22  C   UNL     1       0.234  10.968  19.956  0.00  0.00    +0.000 A 
ATOM     23  C   UNL     1      -0.156  12.220  19.478  0.00  0.00    +0.000 A 
ATOM     24  C   UNL     1      -1.012  13.054  20.215  0.00  0.00    +0.000 A 
ATOM     25  C   UNL     1      -1.469  12.621  21.478  0.00  0.00    +0.000 A 
ATOM     26  C   UNL     1      -1.064  11.374  21.964  0.00  0.00    +0.000 A 
ATOM     27  C   UNL     1      -0.232  10.556  21.202  0.00  0.00    +0.000 A 
ATOM     28  C   UNL     1       0.178   9.233  21.688  0.00  0.00    +0.000 A 
ATOM     29  O   UNL     1      -0.175   8.844  22.798  0.00  0.00    +0.000 OA
BRANCH  24  30
ATOM     30  O   UNL     1      -1.427  14.277  19.761  0.00  0.00    +0.000 OA
ATOM     31  C   UNL     1      -0.533  15.377  19.872  0.00  0.00    +0.000 C 
ENDBRANCH  24  30
BRANCH  25  32
ATOM     32  O   UNL     1      -2.298  13.260  22.360  0.00  0.00    +0.000 OA
ATOM     33  C   UNL     1      -2.918  12.510  23.390  0.00  0.00    +0.000 C 
ENDBRANCH  25  32
ENDBRANCH  18  19
ENDBRANCH   1  18
TORSDOF 9
ENDMDL
MODEL 9
REMARK VINA RESULT:      -7.0      5.416     10.090
REMARK  Name = 
REMARK  13 active torsions:
REMARK  status: ('A' for Active; 'I' for Inactive)
REMARK    1  A    between atoms: C_1  and  O_2
REMARK    2  A    between atoms: O_2  and  C_3
REMARK    3  A    between atoms: C_8  and  O_9
REMARK    4  A    between atoms: O_9  and  C_10
REMARK    5  A    between atoms: N_12  and  C_13
REMARK    6  A    between atoms: C_13  and  C_14
REMARK    7  A    between atoms: C_14  and  C_15
REMARK    8  A    between atoms: C_15  and  C_16
REMARK    9  A    between atoms: C_16  and  N_17
REMARK   10  A    between atoms: C_22  and  O_23
REMARK   11  A    between atoms: O_23  and  C_24
REMARK   12  A    between atoms: C_25  and  O_26
REMARK   13  A    between atoms: O_26  and  C_27
REMARK                            x       y       z     vdW  Elec       q    Type
REMARK                         _______ _______ _______ _____ _____    ______ ____
ROOT
ATOM      1  C   UNL     1       8.641   8.746  18.478  0.00  0.00    +0.000 C 
ENDROOT
BRANCH   1   2
ATOM      2  C   UNL     1       8.631  10.259  18.254  0.00  0.00    +0.000 C 
BRANCH   2   3
ATOM      3  C   UNL     1      10.035  10.883  18.173  0.00  0.00    +0.000 C 
BRANCH   3  11
ATOM      4  C   UNL     1       8.071  15.209  22.487  0.00  0.00    +0.000 A 
ATOM      5  C   UNL     1       8.649  13.935  22.588  0.00  0.00    +0.000 A 
ATOM      6  C   UNL     1       8.948  13.201  21.441  0.00  0.00    +0.000 A 
ATOM      7  C   UNL     1       8.665  13.738  20.181  0.00  0.00    +0.000 A 
ATOM      8  C   UNL     1       8.084  15.007  20.075  0.00  0.00    +0.000 A 
ATOM      9  C   UNL     1       7.798  15.763  21.219  0.00  0.00    +0.000 A 
ATOM     10  C   UNL     1       8.912  12.879  18.967  0.00  0.00    +0.000 C 
ATOM     11  N   UNL     1      10.160  12.088  19.004  0.00  0.00    +0.000 NA
ATOM     12  C   UNL     1      10.648  11.784  20.363  0.00  0.00    +0.000 C 
ATOM     13  C   UNL     1       9.594  11.843  21.478  0.00  0.00    +0.000 C 
BRANCH   4  15
ATOM     14  C   UNL     1       6.674  15.513  24.387  0.00  0.00    +0.000 C 
ATOM     15  O   UNL     1       7.888  15.810  23.708  0.00  0.00    +0.000 OA
ENDBRANCH   4  15
BRANCH   9  16
ATOM     16  O   UNL     1       7.283  17.030  21.167  0.00  0.00    +0.000 OA
ATOM     17  C   UNL     1       7.303  17.717  19.924  0.00  0.00    +0.000 C 
ENDBRANCH   9  16
ENDBRANCH   3  11
ENDBRANCH   2   3
ENDBRANCH   1   2
BRANCH   1  18
ATOM     18  C   UNL     1       7.896   7.992  17.377  0.00  0.00    +0.000 C 
BRANCH  18  19
ATOM     19  N   UNL     1       7.111   6.908  17.933  0.00  0.00    +0.000 N 
ATOM     20  C   UNL     1       7.550   6.264  19.064  0.00  0.00    +0.000 A 
ATOM     21  N   UNL     1       6.962   5.252  19.610  0.00  0.00    +0.000 NA
ATOM     22  C   UNL     1       5.796   4.777  18.997  0.00  0.00    +0.000 A 
ATOM     23  C   UNL     1       5.124   3.698  19.575  0.00  0.00    +0.000 A 
ATOM     24  C   UNL     1       3.942   3.185  19.018  0.00  0.00    +0.000 A 
ATOM     25  C   UNL     1       3.436   3.763  17.835  0.00  0.00    +0.000 A 
ATOM     26  C   UNL     1       4.119   4.833  17.247  0.00  0.00    +0.000 A 
ATOM     27  C   UNL     1       5.277   5.337  17.833  0.00  0.00    +0.000 A 
ATOM     28  C   UNL     1       5.988   6.478  17.241  0.00  0.00    +0.000 A 
ATOM     29  O   UNL     1       5.592   6.979  16.193  0.00  0.00    +0.000 OA
BRANCH  24  30
ATOM     30  O   UNL     1       3.252   2.142  19.576  0.00  0.00    +0.000 OA
ATOM     31  C   UNL     1       2.171   2.439  20.450  0.00  0.00    +0.000 C 
ENDBRANCH  24  30
BRANCH  25  32
ATOM     32  O   UNL     1       2.314   3.430  17.125  0.00  0.00    +0.000 OA
ATOM     33  C   UNL     1       1.117   4.156  17.346  0.00  0.00    +0.000 C 
ENDBRANCH  25  32
ENDBRANCH  18  19
ENDBRANCH   1  18
TORSDOF 9
ENDMDL
