MODEL 1
REMARK VINA RESULT:      -9.2      0.000      0.000
REMARK  Name = 
REMARK  6 active torsions:
REMARK  status: ('A' for Active; 'I' for Inactive)
REMARK    1  A    between atoms: C_1  and  C_2
REMARK    2  A    between atoms: C_4  and  N_5
REMARK    3  A    between atoms: C_6  and  C_8
REMARK    4  A    between atoms: C_8  and  N_9
REMARK    5  A    between atoms: C_12  and  C_13
REMARK    6  A    between atoms: N_21  and  C_22
REMARK                            x       y       z     vdW  Elec       q    Type
REMARK                         _______ _______ _______ _____ _____    ______ ____
ROOT
ATOM      1  N   UNL     1       5.179   5.451  17.547  0.00  0.00    +0.000 N 
ATOM      2  C   UNL     1       6.435   5.057  18.173  0.00  0.00    +0.000 C 
ATOM      3  O   UNL     1       6.554   5.063  19.386  0.00  0.00    +0.000 OA
ATOM      4  H   UNL     1       5.096   5.372  16.538  0.00  0.00    +0.000 HD
ENDROOT
BRANCH   1   8
ATOM      5  C   UNL     1       1.572   8.375  19.372  0.00  0.00    +0.000 C 
ATOM      6  C   UNL     1       2.494   7.243  19.121  0.00  0.00    +0.000 A 
ATOM      7  C   UNL     1       3.627   7.238  18.283  0.00  0.00    +0.000 A 
ATOM      8  C   UNL     1       4.094   5.943  18.278  0.00  0.00    +0.000 A 
ATOM      9  N   UNL     1       3.178   5.235  19.052  0.00  0.00    +0.000 N 
ATOM     10  N   UNL     1       2.277   6.040  19.656  0.00  0.00    +0.000 NA
BRANCH   9  11
ATOM     11  C   UNL     1       2.944   3.791  19.037  0.00  0.00    +0.000 C 
ATOM     12  C   UNL     1       3.548   2.986  20.212  0.00  0.00    +0.000 C 
ATOM     13  C   UNL     1       2.707   2.959  21.493  0.00  0.00    +0.000 C 
ATOM     14  C   UNL     1       1.237   2.656  21.226  0.00  0.00    +0.000 C 
ATOM     15  C   UNL     1       0.656   3.590  20.175  0.00  0.00    +0.000 C 
ATOM     16  C   UNL     1       1.443   3.508  18.866  0.00  0.00    +0.000 C 
ENDBRANCH   9  11
ENDBRANCH   1   8
BRANCH   2  17
ATOM     17  C   UNL     1       7.522   4.546  17.281  0.00  0.00    +0.000 C 
BRANCH  17  18
ATOM     18  N   UNL     1       7.132   4.664  15.906  0.00  0.00    +0.000 N 
ATOM     19  N   UNL     1       7.649   5.597  15.102  0.00  0.00    +0.000 NA
ATOM     20  N   UNL     1       7.206   5.284  13.894  0.00  0.00    +0.000 NA
ATOM     21  C   UNL     1       6.440   4.150  14.030  0.00  0.00    +0.000 A 
ATOM     22  N   UNL     1       6.361   3.734  15.311  0.00  0.00    +0.000 NA
BRANCH  21  23
ATOM     23  C   UNL     1       5.820   3.471  12.904  0.00  0.00    +0.000 A 
ATOM     24  C   UNL     1       4.592   3.893  12.391  0.00  0.00    +0.000 A 
ATOM     25  C   UNL     1       4.067   3.220  11.299  0.00  0.00    +0.000 A 
ATOM     26  N   UNL     1       4.674   2.172  10.706  0.00  0.00    +0.000 NA
ATOM     27  C   UNL     1       5.855   1.782  11.223  0.00  0.00    +0.000 A 
ATOM     28  F   UNL     1       6.477   0.744  10.647  0.00  0.00    +0.000 F 
ATOM     29  C   UNL     1       6.462   2.386  12.304  0.00  0.00    +0.000 A 
ENDBRANCH  21  23
ENDBRANCH  17  18
ENDBRANCH   2  17
TORSDOF 5
ENDMDL
MODEL 2
REMARK VINA RESULT:      -8.9      1.113      1.609
REMARK  Name = 
REMARK  6 active torsions:
REMARK  status: ('A' for Active; 'I' for Inactive)
REMARK    1  A    between atoms: C_1  and  C_2
REMARK    2  A    between atoms: C_4  and  N_5
REMARK    3  A    between atoms: C_6  and  C_8
REMARK    4  A    between atoms: C_8  and  N_9
REMARK    5  A    between atoms: C_12  and  C_13
REMARK    6  A    between atoms: N_21  and  C_22
REMARK                            x       y       z     vdW  Elec       q    Type
REMARK                         _______ _______ _______ _____ _____    ______ ____
ROOT
ATOM      1  N   UNL     1       5.094   5.291  17.552  0.00  0.00    +0.000 N 
ATOM      2  C   UNL     1       6.514   5.591  17.691  0.00  0.00    +0.000 C 
ATOM      3  O   UNL     1       6.894   6.454  18.465  0.00  0.00    +0.000 OA
ATOM      4  H   UNL     1       4.821   4.523  16.946  0.00  0.00    +0.000 HD
ENDROOT
BRANCH   1   8
ATOM      5  C   UNL     1       1.599   8.668  18.677  0.00  0.00    +0.000 C 
ATOM      6  C   UNL     1       2.556   7.538  18.735  0.00  0.00    +0.000 A 
ATOM      7  C   UNL     1       3.542   7.209  17.784  0.00  0.00    +0.000 A 
ATOM      8  C   UNL     1       4.100   6.024  18.206  0.00  0.00    +0.000 A 
ATOM      9  N   UNL     1       3.373   5.676  19.341  0.00  0.00    +0.000 N 
ATOM     10  N   UNL     1       2.517   6.647  19.727  0.00  0.00    +0.000 NA
BRANCH   9  11
ATOM     11  C   UNL     1       3.251   4.343  19.933  0.00  0.00    +0.000 C 
ATOM     12  C   UNL     1       2.122   4.157  20.975  0.00  0.00    +0.000 C 
ATOM     13  C   UNL     1       0.733   3.866  20.398  0.00  0.00    +0.000 C 
ATOM     14  C   UNL     1       0.759   2.793  19.315  0.00  0.00    +0.000 C 
ATOM     15  C   UNL     1       1.776   3.117  18.232  0.00  0.00    +0.000 C 
ATOM     16  C   UNL     1       3.178   3.284  18.821  0.00  0.00    +0.000 C 
ENDBRANCH   9  11
ENDBRANCH   1   8
BRANCH   2  17
ATOM     17  C   UNL     1       7.480   4.732  16.938  0.00  0.00    +0.000 C 
BRANCH  17  18
ATOM     18  N   UNL     1       7.164   4.739  15.539  0.00  0.00    +0.000 N 
ATOM     19  N   UNL     1       7.801   5.530  14.673  0.00  0.00    +0.000 NA
ATOM     20  N   UNL     1       7.383   5.132  13.481  0.00  0.00    +0.000 NA
ATOM     21  C   UNL     1       6.508   4.093  13.691  0.00  0.00    +0.000 A 
ATOM     22  N   UNL     1       6.334   3.824  15.002  0.00  0.00    +0.000 NA
BRANCH  21  23
ATOM     23  C   UNL     1       5.875   3.357  12.609  0.00  0.00    +0.000 A 
ATOM     24  C   UNL     1       6.469   2.218  12.063  0.00  0.00    +0.000 A 
ATOM     25  C   UNL     1       5.801   1.546  11.051  0.00  0.00    +0.000 A 
ATOM     26  N   UNL     1       4.608   1.935  10.558  0.00  0.00    +0.000 NA
ATOM     27  C   UNL     1       4.058   3.038  11.099  0.00  0.00    +0.000 A 
ATOM     28  F   UNL     1       2.870   3.442  10.626  0.00  0.00    +0.000 F 
ATOM     29  C   UNL     1       4.640   3.776  12.110  0.00  0.00    +0.000 A 
ENDBRANCH  21  23
ENDBRANCH  17  18
ENDBRANCH   2  17
TORSDOF 5
ENDMDL
MODEL 3
REMARK VINA RESULT:      -8.8      1.009      1.440
REMARK  Name = 
REMARK  6 active torsions:
REMARK  status: ('A' for Active; 'I' for Inactive)
REMARK    1  A    between atoms: C_1  and  C_2
REMARK    2  A    between atoms: C_4  and  N_5
REMARK    3  A    between atoms: C_6  and  C_8
REMARK    4  A    between atoms: C_8  and  N_9
REMARK    5  A    between atoms: C_12  and  C_13
REMARK    6  A    between atoms: N_21  and  C_22
REMARK                            x       y       z     vdW  Elec       q    Type
REMARK                         _______ _______ _______ _____ _____    ______ ____
ROOT
ATOM      1  N   UNL     1       4.903   5.524  17.346  0.00  0.00    +0.000 N 
ATOM      2  C   UNL     1       6.181   5.309  18.014  0.00  0.00    +0.000 C 
ATOM      3  O   UNL     1       6.342   5.649  19.174  0.00  0.00    +0.000 OA
ATOM      4  H   UNL     1       4.787   5.169  16.402  0.00  0.00    +0.000 HD
ENDROOT
BRANCH   1   8
ATOM      5  C   UNL     1       1.645   9.041  18.723  0.00  0.00    +0.000 C 
ATOM      6  C   UNL     1       2.395   7.770  18.593  0.00  0.00    +0.000 A 
ATOM      7  C   UNL     1       3.591   7.557  17.879  0.00  0.00    +0.000 A 
ATOM      8  C   UNL     1       3.843   6.206  17.948  0.00  0.00    +0.000 A 
ATOM      9  N   UNL     1       2.753   5.679  18.636  0.00  0.00    +0.000 N 
ATOM     10  N   UNL     1       1.936   6.636  19.126  0.00  0.00    +0.000 NA
BRANCH   9  11
ATOM     11  C   UNL     1       2.293   4.289  18.624  0.00  0.00    +0.000 C 
ATOM     12  C   UNL     1       3.393   3.204  18.704  0.00  0.00    +0.000 C 
ATOM     13  C   UNL     1       3.890   2.872  20.115  0.00  0.00    +0.000 C 
ATOM     14  C   UNL     1       2.752   2.674  21.110  0.00  0.00    +0.000 C 
ATOM     15  C   UNL     1       1.791   3.854  21.100  0.00  0.00    +0.000 C 
ATOM     16  C   UNL     1       1.216   4.088  19.702  0.00  0.00    +0.000 C 
ENDBRANCH   9  11
ENDBRANCH   1   8
BRANCH   2  17
ATOM     17  C   UNL     1       7.238   4.563  17.262  0.00  0.00    +0.000 C 
BRANCH  17  18
ATOM     18  N   UNL     1       6.993   4.642  15.852  0.00  0.00    +0.000 N 
ATOM     19  N   UNL     1       7.639   5.509  15.068  0.00  0.00    +0.000 NA
ATOM     20  N   UNL     1       7.299   5.168  13.835  0.00  0.00    +0.000 NA
ATOM     21  C   UNL     1       6.459   4.084  13.937  0.00  0.00    +0.000 A 
ATOM     22  N   UNL     1       6.231   3.730  15.218  0.00  0.00    +0.000 NA
BRANCH  21  23
ATOM     23  C   UNL     1       5.913   3.391  12.781  0.00  0.00    +0.000 A 
ATOM     24  C   UNL     1       6.596   2.330  12.185  0.00  0.00    +0.000 A 
ATOM     25  C   UNL     1       6.009   1.693  11.102  0.00  0.00    +0.000 A 
ATOM     26  N   UNL     1       4.813   2.047  10.587  0.00  0.00    +0.000 NA
ATOM     27  C   UNL     1       4.178   3.076  11.178  0.00  0.00    +0.000 A 
ATOM     28  F   UNL     1       2.987   3.443  10.684  0.00  0.00    +0.000 F 
ATOM     29  C   UNL     1       4.675   3.773  12.260  0.00  0.00    +0.000 A 
ENDBRANCH  21  23
ENDBRANCH  17  18
ENDBRANCH   2  17
TORSDOF 5
ENDMDL
MODEL 4
REMARK VINA RESULT:      -8.2      4.599      8.619
REMARK  Name = 
REMARK  6 active torsions:
REMARK  status: ('A' for Active; 'I' for Inactive)
REMARK    1  A    between atoms: C_1  and  C_2
REMARK    2  A    between atoms: C_4  and  N_5
REMARK    3  A    between atoms: C_6  and  C_8
REMARK    4  A    between atoms: C_8  and  N_9
REMARK    5  A    between atoms: C_12  and  C_13
REMARK    6  A    between atoms: N_21  and  C_22
REMARK                            x       y       z     vdW  Elec       q    Type
REMARK                         _______ _______ _______ _____ _____    ______ ____
ROOT
ATOM      1  N   UNL     1       2.562   7.078  19.203  0.00  0.00    +0.000 N 
ATOM      2  C   UNL     1       1.752   7.297  20.395  0.00  0.00    +0.000 C 
ATOM      3  O   UNL     1       1.413   6.360  21.098  0.00  0.00    +0.000 OA
ATOM      4  H   UNL     1       2.878   7.888  18.679  0.00  0.00    +0.000 HD
ENDROOT
BRANCH   1   8
ATOM      5  C   UNL     1       2.375   2.354  17.609  0.00  0.00    +0.000 C 
ATOM      6  C   UNL     1       2.843   3.686  18.061  0.00  0.00    +0.000 A 
ATOM      7  C   UNL     1       2.058   4.732  18.583  0.00  0.00    +0.000 A 
ATOM      8  C   UNL     1       2.907   5.802  18.750  0.00  0.00    +0.000 A 
ATOM      9  N   UNL     1       4.132   5.360  18.255  0.00  0.00    +0.000 N 
ATOM     10  N   UNL     1       4.123   4.046  17.946  0.00  0.00    +0.000 NA
BRANCH   9  11
ATOM     11  C   UNL     1       5.248   6.190  17.802  0.00  0.00    +0.000 C 
ATOM     12  C   UNL     1       6.668   5.636  18.071  0.00  0.00    +0.000 C 
ATOM     13  C   UNL     1       7.189   4.631  17.038  0.00  0.00    +0.000 C 
ATOM     14  C   UNL     1       6.967   5.092  15.602  0.00  0.00    +0.000 C 
ATOM     15  C   UNL     1       5.513   5.469  15.356  0.00  0.00    +0.000 C 
ATOM     16  C   UNL     1       5.054   6.562  16.322  0.00  0.00    +0.000 C 
ENDBRANCH   9  11
ENDBRANCH   1   8
BRANCH   2  17
ATOM     17  C   UNL     1       1.450   8.712  20.776  0.00  0.00    +0.000 C 
BRANCH  17  18
ATOM     18  N   UNL     1       0.822   9.397  19.685  0.00  0.00    +0.000 N 
ATOM     19  N   UNL     1       1.470   9.661  18.548  0.00  0.00    +0.000 NA
ATOM     20  N   UNL     1       0.537  10.119  17.726  0.00  0.00    +0.000 NA
ATOM     21  C   UNL     1      -0.651  10.096  18.418  0.00  0.00    +0.000 A 
ATOM     22  N   UNL     1      -0.501   9.651  19.682  0.00  0.00    +0.000 NA
BRANCH  21  23
ATOM     23  C   UNL     1      -1.921  10.482  17.826  0.00  0.00    +0.000 A 
ATOM     24  C   UNL     1      -2.799  11.340  18.491  0.00  0.00    +0.000 A 
ATOM     25  C   UNL     1      -3.983  11.690  17.861  0.00  0.00    +0.000 A 
ATOM     26  N   UNL     1      -4.339  11.244  16.638  0.00  0.00    +0.000 NA
ATOM     27  C   UNL     1      -3.476  10.416  16.021  0.00  0.00    +0.000 A 
ATOM     28  F   UNL     1      -3.808   9.962  14.803  0.00  0.00    +0.000 F 
ATOM     29  C   UNL     1      -2.273  10.009  16.560  0.00  0.00    +0.000 A 
ENDBRANCH  21  23
ENDBRANCH  17  18
ENDBRANCH   2  17
TORSDOF 5
ENDMDL
MODEL 5
REMARK VINA RESULT:      -8.1      0.902      1.245
REMARK  Name = 
REMARK  6 active torsions:
REMARK  status: ('A' for Active; 'I' for Inactive)
REMARK    1  A    between atoms: C_1  and  C_2
REMARK    2  A    between atoms: C_4  and  N_5
REMARK    3  A    between atoms: C_6  and  C_8
REMARK    4  A    between atoms: C_8  and  N_9
REMARK    5  A    between atoms: C_12  and  C_13
REMARK    6  A    between atoms: N_21  and  C_22
REMARK                            x       y       z     vdW  Elec       q    Type
REMARK                         _______ _______ _______ _____ _____    ______ ____
ROOT
ATOM      1  N   UNL     1       4.943   5.268  17.799  0.00  0.00    +0.000 N 
ATOM      2  C   UNL     1       6.236   5.043  18.433  0.00  0.00    +0.000 C 
ATOM      3  O   UNL     1       6.370   5.178  19.637  0.00  0.00    +0.000 OA
ATOM      4  H   UNL     1       4.855   5.083  16.804  0.00  0.00    +0.000 HD
ENDROOT
BRANCH   1   8
ATOM      5  C   UNL     1       1.710   8.169  20.252  0.00  0.00    +0.000 C 
ATOM      6  C   UNL     1       2.387   7.013  19.619  0.00  0.00    +0.000 A 
ATOM      7  C   UNL     1       3.685   6.982  19.073  0.00  0.00    +0.000 A 
ATOM      8  C   UNL     1       3.830   5.738  18.501  0.00  0.00    +0.000 A 
ATOM      9  N   UNL     1       2.592   5.124  18.675  0.00  0.00    +0.000 N 
ATOM     10  N   UNL     1       1.758   5.848  19.451  0.00  0.00    +0.000 NA
BRANCH   9  11
ATOM     11  C   UNL     1       2.056   3.996  17.913  0.00  0.00    +0.000 C 
ATOM     12  C   UNL     1       3.091   3.110  17.180  0.00  0.00    +0.000 C 
ATOM     13  C   UNL     1       3.754   2.025  18.035  0.00  0.00    +0.000 C 
ATOM     14  C   UNL     1       2.751   1.240  18.872  0.00  0.00    +0.000 C 
ATOM     15  C   UNL     1       1.868   2.165  19.698  0.00  0.00    +0.000 C 
ATOM     16  C   UNL     1       1.124   3.160  18.806  0.00  0.00    +0.000 C 
ENDBRANCH   9  11
ENDBRANCH   1   8
BRANCH   2  17
ATOM     17  C   UNL     1       7.350   4.537  17.572  0.00  0.00    +0.000 C 
BRANCH  17  18
ATOM     18  N   UNL     1       7.015   4.688  16.187  0.00  0.00    +0.000 N 
ATOM     19  N   UNL     1       7.554   5.645  15.427  0.00  0.00    +0.000 NA
ATOM     20  N   UNL     1       7.162   5.360  14.195  0.00  0.00    +0.000 NA
ATOM     21  C   UNL     1       6.402   4.217  14.272  0.00  0.00    +0.000 A 
ATOM     22  N   UNL     1       6.276   3.767  15.538  0.00  0.00    +0.000 NA
BRANCH  21  23
ATOM     23  C   UNL     1       5.832   3.562  13.106  0.00  0.00    +0.000 A 
ATOM     24  C   UNL     1       4.594   3.950  12.590  0.00  0.00    +0.000 A 
ATOM     25  C   UNL     1       4.119   3.304  11.460  0.00  0.00    +0.000 A 
ATOM     26  N   UNL     1       4.785   2.314  10.830  0.00  0.00    +0.000 NA
ATOM     27  C   UNL     1       5.975   1.958  11.349  0.00  0.00    +0.000 A 
ATOM     28  F   UNL     1       6.656   0.977  10.738  0.00  0.00    +0.000 F 
ATOM     29  C   UNL     1       6.536   2.538  12.468  0.00  0.00    +0.000 A 
ENDBRANCH  21  23
ENDBRANCH  17  18
ENDBRANCH   2  17
TORSDOF 5
ENDMDL
MODEL 6
REMARK VINA RESULT:      -8.0      5.012      8.897
REMARK  Name = 
REMARK  6 active torsions:
REMARK  status: ('A' for Active; 'I' for Inactive)
REMARK    1  A    between atoms: C_1  and  C_2
REMARK    2  A    between atoms: C_4  and  N_5
REMARK    3  A    between atoms: C_6  and  C_8
REMARK    4  A    between atoms: C_8  and  N_9
REMARK    5  A    between atoms: C_12  and  C_13
REMARK    6  A    between atoms: N_21  and  C_22
REMARK                            x       y       z     vdW  Elec       q    Type
REMARK                         _______ _______ _______ _____ _____    ______ ____
ROOT
ATOM      1  N   UNL     1       2.669   6.964  19.311  0.00  0.00    +0.000 N 
ATOM      2  C   UNL     1       1.771   7.178  20.440  0.00  0.00    +0.000 C 
ATOM      3  O   UNL     1       1.345   6.234  21.083  0.00  0.00    +0.000 OA
ATOM      4  H   UNL     1       3.054   7.778  18.840  0.00  0.00    +0.000 HD
ENDROOT
BRANCH   1   8
ATOM      5  C   UNL     1       2.457   2.257  17.672  0.00  0.00    +0.000 C 
ATOM      6  C   UNL     1       2.932   3.581  18.139  0.00  0.00    +0.000 A 
ATOM      7  C   UNL     1       2.152   4.628  18.667  0.00  0.00    +0.000 A 
ATOM      8  C   UNL     1       3.008   5.691  18.847  0.00  0.00    +0.000 A 
ATOM      9  N   UNL     1       4.231   5.245  18.354  0.00  0.00    +0.000 N 
ATOM     10  N   UNL     1       4.215   3.934  18.033  0.00  0.00    +0.000 NA
BRANCH   9  11
ATOM     11  C   UNL     1       5.355   6.072  17.913  0.00  0.00    +0.000 C 
ATOM     12  C   UNL     1       6.764   5.451  18.066  0.00  0.00    +0.000 C 
ATOM     13  C   UNL     1       7.199   4.516  16.932  0.00  0.00    +0.000 C 
ATOM     14  C   UNL     1       6.926   5.100  15.550  0.00  0.00    +0.000 C 
ATOM     15  C   UNL     1       5.478   5.544  15.407  0.00  0.00    +0.000 C 
ATOM     16  C   UNL     1       5.105   6.569  16.480  0.00  0.00    +0.000 C 
ENDBRANCH   9  11
ENDBRANCH   1   8
BRANCH   2  17
ATOM     17  C   UNL     1       1.487   8.592  20.839  0.00  0.00    +0.000 C 
BRANCH  17  18
ATOM     18  N   UNL     1       0.875   9.301  19.754  0.00  0.00    +0.000 N 
ATOM     19  N   UNL     1       1.521   9.540  18.610  0.00  0.00    +0.000 NA
ATOM     20  N   UNL     1       0.600  10.035  17.798  0.00  0.00    +0.000 NA
ATOM     21  C   UNL     1      -0.582  10.058  18.501  0.00  0.00    +0.000 A 
ATOM     22  N   UNL     1      -0.437   9.607  19.764  0.00  0.00    +0.000 NA
BRANCH  21  23
ATOM     23  C   UNL     1      -1.842  10.493  17.922  0.00  0.00    +0.000 A 
ATOM     24  C   UNL     1      -2.227  10.092  16.641  0.00  0.00    +0.000 A 
ATOM     25  C   UNL     1      -3.453  10.520  16.156  0.00  0.00    +0.000 A 
ATOM     26  N   UNL     1      -4.297  11.309  16.853  0.00  0.00    +0.000 NA
ATOM     27  C   UNL     1      -3.900  11.684  18.083  0.00  0.00    +0.000 A 
ATOM     28  F   UNL     1      -4.724  12.466  18.795  0.00  0.00    +0.000 F 
ATOM     29  C   UNL     1      -2.702  11.311  18.657  0.00  0.00    +0.000 A 
ENDBRANCH  21  23
ENDBRANCH  17  18
ENDBRANCH   2  17
TORSDOF 5
ENDMDL
MODEL 7
REMARK VINA RESULT:      -7.9      4.838      8.796
REMARK  Name = 
REMARK  6 active torsions:
REMARK  status: ('A' for Active; 'I' for Inactive)
REMARK    1  A    between atoms: C_1  and  C_2
REMARK    2  A    between atoms: C_4  and  N_5
REMARK    3  A    between atoms: C_6  and  C_8
REMARK    4  A    between atoms: C_8  and  N_9
REMARK    5  A    between atoms: C_12  and  C_13
REMARK    6  A    between atoms: N_21  and  C_22
REMARK                            x       y       z     vdW  Elec       q    Type
REMARK                         _______ _______ _______ _____ _____    ______ ____
ROOT
ATOM      1  N   UNL     1       2.580   6.811  17.638  0.00  0.00    +0.000 N 
ATOM      2  C   UNL     1       2.375   7.744  18.739  0.00  0.00    +0.000 C 
ATOM      3  O   UNL     1       2.435   7.363  19.895  0.00  0.00    +0.000 OA
ATOM      4  H   UNL     1       2.587   7.177  16.690  0.00  0.00    +0.000 HD
ENDROOT
BRANCH   1   8
ATOM      5  C   UNL     1       1.817   1.992  18.677  0.00  0.00    +0.000 C 
ATOM      6  C   UNL     1       2.438   3.289  18.318  0.00  0.00    +0.000 A 
ATOM      7  C   UNL     1       1.838   4.563  18.367  0.00  0.00    +0.000 A 
ATOM      8  C   UNL     1       2.755   5.439  17.833  0.00  0.00    +0.000 A 
ATOM      9  N   UNL     1       3.818   4.635  17.432  0.00  0.00    +0.000 N 
ATOM     10  N   UNL     1       3.678   3.352  17.828  0.00  0.00    +0.000 NA
BRANCH   9  11
ATOM     11  C   UNL     1       4.849   4.966  16.447  0.00  0.00    +0.000 C 
ATOM     12  C   UNL     1       5.144   6.472  16.244  0.00  0.00    +0.000 C 
ATOM     13  C   UNL     1       6.116   7.094  17.251  0.00  0.00    +0.000 C 
ATOM     14  C   UNL     1       7.363   6.243  17.469  0.00  0.00    +0.000 C 
ATOM     15  C   UNL     1       7.003   4.809  17.827  0.00  0.00    +0.000 C 
ATOM     16  C   UNL     1       6.130   4.171  16.745  0.00  0.00    +0.000 C 
ENDBRANCH   9  11
ENDBRANCH   1   8
BRANCH   2  17
ATOM     17  C   UNL     1       2.200   9.190  18.398  0.00  0.00    +0.000 C 
BRANCH  17  18
ATOM     18  N   UNL     1       0.849   9.600  18.650  0.00  0.00    +0.000 N 
ATOM     19  N   UNL     1       0.473  10.113  19.824  0.00  0.00    +0.000 NA
ATOM     20  N   UNL     1      -0.765  10.539  19.626  0.00  0.00    +0.000 NA
ATOM     21  C   UNL     1      -1.075  10.269  18.313  0.00  0.00    +0.000 A 
ATOM     22  N   UNL     1      -0.066   9.654  17.663  0.00  0.00    +0.000 NA
BRANCH  21  23
ATOM     23  C   UNL     1      -2.341  10.640  17.704  0.00  0.00    +0.000 A 
ATOM     24  C   UNL     1      -3.289  11.391  18.403  0.00  0.00    +0.000 A 
ATOM     25  C   UNL     1      -4.465  11.735  17.757  0.00  0.00    +0.000 A 
ATOM     26  N   UNL     1      -4.751  11.380  16.487  0.00  0.00    +0.000 NA
ATOM     27  C   UNL     1      -3.822  10.653  15.837  0.00  0.00    +0.000 A 
ATOM     28  F   UNL     1      -4.084  10.291  14.572  0.00  0.00    +0.000 F 
ATOM     29  C   UNL     1      -2.620  10.262  16.389  0.00  0.00    +0.000 A 
ENDBRANCH  21  23
ENDBRANCH  17  18
ENDBRANCH   2  17
TORSDOF 5
ENDMDL
MODEL 8
REMARK VINA RESULT:      -7.9      4.829      8.829
REMARK  Name = 
REMARK  6 active torsions:
REMARK  status: ('A' for Active; 'I' for Inactive)
REMARK    1  A    between atoms: C_1  and  C_2
REMARK    2  A    between atoms: C_4  and  N_5
REMARK    3  A    between atoms: C_6  and  C_8
REMARK    4  A    between atoms: C_8  and  N_9
REMARK    5  A    between atoms: C_12  and  C_13
REMARK    6  A    between atoms: N_21  and  C_22
REMARK                            x       y       z     vdW  Elec       q    Type
REMARK                         _______ _______ _______ _____ _____    ______ ____
ROOT
ATOM      1  N   UNL     1       2.664   7.183  19.070  0.00  0.00    +0.000 N 
ATOM      2  C   UNL     1       2.512   8.283  18.125  0.00  0.00    +0.000 C 
ATOM      3  O   UNL     1       2.556   8.080  16.924  0.00  0.00    +0.000 OA
ATOM      4  H   UNL     1       2.558   7.380  20.061  0.00  0.00    +0.000 HD
ENDROOT
BRANCH   1   8
ATOM      5  C   UNL     1       2.297   2.403  17.690  0.00  0.00    +0.000 C 
ATOM      6  C   UNL     1       2.816   3.737  18.075  0.00  0.00    +0.000 A 
ATOM      7  C   UNL     1       2.074   4.830  18.562  0.00  0.00    +0.000 A 
ATOM      8  C   UNL     1       2.960   5.878  18.668  0.00  0.00    +0.000 A 
ATOM      9  N   UNL     1       4.161   5.375  18.175  0.00  0.00    +0.000 N 
ATOM     10  N   UNL     1       4.105   4.049  17.924  0.00  0.00    +0.000 NA
BRANCH   9  11
ATOM     11  C   UNL     1       5.296   6.147  17.667  0.00  0.00    +0.000 C 
ATOM     12  C   UNL     1       6.702   5.659  18.091  0.00  0.00    +0.000 C 
ATOM     13  C   UNL     1       7.288   4.523  17.246  0.00  0.00    +0.000 C 
ATOM     14  C   UNL     1       7.143   4.768  15.749  0.00  0.00    +0.000 C 
ATOM     15  C   UNL     1       5.704   5.084  15.371  0.00  0.00    +0.000 C 
ATOM     16  C   UNL     1       5.183   6.298  16.141  0.00  0.00    +0.000 C 
ENDBRANCH   9  11
ENDBRANCH   1   8
BRANCH   2  17
ATOM     17  C   UNL     1       2.195   9.635  18.682  0.00  0.00    +0.000 C 
BRANCH  17  18
ATOM     18  N   UNL     1       0.778   9.785  18.844  0.00  0.00    +0.000 N 
ATOM     19  N   UNL     1       0.216   9.941  20.045  0.00  0.00    +0.000 NA
ATOM     20  N   UNL     1      -1.051  10.232  19.790  0.00  0.00    +0.000 NA
ATOM     21  C   UNL     1      -1.189  10.250  18.422  0.00  0.00    +0.000 A 
ATOM     22  N   UNL     1      -0.037   9.953  17.785  0.00  0.00    +0.000 NA
BRANCH  21  23
ATOM     23  C   UNL     1      -2.436  10.584  17.755  0.00  0.00    +0.000 A 
ATOM     24  C   UNL     1      -3.422  11.336  18.397  0.00  0.00    +0.000 A 
ATOM     25  C   UNL     1      -4.578  11.643  17.696  0.00  0.00    +0.000 A 
ATOM     26  N   UNL     1      -4.807  11.252  16.426  0.00  0.00    +0.000 NA
ATOM     27  C   UNL     1      -3.842  10.525  15.832  0.00  0.00    +0.000 A 
ATOM     28  F   UNL     1      -4.048  10.127  14.568  0.00  0.00    +0.000 F 
ATOM     29  C   UNL     1      -2.657  10.168  16.440  0.00  0.00    +0.000 A 
ENDBRANCH  21  23
ENDBRANCH  17  18
ENDBRANCH   2  17
TORSDOF 5
ENDMDL
MODEL 9
REMARK VINA RESULT:      -7.7      5.450      9.340
REMARK  Name = 
REMARK  6 active torsions:
REMARK  status: ('A' for Active; 'I' for Inactive)
REMARK    1  A    between atoms: C_1  and  C_2
REMARK    2  A    between atoms: C_4  and  N_5
REMARK    3  A    between atoms: C_6  and  C_8
REMARK    4  A    between atoms: C_8  and  N_9
REMARK    5  A    between atoms: C_12  and  C_13
REMARK    6  A    between atoms: N_21  and  C_22
REMARK                            x       y       z     vdW  Elec       q    Type
REMARK                         _______ _______ _______ _____ _____    ______ ____
ROOT
ATOM      1  N   UNL     1       2.591   7.179  17.769  0.00  0.00    +0.000 N 
ATOM      2  C   UNL     1       2.173   8.083  18.833  0.00  0.00    +0.000 C 
ATOM      3  O   UNL     1       2.107   7.697  19.987  0.00  0.00    +0.000 OA
ATOM      4  H   UNL     1       2.696   7.553  16.831  0.00  0.00    +0.000 HD
ENDROOT
BRANCH   1   8
ATOM      5  C   UNL     1       2.126   2.222  18.093  0.00  0.00    +0.000 C 
ATOM      6  C   UNL     1       2.641   3.610  18.161  0.00  0.00    +0.000 A 
ATOM      7  C   UNL     1       1.922   4.797  17.920  0.00  0.00    +0.000 A 
ATOM      8  C   UNL     1       2.840   5.821  17.987  0.00  0.00    +0.000 A 
ATOM      9  N   UNL     1       4.061   5.186  18.193  0.00  0.00    +0.000 N 
ATOM     10  N   UNL     1       3.927   3.861  18.414  0.00  0.00    +0.000 NA
BRANCH   9  11
ATOM     11  C   UNL     1       5.392   5.731  17.923  0.00  0.00    +0.000 C 
ATOM     12  C   UNL     1       6.538   4.701  17.781  0.00  0.00    +0.000 C 
ATOM     13  C   UNL     1       6.682   4.060  16.397  0.00  0.00    +0.000 C 
ATOM     14  C   UNL     1       6.625   5.082  15.266  0.00  0.00    +0.000 C 
ATOM     15  C   UNL     1       5.386   5.960  15.369  0.00  0.00    +0.000 C 
ATOM     16  C   UNL     1       5.331   6.682  16.716  0.00  0.00    +0.000 C 
ENDBRANCH   9  11
ENDBRANCH   1   8
BRANCH   2  17
ATOM     17  C   UNL     1       1.938   9.516  18.471  0.00  0.00    +0.000 C 
BRANCH  17  18
ATOM     18  N   UNL     1       0.585   9.887  18.766  0.00  0.00    +0.000 N 
ATOM     19  N   UNL     1       0.217  10.314  19.977  0.00  0.00    +0.000 NA
ATOM     20  N   UNL     1      -1.030  10.734  19.822  0.00  0.00    +0.000 NA
ATOM     21  C   UNL     1      -1.353  10.548  18.499  0.00  0.00    +0.000 A 
ATOM     22  N   UNL     1      -0.343   9.994  17.796  0.00  0.00    +0.000 NA
BRANCH  21  23
ATOM     23  C   UNL     1      -2.632  10.941  17.931  0.00  0.00    +0.000 A 
ATOM     24  C   UNL     1      -2.969  10.623  16.615  0.00  0.00    +0.000 A 
ATOM     25  C   UNL     1      -4.215  11.003  16.142  0.00  0.00    +0.000 A 
ATOM     26  N   UNL     1      -5.123  11.671  16.883  0.00  0.00    +0.000 NA
ATOM     27  C   UNL     1      -4.771  11.969  18.148  0.00  0.00    +0.000 A 
ATOM     28  F   UNL     1      -5.659  12.631  18.904  0.00  0.00    +0.000 F 
ATOM     29  C   UNL     1      -3.558  11.634  18.713  0.00  0.00    +0.000 A 
ENDBRANCH  21  23
ENDBRANCH  17  18
ENDBRANCH   2  17
TORSDOF 5
ENDMDL
