MODEL 1
REMARK VINA RESULT:      -6.2      0.000      0.000
REMARK  Name = 
REMARK  8 active torsions:
REMARK  status: ('A' for Active; 'I' for Inactive)
REMARK    1  A    between atoms: C_1  and  N_2
REMARK    2  A    between atoms: N_2  and  C_3
REMARK    3  A    between atoms: C_4  and  C_6
REMARK    4  A    between atoms: C_6  and  C_7
REMARK    5  A    between atoms: C_7  and  C_8
REMARK    6  A    between atoms: C_8  and  S_9
REMARK    7  A    between atoms: S_9  and  C_11
REMARK    8  A    between atoms: C_11  and  C_12
REMARK                            x       y       z     vdW  Elec       q    Type
REMARK                         _______ _______ _______ _____ _____    ______ ____
ROOT
ATOM      1  S   UNL     1       1.552   5.050  20.423  0.00  0.00    +0.000 S 
ATOM      2  O   UNL     1       2.347   4.256  21.524  0.00  0.00    +0.000 OA
ENDROOT
BRANCH   1   3
ATOM      3  C   UNL     1       1.593   4.086  18.883  0.00  0.00    +0.000 C 
BRANCH   3   4
ATOM      4  C   UNL     1       2.584   4.674  17.872  0.00  0.00    +0.000 C 
BRANCH   4   5
ATOM      5  C   UNL     1       3.662   3.679  17.430  0.00  0.00    +0.000 C 
BRANCH   5   9
ATOM      6  C   UNL     1       7.281   4.809  17.641  0.00  0.00    +0.000 C 
ATOM      7  N   UNL     1       6.016   4.345  17.103  0.00  0.00    +0.000 N 
ATOM      8  C   UNL     1       5.754   4.547  15.683  0.00  0.00    +0.000 C 
ATOM      9  C   UNL     1       5.034   3.961  18.018  0.00  0.00    +0.000 C 
ATOM     10  O   UNL     1       5.252   3.873  19.226  0.00  0.00    +0.000 OA
ENDBRANCH   5   9
ENDBRANCH   4   5
ENDBRANCH   3   4
ENDBRANCH   1   3
BRANCH   1  11
ATOM     11  C   UNL     1       2.657   6.407  19.887  0.00  0.00    +0.000 C 
BRANCH  11  12
ATOM     12  C   UNL     1       1.911   7.709  20.042  0.00  0.00    +0.000 A 
ATOM     13  C   UNL     1       1.202   7.942  21.237  0.00  0.00    +0.000 A 
ATOM     14  C   UNL     1       0.337   9.030  21.351  0.00  0.00    +0.000 A 
ATOM     15 CL   UNL     1      -0.562   9.260  22.800  0.00  0.00    +0.000 Cl
ATOM     16  C   UNL     1       0.169   9.908  20.285  0.00  0.00    +0.000 A 
ATOM     17  C   UNL     1       0.882   9.705  19.104  0.00  0.00    +0.000 A 
ATOM     18  C   UNL     1       1.748   8.614  18.979  0.00  0.00    +0.000 A 
ATOM     19 CL   UNL     1       2.560   8.400  17.471  0.00  0.00    +0.000 Cl
ENDBRANCH  11  12
ENDBRANCH   1  11
TORSDOF 6
ENDMDL
MODEL 2
REMARK VINA RESULT:      -6.0      2.532      3.911
REMARK  Name = 
REMARK  8 active torsions:
REMARK  status: ('A' for Active; 'I' for Inactive)
REMARK    1  A    between atoms: C_1  and  N_2
REMARK    2  A    between atoms: N_2  and  C_3
REMARK    3  A    between atoms: C_4  and  C_6
REMARK    4  A    between atoms: C_6  and  C_7
REMARK    5  A    between atoms: C_7  and  C_8
REMARK    6  A    between atoms: C_8  and  S_9
REMARK    7  A    between atoms: S_9  and  C_11
REMARK    8  A    between atoms: C_11  and  C_12
REMARK                            x       y       z     vdW  Elec       q    Type
REMARK                         _______ _______ _______ _____ _____    ______ ____
ROOT
ATOM      1  S   UNL     1       3.668   2.145  18.788  0.00  0.00    +0.000 S 
ATOM      2  O   UNL     1       3.862   2.430  20.323  0.00  0.00    +0.000 OA
ENDROOT
BRANCH   1   3
ATOM      3  C   UNL     1       4.653   3.354  17.855  0.00  0.00    +0.000 C 
BRANCH   3   4
ATOM      4  C   UNL     1       5.487   4.242  18.785  0.00  0.00    +0.000 C 
BRANCH   4   5
ATOM      5  C   UNL     1       6.247   5.349  18.046  0.00  0.00    +0.000 C 
BRANCH   5   9
ATOM      6  C   UNL     1       7.225   4.965  14.398  0.00  0.00    +0.000 C 
ATOM      7  N   UNL     1       6.443   5.239  15.589  0.00  0.00    +0.000 N 
ATOM      8  C   UNL     1       5.276   6.103  15.464  0.00  0.00    +0.000 C 
ATOM      9  C   UNL     1       6.993   4.865  16.816  0.00  0.00    +0.000 C 
ATOM     10  O   UNL     1       8.026   4.201  16.905  0.00  0.00    +0.000 OA
ENDBRANCH   5   9
ENDBRANCH   4   5
ENDBRANCH   3   4
ENDBRANCH   1   3
BRANCH   1  11
ATOM     11  C   UNL     1       2.014   2.799  18.361  0.00  0.00    +0.000 C 
BRANCH  11  12
ATOM     12  C   UNL     1       1.897   4.191  18.931  0.00  0.00    +0.000 A 
ATOM     13  C   UNL     1       2.292   5.282  18.130  0.00  0.00    +0.000 A 
ATOM     14  C   UNL     1       2.396   6.563  18.674  0.00  0.00    +0.000 A 
ATOM     15 CL   UNL     1       2.937   7.867  17.691  0.00  0.00    +0.000 Cl
ATOM     16  C   UNL     1       2.101   6.782  20.015  0.00  0.00    +0.000 A 
ATOM     17  C   UNL     1       1.684   5.717  20.814  0.00  0.00    +0.000 A 
ATOM     18  C   UNL     1       1.582   4.429  20.279  0.00  0.00    +0.000 A 
ATOM     19 CL   UNL     1       1.108   3.152  21.340  0.00  0.00    +0.000 Cl
ENDBRANCH  11  12
ENDBRANCH   1  11
TORSDOF 6
ENDMDL
MODEL 3
REMARK VINA RESULT:      -5.8      2.560      3.962
REMARK  Name = 
REMARK  8 active torsions:
REMARK  status: ('A' for Active; 'I' for Inactive)
REMARK    1  A    between atoms: C_1  and  N_2
REMARK    2  A    between atoms: N_2  and  C_3
REMARK    3  A    between atoms: C_4  and  C_6
REMARK    4  A    between atoms: C_6  and  C_7
REMARK    5  A    between atoms: C_7  and  C_8
REMARK    6  A    between atoms: C_8  and  S_9
REMARK    7  A    between atoms: S_9  and  C_11
REMARK    8  A    between atoms: C_11  and  C_12
REMARK                            x       y       z     vdW  Elec       q    Type
REMARK                         _______ _______ _______ _____ _____    ______ ____
ROOT
ATOM      1  S   UNL     1       3.946   2.432  18.102  0.00  0.00    +0.000 S 
ATOM      2  O   UNL     1       4.093   2.267  19.660  0.00  0.00    +0.000 OA
ENDROOT
BRANCH   1   3
ATOM      3  C   UNL     1       4.811   3.950  17.604  0.00  0.00    +0.000 C 
BRANCH   3   4
ATOM      4  C   UNL     1       5.161   3.939  16.112  0.00  0.00    +0.000 C 
BRANCH   4   5
ATOM      5  C   UNL     1       6.493   4.628  15.795  0.00  0.00    +0.000 C 
BRANCH   5   9
ATOM      6  C   UNL     1       7.877   6.392  18.858  0.00  0.00    +0.000 C 
ATOM      7  N   UNL     1       7.225   6.163  17.583  0.00  0.00    +0.000 N 
ATOM      8  C   UNL     1       6.281   7.164  17.100  0.00  0.00    +0.000 C 
ATOM      9  C   UNL     1       7.352   4.892  17.019  0.00  0.00    +0.000 C 
ATOM     10  O   UNL     1       8.095   4.030  17.488  0.00  0.00    +0.000 OA
ENDBRANCH   5   9
ENDBRANCH   4   5
ENDBRANCH   3   4
ENDBRANCH   1   3
BRANCH   1  11
ATOM     11  C   UNL     1       2.238   3.023  17.819  0.00  0.00    +0.000 C 
BRANCH  11  12
ATOM     12  C   UNL     1       2.055   4.314  18.577  0.00  0.00    +0.000 A 
ATOM     13  C   UNL     1       2.422   5.522  17.949  0.00  0.00    +0.000 A 
ATOM     14  C   UNL     1       2.465   6.715  18.670  0.00  0.00    +0.000 A 
ATOM     15 CL   UNL     1       2.973   8.164  17.895  0.00  0.00    +0.000 Cl
ATOM     16  C   UNL     1       2.136   6.730  20.022  0.00  0.00    +0.000 A 
ATOM     17  C   UNL     1       1.747   5.548  20.652  0.00  0.00    +0.000 A 
ATOM     18  C   UNL     1       1.706   4.346  19.937  0.00  0.00    +0.000 A 
ATOM     19 CL   UNL     1       1.262   2.915  20.795  0.00  0.00    +0.000 Cl
ENDBRANCH  11  12
ENDBRANCH   1  11
TORSDOF 6
ENDMDL
MODEL 4
REMARK VINA RESULT:      -5.8      3.423      5.933
REMARK  Name = 
REMARK  8 active torsions:
REMARK  status: ('A' for Active; 'I' for Inactive)
REMARK    1  A    between atoms: C_1  and  N_2
REMARK    2  A    between atoms: N_2  and  C_3
REMARK    3  A    between atoms: C_4  and  C_6
REMARK    4  A    between atoms: C_6  and  C_7
REMARK    5  A    between atoms: C_7  and  C_8
REMARK    6  A    between atoms: C_8  and  S_9
REMARK    7  A    between atoms: S_9  and  C_11
REMARK    8  A    between atoms: C_11  and  C_12
REMARK                            x       y       z     vdW  Elec       q    Type
REMARK                         _______ _______ _______ _____ _____    ______ ____
ROOT
ATOM      1  S   UNL     1       2.966   6.265  18.552  0.00  0.00    +0.000 S 
ATOM      2  O   UNL     1       3.232   7.667  17.889  0.00  0.00    +0.000 OA
ENDROOT
BRANCH   1   3
ATOM      3  C   UNL     1       2.089   6.534  20.121  0.00  0.00    +0.000 C 
BRANCH   3   4
ATOM      4  C   UNL     1       1.633   5.212  20.748  0.00  0.00    +0.000 C 
BRANCH   4   5
ATOM      5  C   UNL     1       1.406   4.099  19.720  0.00  0.00    +0.000 C 
BRANCH   5   9
ATOM      6  C   UNL     1       3.763   1.266  18.808  0.00  0.00    +0.000 C 
ATOM      7  N   UNL     1       2.728   2.279  18.707  0.00  0.00    +0.000 N 
ATOM      8  C   UNL     1       2.354   2.753  17.381  0.00  0.00    +0.000 C 
ATOM      9  C   UNL     1       2.334   2.910  19.889  0.00  0.00    +0.000 C 
ATOM     10  O   UNL     1       2.725   2.545  20.997  0.00  0.00    +0.000 OA
ENDBRANCH   5   9
ENDBRANCH   4   5
ENDBRANCH   3   4
ENDBRANCH   1   3
BRANCH   1  11
ATOM     11  C   UNL     1       4.567   5.731  19.258  0.00  0.00    +0.000 C 
BRANCH  11  12
ATOM     12  C   UNL     1       5.505   5.426  18.116  0.00  0.00    +0.000 A 
ATOM     13  C   UNL     1       4.956   5.143  16.849  0.00  0.00    +0.000 A 
ATOM     14  C   UNL     1       5.759   4.658  15.817  0.00  0.00    +0.000 A 
ATOM     15 CL   UNL     1       5.054   4.265  14.298  0.00  0.00    +0.000 Cl
ATOM     16  C   UNL     1       7.120   4.456  16.023  0.00  0.00    +0.000 A 
ATOM     17  C   UNL     1       7.683   4.755  17.264  0.00  0.00    +0.000 A 
ATOM     18  C   UNL     1       6.884   5.236  18.306  0.00  0.00    +0.000 A 
ATOM     19 CL   UNL     1       7.642   5.538  19.827  0.00  0.00    +0.000 Cl
ENDBRANCH  11  12
ENDBRANCH   1  11
TORSDOF 6
ENDMDL
MODEL 5
REMARK VINA RESULT:      -5.7      3.940      5.938
REMARK  Name = 
REMARK  8 active torsions:
REMARK  status: ('A' for Active; 'I' for Inactive)
REMARK    1  A    between atoms: C_1  and  N_2
REMARK    2  A    between atoms: N_2  and  C_3
REMARK    3  A    between atoms: C_4  and  C_6
REMARK    4  A    between atoms: C_6  and  C_7
REMARK    5  A    between atoms: C_7  and  C_8
REMARK    6  A    between atoms: C_8  and  S_9
REMARK    7  A    between atoms: S_9  and  C_11
REMARK    8  A    between atoms: C_11  and  C_12
REMARK                            x       y       z     vdW  Elec       q    Type
REMARK                         _______ _______ _______ _____ _____    ______ ____
ROOT
ATOM      1  S   UNL     1       2.881   6.487  18.317  0.00  0.00    +0.000 S 
ATOM      2  O   UNL     1       2.438   7.721  19.187  0.00  0.00    +0.000 OA
ENDROOT
BRANCH   1   3
ATOM      3  C   UNL     1       1.763   5.102  18.681  0.00  0.00    +0.000 C 
BRANCH   3   4
ATOM      4  C   UNL     1       1.647   4.849  20.189  0.00  0.00    +0.000 C 
BRANCH   4   5
ATOM      5  C   UNL     1       1.706   3.364  20.562  0.00  0.00    +0.000 C 
BRANCH   5   9
ATOM      6  C   UNL     1       3.717   1.082  18.291  0.00  0.00    +0.000 C 
ATOM      7  N   UNL     1       3.385   2.101  19.269  0.00  0.00    +0.000 N 
ATOM      8  C   UNL     1       4.412   2.503  20.222  0.00  0.00    +0.000 C 
ATOM      9  C   UNL     1       2.039   2.452  19.396  0.00  0.00    +0.000 C 
ATOM     10  O   UNL     1       1.171   2.038  18.628  0.00  0.00    +0.000 OA
ENDBRANCH   5   9
ENDBRANCH   4   5
ENDBRANCH   3   4
ENDBRANCH   1   3
BRANCH   1  11
ATOM     11  C   UNL     1       4.375   5.812  19.128  0.00  0.00    +0.000 C 
BRANCH  11  12
ATOM     12  C   UNL     1       5.377   5.466  18.054  0.00  0.00    +0.000 A 
ATOM     13  C   UNL     1       4.904   5.182  16.757  0.00  0.00    +0.000 A 
ATOM     14  C   UNL     1       5.760   4.663  15.786  0.00  0.00    +0.000 A 
ATOM     15 CL   UNL     1       5.145   4.268  14.228  0.00  0.00    +0.000 Cl
ATOM     16  C   UNL     1       7.098   4.427  16.083  0.00  0.00    +0.000 A 
ATOM     17  C   UNL     1       7.588   4.728  17.354  0.00  0.00    +0.000 A 
ATOM     18  C   UNL     1       6.735   5.243  18.335  0.00  0.00    +0.000 A 
ATOM     19 CL   UNL     1       7.401   5.544  19.900  0.00  0.00    +0.000 Cl
ENDBRANCH  11  12
ENDBRANCH   1  11
TORSDOF 6
ENDMDL
MODEL 6
REMARK VINA RESULT:      -5.7      2.817      4.059
REMARK  Name = 
REMARK  8 active torsions:
REMARK  status: ('A' for Active; 'I' for Inactive)
REMARK    1  A    between atoms: C_1  and  N_2
REMARK    2  A    between atoms: N_2  and  C_3
REMARK    3  A    between atoms: C_4  and  C_6
REMARK    4  A    between atoms: C_6  and  C_7
REMARK    5  A    between atoms: C_7  and  C_8
REMARK    6  A    between atoms: C_8  and  S_9
REMARK    7  A    between atoms: S_9  and  C_11
REMARK    8  A    between atoms: C_11  and  C_12
REMARK                            x       y       z     vdW  Elec       q    Type
REMARK                         _______ _______ _______ _____ _____    ______ ____
ROOT
ATOM      1  S   UNL     1       3.689   2.966  17.681  0.00  0.00    +0.000 S 
ATOM      2  O   UNL     1       3.830   1.418  17.436  0.00  0.00    +0.000 OA
ENDROOT
BRANCH   1   3
ATOM      3  C   UNL     1       4.544   3.378  19.231  0.00  0.00    +0.000 C 
BRANCH   3   4
ATOM      4  C   UNL     1       5.360   4.668  19.101  0.00  0.00    +0.000 C 
BRANCH   4   5
ATOM      5  C   UNL     1       6.128   4.771  17.779  0.00  0.00    +0.000 C 
BRANCH   5   9
ATOM      6  C   UNL     1       7.721   8.203  17.475  0.00  0.00    +0.000 C 
ATOM      7  N   UNL     1       7.335   6.910  18.008  0.00  0.00    +0.000 N 
ATOM      8  C   UNL     1       8.153   6.328  19.065  0.00  0.00    +0.000 C 
ATOM      9  C   UNL     1       6.357   6.197  17.312  0.00  0.00    +0.000 C 
ATOM     10  O   UNL     1       5.731   6.679  16.369  0.00  0.00    +0.000 OA
ENDBRANCH   5   9
ENDBRANCH   4   5
ENDBRANCH   3   4
ENDBRANCH   1   3
BRANCH   1  11
ATOM     11  C   UNL     1       1.977   3.226  18.272  0.00  0.00    +0.000 C 
BRANCH  11  12
ATOM     12  C   UNL     1       1.885   4.618  18.849  0.00  0.00    +0.000 A 
ATOM     13  C   UNL     1       2.183   5.714  18.014  0.00  0.00    +0.000 A 
ATOM     14  C   UNL     1       2.311   6.997  18.544  0.00  0.00    +0.000 A 
ATOM     15 CL   UNL     1       2.733   8.309  17.514  0.00  0.00    +0.000 Cl
ATOM     16  C   UNL     1       2.136   7.215  19.907  0.00  0.00    +0.000 A 
ATOM     17  C   UNL     1       1.816   6.144  20.742  0.00  0.00    +0.000 A 
ATOM     18  C   UNL     1       1.691   4.853  20.220  0.00  0.00    +0.000 A 
ATOM     19 CL   UNL     1       1.342   3.571  21.322  0.00  0.00    +0.000 Cl
ENDBRANCH  11  12
ENDBRANCH   1  11
TORSDOF 6
ENDMDL
MODEL 7
REMARK VINA RESULT:      -5.6      2.389      3.836
REMARK  Name = 
REMARK  8 active torsions:
REMARK  status: ('A' for Active; 'I' for Inactive)
REMARK    1  A    between atoms: C_1  and  N_2
REMARK    2  A    between atoms: N_2  and  C_3
REMARK    3  A    between atoms: C_4  and  C_6
REMARK    4  A    between atoms: C_6  and  C_7
REMARK    5  A    between atoms: C_7  and  C_8
REMARK    6  A    between atoms: C_8  and  S_9
REMARK    7  A    between atoms: S_9  and  C_11
REMARK    8  A    between atoms: C_11  and  C_12
REMARK                            x       y       z     vdW  Elec       q    Type
REMARK                         _______ _______ _______ _____ _____    ______ ____
ROOT
ATOM      1  S   UNL     1       3.688   2.449  18.697  0.00  0.00    +0.000 S 
ATOM      2  O   UNL     1       4.379   3.559  19.571  0.00  0.00    +0.000 OA
ENDROOT
BRANCH   1   3
ATOM      3  C   UNL     1       4.423   2.491  17.036  0.00  0.00    +0.000 C 
BRANCH   3   4
ATOM      4  C   UNL     1       4.299   3.879  16.397  0.00  0.00    +0.000 C 
BRANCH   4   5
ATOM      5  C   UNL     1       5.607   4.382  15.778  0.00  0.00    +0.000 C 
BRANCH   5   9
ATOM      6  C   UNL     1       7.470   7.207  17.499  0.00  0.00    +0.000 C 
ATOM      7  N   UNL     1       6.943   5.887  17.204  0.00  0.00    +0.000 N 
ATOM      8  C   UNL     1       7.619   4.731  17.780  0.00  0.00    +0.000 C 
ATOM      9  C   UNL     1       5.981   5.792  16.197  0.00  0.00    +0.000 C 
ATOM     10  O   UNL     1       5.479   6.781  15.665  0.00  0.00    +0.000 OA
ENDBRANCH   5   9
ENDBRANCH   4   5
ENDBRANCH   3   4
ENDBRANCH   1   3
BRANCH   1  11
ATOM     11  C   UNL     1       2.043   3.112  18.251  0.00  0.00    +0.000 C 
BRANCH  11  12
ATOM     12  C   UNL     1       1.897   4.473  18.886  0.00  0.00    +0.000 A 
ATOM     13  C   UNL     1       2.246   5.611  18.130  0.00  0.00    +0.000 A 
ATOM     14  C   UNL     1       2.323   6.867  18.730  0.00  0.00    +0.000 A 
ATOM     15 CL   UNL     1       2.809   8.230  17.799  0.00  0.00    +0.000 Cl
ATOM     16  C   UNL     1       2.046   7.017  20.085  0.00  0.00    +0.000 A 
ATOM     17  C   UNL     1       1.674   5.905  20.841  0.00  0.00    +0.000 A 
ATOM     18  C   UNL     1       1.599   4.641  20.249  0.00  0.00    +0.000 A 
ATOM     19 CL   UNL     1       1.181   3.304  21.258  0.00  0.00    +0.000 Cl
ENDBRANCH  11  12
ENDBRANCH   1  11
TORSDOF 6
ENDMDL
MODEL 8
REMARK VINA RESULT:      -5.6      1.169      1.311
REMARK  Name = 
REMARK  8 active torsions:
REMARK  status: ('A' for Active; 'I' for Inactive)
REMARK    1  A    between atoms: C_1  and  N_2
REMARK    2  A    between atoms: N_2  and  C_3
REMARK    3  A    between atoms: C_4  and  C_6
REMARK    4  A    between atoms: C_6  and  C_7
REMARK    5  A    between atoms: C_7  and  C_8
REMARK    6  A    between atoms: C_8  and  S_9
REMARK    7  A    between atoms: S_9  and  C_11
REMARK    8  A    between atoms: C_11  and  C_12
REMARK                            x       y       z     vdW  Elec       q    Type
REMARK                         _______ _______ _______ _____ _____    ______ ____
ROOT
ATOM      1  S   UNL     1       1.792   4.340  19.258  0.00  0.00    +0.000 S 
ATOM      2  O   UNL     1       0.583   4.242  20.260  0.00  0.00    +0.000 OA
ENDROOT
BRANCH   1   3
ATOM      3  C   UNL     1       2.807   2.844  19.441  0.00  0.00    +0.000 C 
BRANCH   3   4
ATOM      4  C   UNL     1       3.402   2.396  18.101  0.00  0.00    +0.000 C 
BRANCH   4   5
ATOM      5  C   UNL     1       3.890   3.560  17.233  0.00  0.00    +0.000 C 
BRANCH   5   9
ATOM      6  C   UNL     1       7.405   4.830  16.568  0.00  0.00    +0.000 C 
ATOM      7  N   UNL     1       6.085   4.267  16.356  0.00  0.00    +0.000 N 
ATOM      8  C   UNL     1       5.528   4.303  15.010  0.00  0.00    +0.000 C 
ATOM      9  C   UNL     1       5.334   3.952  17.490  0.00  0.00    +0.000 C 
ATOM     10  O   UNL     1       5.799   4.004  18.628  0.00  0.00    +0.000 OA
ENDBRANCH   5   9
ENDBRANCH   4   5
ENDBRANCH   3   4
ENDBRANCH   1   3
BRANCH   1  11
ATOM     11  C   UNL     1       2.969   5.524  20.005  0.00  0.00    +0.000 C 
BRANCH  11  12
ATOM     12  C   UNL     1       2.420   6.917  19.816  0.00  0.00    +0.000 A 
ATOM     13  C   UNL     1       1.570   7.446  20.808  0.00  0.00    +0.000 A 
ATOM     14  C   UNL     1       0.877   8.636  20.591  0.00  0.00    +0.000 A 
ATOM     15 CL   UNL     1      -0.199   9.231  21.794  0.00  0.00    +0.000 Cl
ATOM     16  C   UNL     1       1.024   9.325  19.391  0.00  0.00    +0.000 A 
ATOM     17  C   UNL     1       1.881   8.827  18.409  0.00  0.00    +0.000 A 
ATOM     18  C   UNL     1       2.575   7.631  18.617  0.00  0.00    +0.000 A 
ATOM     19 CL   UNL     1       3.579   7.052  17.337  0.00  0.00    +0.000 Cl
ENDBRANCH  11  12
ENDBRANCH   1  11
TORSDOF 6
ENDMDL
MODEL 9
REMARK VINA RESULT:      -5.6      3.389      7.045
REMARK  Name = 
REMARK  8 active torsions:
REMARK  status: ('A' for Active; 'I' for Inactive)
REMARK    1  A    between atoms: C_1  and  N_2
REMARK    2  A    between atoms: N_2  and  C_3
REMARK    3  A    between atoms: C_4  and  C_6
REMARK    4  A    between atoms: C_6  and  C_7
REMARK    5  A    between atoms: C_7  and  C_8
REMARK    6  A    between atoms: C_8  and  S_9
REMARK    7  A    between atoms: S_9  and  C_11
REMARK    8  A    between atoms: C_11  and  C_12
REMARK                            x       y       z     vdW  Elec       q    Type
REMARK                         _______ _______ _______ _____ _____    ______ ____
ROOT
ATOM      1  S   UNL     1       3.532   5.293  19.609  0.00  0.00    +0.000 S 
ATOM      2  O   UNL     1       2.585   4.693  20.713  0.00  0.00    +0.000 OA
ENDROOT
BRANCH   1   3
ATOM      3  C   UNL     1       2.505   5.836  18.211  0.00  0.00    +0.000 C 
BRANCH   3   4
ATOM      4  C   UNL     1       2.634   7.344  17.967  0.00  0.00    +0.000 C 
BRANCH   4   5
ATOM      5  C   UNL     1       1.943   8.194  19.038  0.00  0.00    +0.000 C 
BRANCH   5   9
ATOM      6  C   UNL     1       0.118  11.522  18.946  0.00  0.00    +0.000 C 
ATOM      7  N   UNL     1       0.451  10.146  19.265  0.00  0.00    +0.000 N 
ATOM      8  C   UNL     1      -0.122   9.560  20.470  0.00  0.00    +0.000 C 
ATOM      9  C   UNL     1       1.487   9.554  18.540  0.00  0.00    +0.000 C 
ATOM     10  O   UNL     1       2.014  10.100  17.572  0.00  0.00    +0.000 OA
ENDBRANCH   5   9
ENDBRANCH   4   5
ENDBRANCH   3   4
ENDBRANCH   1   3
BRANCH   1  11
ATOM     11  C   UNL     1       4.318   3.859  18.789  0.00  0.00    +0.000 C 
BRANCH  11  12
ATOM     12  C   UNL     1       5.218   4.378  17.695  0.00  0.00    +0.000 A 
ATOM     13  C   UNL     1       4.920   4.040  16.360  0.00  0.00    +0.000 A 
ATOM     14  C   UNL     1       5.824   4.320  15.336  0.00  0.00    +0.000 A 
ATOM     15 CL   UNL     1       5.462   3.845  13.722  0.00  0.00    +0.000 Cl
ATOM     16  C   UNL     1       7.033   4.947  15.619  0.00  0.00    +0.000 A 
ATOM     17  C   UNL     1       7.332   5.311  16.932  0.00  0.00    +0.000 A 
ATOM     18  C   UNL     1       6.433   5.029  17.966  0.00  0.00    +0.000 A 
ATOM     19 CL   UNL     1       6.893   5.464  19.572  0.00  0.00    +0.000 Cl
ENDBRANCH  11  12
ENDBRANCH   1  11
TORSDOF 6
ENDMDL
