MODEL 1
REMARK VINA RESULT:      -9.4      0.000      0.000
REMARK  Name = 
REMARK  2 active torsions:
REMARK  status: ('A' for Active; 'I' for Inactive)
REMARK    1  A    between atoms: O_1  and  C_2
REMARK    2  A    between atoms: C_6  and  N_7
REMARK                            x       y       z     vdW  Elec       q    Type
REMARK                         _______ _______ _______ _____ _____    ______ ____
ROOT
ATOM      1  N   UNL     1       3.337   4.701  18.568  0.00  0.00    +0.000 N 
ATOM      2  C   UNL     1       4.125   4.788  17.422  0.00  0.00    +0.000 A 
ATOM      3  C   UNL     1       4.788   3.821  16.669  0.00  0.00    +0.000 A 
ATOM      4  N   UNL     1       5.519   4.197  15.591  0.00  0.00    +0.000 NA
ATOM      5  C   UNL     1       5.580   5.499  15.254  0.00  0.00    +0.000 A 
ATOM      6  C   UNL     1       4.937   6.514  15.939  0.00  0.00    +0.000 A 
ATOM      7  C   UNL     1       4.188   6.133  17.061  0.00  0.00    +0.000 A 
ATOM      8  C   UNL     1       3.409   6.850  17.998  0.00  0.00    +0.000 A 
ATOM      9  C   UNL     1       3.087   8.180  18.172  0.00  0.00    +0.000 A 
ATOM     10  N   UNL     1       2.289   8.532  19.189  0.00  0.00    +0.000 NA
ATOM     11  C   UNL     1       1.795   7.602  20.032  0.00  0.00    +0.000 A 
ATOM     12  N   UNL     1       0.933   8.053  21.039  0.00  0.00    +0.000 N 
ATOM     13  C   UNL     1       0.452   9.353  21.247  0.00  0.00    +0.000 A 
ATOM     14  C   UNL     1       0.332  10.269  20.211  0.00  0.00    +0.000 A 
ATOM     15  C   UNL     1      -0.081  11.578  20.448  0.00  0.00    +0.000 A 
ATOM     16  C   UNL     1      -0.433  11.988  21.719  0.00  0.00    +0.000 A 
ATOM     17  N   UNL     1      -0.872  13.288  21.903  0.00  0.00    +0.000 N 
ATOM     18  C   UNL     1      -1.817  13.603  22.973  0.00  0.00    +0.000 C 
ATOM     19  C   UNL     1      -1.188  14.489  24.065  0.00  0.00    +0.000 C 
ATOM     20  N   UNL     1      -0.492  15.678  23.534  0.00  0.00    +0.000 NA
ATOM     21  C   UNL     1       0.534  15.234  22.574  0.00  0.00    +0.000 C 
ATOM     22  C   UNL     1      -0.044  14.400  21.410  0.00  0.00    +0.000 C 
ATOM     23  N   UNL     1      -0.392  11.072  22.707  0.00  0.00    +0.000 NA
ATOM     24  N   UNL     1       0.065   9.750  22.473  0.00  0.00    +0.000 NA
ATOM     25  N   UNL     1       2.083   6.285  19.965  0.00  0.00    +0.000 NA
ATOM     26  C   UNL     1       2.883   5.959  18.921  0.00  0.00    +0.000 A 
ATOM     27  H   UNL     1       0.918   7.454  21.846  0.00  0.00    +0.000 HD
ATOM     28  H   UNL     1      -0.040  16.170  24.303  0.00  0.00    +0.000 HD
ENDROOT
BRANCH   1  33
ATOM     29  C   UNL     1       1.754   2.769  18.887  0.00  0.00    +0.000 C 
ATOM     30  C   UNL     1       1.584   1.763  20.020  0.00  0.00    +0.000 C 
ATOM     31  C   UNL     1       2.010   2.526  21.267  0.00  0.00    +0.000 C 
ATOM     32  C   UNL     1       3.024   3.574  20.802  0.00  0.00    +0.000 C 
ATOM     33  C   UNL     1       3.065   3.462  19.272  0.00  0.00    +0.000 C 
BRANCH  29  34
ATOM     34  O   UNL     1       1.875   2.091  17.644  0.00  0.00    +0.000 OA
ATOM     35  H   UNL     1       1.048   1.599  17.498  0.00  0.00    +0.000 HD
ENDBRANCH  29  34
ENDBRANCH   1  33
TORSDOF 2
ENDMDL
MODEL 2
REMARK VINA RESULT:      -9.2      1.239      1.390
REMARK  Name = 
REMARK  2 active torsions:
REMARK  status: ('A' for Active; 'I' for Inactive)
REMARK    1  A    between atoms: O_1  and  C_2
REMARK    2  A    between atoms: C_6  and  N_7
REMARK                            x       y       z     vdW  Elec       q    Type
REMARK                         _______ _______ _______ _____ _____    ______ ____
ROOT
ATOM      1  N   UNL     1       3.403   4.819  18.427  0.00  0.00    +0.000 N 
ATOM      2  C   UNL     1       4.280   4.657  17.358  0.00  0.00    +0.000 A 
ATOM      3  C   UNL     1       4.924   3.536  16.840  0.00  0.00    +0.000 A 
ATOM      4  N   UNL     1       5.762   3.673  15.783  0.00  0.00    +0.000 NA
ATOM      5  C   UNL     1       5.947   4.890  15.238  0.00  0.00    +0.000 A 
ATOM      6  C   UNL     1       5.332   6.046  15.684  0.00  0.00    +0.000 A 
ATOM      7  C   UNL     1       4.472   5.913  16.783  0.00  0.00    +0.000 A 
ATOM      8  C   UNL     1       3.680   6.828  17.513  0.00  0.00    +0.000 A 
ATOM      9  C   UNL     1       3.447   8.185  17.432  0.00  0.00    +0.000 A 
ATOM     10  N   UNL     1       2.602   8.756  18.300  0.00  0.00    +0.000 NA
ATOM     11  C   UNL     1       1.977   8.020  19.240  0.00  0.00    +0.000 A 
ATOM     12  N   UNL     1       1.075   8.691  20.077  0.00  0.00    +0.000 N 
ATOM     13  C   UNL     1       0.680  10.033  20.020  0.00  0.00    +0.000 A 
ATOM     14  C   UNL     1       0.709  10.762  18.838  0.00  0.00    +0.000 A 
ATOM     15  C   UNL     1       0.379  12.114  18.814  0.00  0.00    +0.000 A 
ATOM     16  C   UNL     1      -0.038  12.760  19.962  0.00  0.00    +0.000 A 
ATOM     17  N   UNL     1      -0.390  14.096  19.884  0.00  0.00    +0.000 N 
ATOM     18  C   UNL     1      -1.389  14.650  20.798  0.00  0.00    +0.000 C 
ATOM     19  C   UNL     1      -0.780  15.673  21.777  0.00  0.00    +0.000 C 
ATOM     20  N   UNL     1       0.042  16.706  21.117  0.00  0.00    +0.000 NA
ATOM     21  C   UNL     1       1.102  16.040  20.340  0.00  0.00    +0.000 C 
ATOM     22  C   UNL     1       0.554  15.053  19.287  0.00  0.00    +0.000 C 
ATOM     23  N   UNL     1      -0.142  12.029  21.089  0.00  0.00    +0.000 NA
ATOM     24  N   UNL     1       0.230  10.661  21.122  0.00  0.00    +0.000 NA
ATOM     25  N   UNL     1       2.168   6.696  19.422  0.00  0.00    +0.000 NA
ATOM     26  C   UNL     1       3.019   6.145  18.522  0.00  0.00    +0.000 A 
ATOM     27  H   UNL     1       0.954   8.244  20.969  0.00  0.00    +0.000 HD
ATOM     28  H   UNL     1       0.469  17.296  21.829  0.00  0.00    +0.000 HD
ENDROOT
BRANCH   1  33
ATOM     29  C   UNL     1       1.655   3.078  18.931  0.00  0.00    +0.000 C 
ATOM     30  C   UNL     1       1.327   2.296  20.198  0.00  0.00    +0.000 C 
ATOM     31  C   UNL     1       1.720   3.234  21.331  0.00  0.00    +0.000 C 
ATOM     32  C   UNL     1       2.843   4.118  20.784  0.00  0.00    +0.000 C 
ATOM     33  C   UNL     1       2.985   3.741  19.304  0.00  0.00    +0.000 C 
BRANCH  29  34
ATOM     34  O   UNL     1       1.812   2.190  17.834  0.00  0.00    +0.000 OA
ATOM     35  H   UNL     1       0.991   2.223  17.311  0.00  0.00    +0.000 HD
ENDBRANCH  29  34
ENDBRANCH   1  33
TORSDOF 2
ENDMDL
MODEL 3
REMARK VINA RESULT:      -8.5      0.951      1.113
REMARK  Name = 
REMARK  2 active torsions:
REMARK  status: ('A' for Active; 'I' for Inactive)
REMARK    1  A    between atoms: O_1  and  C_2
REMARK    2  A    between atoms: C_6  and  N_7
REMARK                            x       y       z     vdW  Elec       q    Type
REMARK                         _______ _______ _______ _____ _____    ______ ____
ROOT
ATOM      1  N   UNL     1       3.267   5.025  18.508  0.00  0.00    +0.000 N 
ATOM      2  C   UNL     1       4.026   5.138  17.345  0.00  0.00    +0.000 A 
ATOM      3  C   UNL     1       4.692   4.192  16.569  0.00  0.00    +0.000 A 
ATOM      4  N   UNL     1       5.389   4.592  15.478  0.00  0.00    +0.000 NA
ATOM      5  C   UNL     1       5.414   5.898  15.150  0.00  0.00    +0.000 A 
ATOM      6  C   UNL     1       4.766   6.893  15.859  0.00  0.00    +0.000 A 
ATOM      7  C   UNL     1       4.051   6.487  16.995  0.00  0.00    +0.000 A 
ATOM      8  C   UNL     1       3.280   7.179  17.955  0.00  0.00    +0.000 A 
ATOM      9  C   UNL     1       2.933   8.500  18.148  0.00  0.00    +0.000 A 
ATOM     10  N   UNL     1       2.151   8.827  19.186  0.00  0.00    +0.000 NA
ATOM     11  C   UNL     1       1.698   7.881  20.032  0.00  0.00    +0.000 A 
ATOM     12  N   UNL     1       0.849   8.304  21.063  0.00  0.00    +0.000 N 
ATOM     13  C   UNL     1       0.346   9.591  21.293  0.00  0.00    +0.000 A 
ATOM     14  C   UNL     1       0.182  10.513  20.269  0.00  0.00    +0.000 A 
ATOM     15  C   UNL     1      -0.253  11.810  20.526  0.00  0.00    +0.000 A 
ATOM     16  C   UNL     1      -0.585  12.203  21.808  0.00  0.00    +0.000 A 
ATOM     17  N   UNL     1      -1.047  13.492  22.013  0.00  0.00    +0.000 N 
ATOM     18  C   UNL     1      -1.974  13.777  23.107  0.00  0.00    +0.000 C 
ATOM     19  C   UNL     1      -1.338  14.669  24.192  0.00  0.00    +0.000 C 
ATOM     20  N   UNL     1      -0.681  15.876  23.655  0.00  0.00    +0.000 NA
ATOM     21  C   UNL     1       0.332  15.463  22.668  0.00  0.00    +0.000 C 
ATOM     22  C   UNL     1      -0.255  14.625  21.511  0.00  0.00    +0.000 C 
ATOM     23  N   UNL     1      -0.501  11.280  22.787  0.00  0.00    +0.000 NA
ATOM     24  N   UNL     1      -0.021   9.971  22.531  0.00  0.00    +0.000 NA
ATOM     25  N   UNL     1       2.012   6.570  19.948  0.00  0.00    +0.000 NA
ATOM     26  C   UNL     1       2.794   6.270  18.882  0.00  0.00    +0.000 A 
ATOM     27  H   UNL     1       0.867   7.699  21.865  0.00  0.00    +0.000 HD
ATOM     28  H   UNL     1      -0.222  16.371  24.418  0.00  0.00    +0.000 HD
ENDROOT
BRANCH   1  33
ATOM     29  C   UNL     1       4.082   2.684  18.948  0.00  0.00    +0.000 C 
ATOM     30  C   UNL     1       3.381   1.442  19.489  0.00  0.00    +0.000 C 
ATOM     31  C   UNL     1       1.935   1.602  19.041  0.00  0.00    +0.000 C 
ATOM     32  C   UNL     1       1.685   3.108  18.933  0.00  0.00    +0.000 C 
ATOM     33  C   UNL     1       3.038   3.775  19.209  0.00  0.00    +0.000 C 
BRANCH  29  34
ATOM     34  O   UNL     1       5.277   2.928  19.677  0.00  0.00    +0.000 OA
ATOM     35  H   UNL     1       5.995   3.047  19.030  0.00  0.00    +0.000 HD
ENDBRANCH  29  34
ENDBRANCH   1  33
TORSDOF 2
ENDMDL
MODEL 4
REMARK VINA RESULT:      -8.3      1.938      3.885
REMARK  Name = 
REMARK  2 active torsions:
REMARK  status: ('A' for Active; 'I' for Inactive)
REMARK    1  A    between atoms: O_1  and  C_2
REMARK    2  A    between atoms: C_6  and  N_7
REMARK                            x       y       z     vdW  Elec       q    Type
REMARK                         _______ _______ _______ _____ _____    ______ ____
ROOT
ATOM      1  N   UNL     1       3.727   5.602  18.668  0.00  0.00    +0.000 N 
ATOM      2  C   UNL     1       3.708   4.425  19.412  0.00  0.00    +0.000 A 
ATOM      3  C   UNL     1       4.426   3.236  19.299  0.00  0.00    +0.000 A 
ATOM      4  N   UNL     1       4.182   2.222  20.164  0.00  0.00    +0.000 NA
ATOM      5  C   UNL     1       3.260   2.384  21.132  0.00  0.00    +0.000 A 
ATOM      6  C   UNL     1       2.519   3.537  21.319  0.00  0.00    +0.000 A 
ATOM      7  C   UNL     1       2.760   4.587  20.421  0.00  0.00    +0.000 A 
ATOM      8  C   UNL     1       2.224   5.887  20.283  0.00  0.00    +0.000 A 
ATOM      9  C   UNL     1       1.274   6.620  20.962  0.00  0.00    +0.000 A 
ATOM     10  N   UNL     1       1.004   7.870  20.564  0.00  0.00    +0.000 NA
ATOM     11  C   UNL     1       1.654   8.416  19.517  0.00  0.00    +0.000 A 
ATOM     12  N   UNL     1       1.342   9.744  19.197  0.00  0.00    +0.000 N 
ATOM     13  C   UNL     1       0.481  10.616  19.876  0.00  0.00    +0.000 A 
ATOM     14  C   UNL     1       0.215  10.483  21.232  0.00  0.00    +0.000 A 
ATOM     15  C   UNL     1      -0.697  11.315  21.875  0.00  0.00    +0.000 A 
ATOM     16  C   UNL     1      -1.329  12.335  21.190  0.00  0.00    +0.000 A 
ATOM     17  N   UNL     1      -2.202  13.160  21.877  0.00  0.00    +0.000 N 
ATOM     18  C   UNL     1      -2.391  14.547  21.455  0.00  0.00    +0.000 C 
ATOM     19  C   UNL     1      -3.810  14.803  20.912  0.00  0.00    +0.000 C 
ATOM     20  N   UNL     1      -4.881  14.314  21.802  0.00  0.00    +0.000 NA
ATOM     21  C   UNL     1      -4.673  12.876  22.044  0.00  0.00    +0.000 C 
ATOM     22  C   UNL     1      -3.292  12.557  22.659  0.00  0.00    +0.000 C 
ATOM     23  N   UNL     1      -1.006  12.510  19.893  0.00  0.00    +0.000 NA
ATOM     24  N   UNL     1      -0.106  11.639  19.228  0.00  0.00    +0.000 NA
ATOM     25  N   UNL     1       2.571   7.767  18.768  0.00  0.00    +0.000 NA
ATOM     26  C   UNL     1       2.830   6.509  19.202  0.00  0.00    +0.000 A 
ATOM     27  H   UNL     1       1.512   9.970  18.233  0.00  0.00    +0.000 HD
ATOM     28  H   UNL     1      -5.781  14.449  21.343  0.00  0.00    +0.000 HD
ENDROOT
BRANCH   1  33
ATOM     29  C   UNL     1       4.984   4.531  16.767  0.00  0.00    +0.000 C 
ATOM     30  C   UNL     1       6.111   5.036  15.873  0.00  0.00    +0.000 C 
ATOM     31  C   UNL     1       6.881   6.011  16.753  0.00  0.00    +0.000 C 
ATOM     32  C   UNL     1       5.870   6.571  17.757  0.00  0.00    +0.000 C 
ATOM     33  C   UNL     1       4.564   5.809  17.500  0.00  0.00    +0.000 C 
BRANCH  29  34
ATOM     34  O   UNL     1       3.923   4.018  15.975  0.00  0.00    +0.000 OA
ATOM     35  H   UNL     1       4.188   3.133  15.667  0.00  0.00    +0.000 HD
ENDBRANCH  29  34
ENDBRANCH   1  33
TORSDOF 2
ENDMDL
MODEL 5
REMARK VINA RESULT:      -8.3      1.929      3.831
REMARK  Name = 
REMARK  2 active torsions:
REMARK  status: ('A' for Active; 'I' for Inactive)
REMARK    1  A    between atoms: O_1  and  C_2
REMARK    2  A    between atoms: C_6  and  N_7
REMARK                            x       y       z     vdW  Elec       q    Type
REMARK                         _______ _______ _______ _____ _____    ______ ____
ROOT
ATOM      1  N   UNL     1       3.607   5.114  18.618  0.00  0.00    +0.000 N 
ATOM      2  C   UNL     1       3.166   3.806  18.803  0.00  0.00    +0.000 A 
ATOM      3  C   UNL     1       3.667   2.581  18.368  0.00  0.00    +0.000 A 
ATOM      4  N   UNL     1       3.009   1.439  18.680  0.00  0.00    +0.000 NA
ATOM      5  C   UNL     1       1.887   1.503  19.423  0.00  0.00    +0.000 A 
ATOM      6  C   UNL     1       1.337   2.676  19.906  0.00  0.00    +0.000 A 
ATOM      7  C   UNL     1       2.008   3.863  19.577  0.00  0.00    +0.000 A 
ATOM      8  C   UNL     1       1.771   5.224  19.870  0.00  0.00    +0.000 A 
ATOM      9  C   UNL     1       0.807   5.908  20.580  0.00  0.00    +0.000 A 
ATOM     10  N   UNL     1       0.887   7.242  20.675  0.00  0.00    +0.000 NA
ATOM     11  C   UNL     1       1.899   7.916  20.092  0.00  0.00    +0.000 A 
ATOM     12  N   UNL     1       1.930   9.303  20.280  0.00  0.00    +0.000 N 
ATOM     13  C   UNL     1       1.073  10.088  21.063  0.00  0.00    +0.000 A 
ATOM     14  C   UNL     1       0.404   9.574  22.166  0.00  0.00    +0.000 A 
ATOM     15  C   UNL     1      -0.497  10.349  22.891  0.00  0.00    +0.000 A 
ATOM     16  C   UNL     1      -0.713  11.674  22.563  0.00  0.00    +0.000 A 
ATOM     17  N   UNL     1      -1.591  12.417  23.333  0.00  0.00    +0.000 N 
ATOM     18  C   UNL     1      -1.404  13.860  23.478  0.00  0.00    +0.000 C 
ATOM     19  C   UNL     1      -2.535  14.665  22.809  0.00  0.00    +0.000 C 
ATOM     20  N   UNL     1      -3.888  14.211  23.189  0.00  0.00    +0.000 NA
ATOM     21  C   UNL     1      -4.013  12.780  22.866  0.00  0.00    +0.000 C 
ATOM     22  C   UNL     1      -2.950  11.904  23.566  0.00  0.00    +0.000 C 
ATOM     23  N   UNL     1      -0.000  12.190  21.542  0.00  0.00    +0.000 NA
ATOM     24  N   UNL     1       0.888  11.391  20.780  0.00  0.00    +0.000 NA
ATOM     25  N   UNL     1       2.867   7.340  19.347  0.00  0.00    +0.000 NA
ATOM     26  C   UNL     1       2.765   5.990  19.279  0.00  0.00    +0.000 A 
ATOM     27  H   UNL     1       2.410   9.792  19.546  0.00  0.00    +0.000 HD
ATOM     28  H   UNL     1      -4.577  14.737  22.652  0.00  0.00    +0.000 HD
ENDROOT
BRANCH   1  33
ATOM     29  C   UNL     1       6.094   5.502  18.599  0.00  0.00    +0.000 C 
ATOM     30  C   UNL     1       7.005   6.252  17.634  0.00  0.00    +0.000 C 
ATOM     31  C   UNL     1       6.125   7.360  17.071  0.00  0.00    +0.000 C 
ATOM     32  C   UNL     1       4.689   6.833  17.123  0.00  0.00    +0.000 C 
ATOM     33  C   UNL     1       4.771   5.473  17.829  0.00  0.00    +0.000 C 
BRANCH  29  34
ATOM     34  O   UNL     1       6.591   4.190  18.821  0.00  0.00    +0.000 OA
ATOM     35  H   UNL     1       7.414   4.097  18.309  0.00  0.00    +0.000 HD
ENDBRANCH  29  34
ENDBRANCH   1  33
TORSDOF 2
ENDMDL
MODEL 6
REMARK VINA RESULT:      -8.2      1.896      2.276
REMARK  Name = 
REMARK  2 active torsions:
REMARK  status: ('A' for Active; 'I' for Inactive)
REMARK    1  A    between atoms: O_1  and  C_2
REMARK    2  A    between atoms: C_6  and  N_7
REMARK                            x       y       z     vdW  Elec       q    Type
REMARK                         _______ _______ _______ _____ _____    ______ ____
ROOT
ATOM      1  N   UNL     1       2.569   5.533  18.500  0.00  0.00    +0.000 N 
ATOM      2  C   UNL     1       3.593   5.265  17.594  0.00  0.00    +0.000 A 
ATOM      3  C   UNL     1       4.173   4.074  17.165  0.00  0.00    +0.000 A 
ATOM      4  N   UNL     1       5.192   4.108  16.273  0.00  0.00    +0.000 NA
ATOM      5  C   UNL     1       5.619   5.295  15.800  0.00  0.00    +0.000 A 
ATOM      6  C   UNL     1       5.085   6.518  16.165  0.00  0.00    +0.000 A 
ATOM      7  C   UNL     1       4.037   6.489  17.095  0.00  0.00    +0.000 A 
ATOM      8  C   UNL     1       3.250   7.494  17.702  0.00  0.00    +0.000 A 
ATOM      9  C   UNL     1       3.205   8.870  17.619  0.00  0.00    +0.000 A 
ATOM     10  N   UNL     1       2.300   9.540  18.343  0.00  0.00    +0.000 NA
ATOM     11  C   UNL     1       1.433   8.885  19.142  0.00  0.00    +0.000 A 
ATOM     12  N   UNL     1       0.490   9.660  19.828  0.00  0.00    +0.000 N 
ATOM     13  C   UNL     1       0.281  11.043  19.741  0.00  0.00    +0.000 A 
ATOM     14  C   UNL     1       0.606  11.768  18.602  0.00  0.00    +0.000 A 
ATOM     15  C   UNL     1       0.457  13.151  18.558  0.00  0.00    +0.000 A 
ATOM     16  C   UNL     1      -0.071  13.839  19.633  0.00  0.00    +0.000 A 
ATOM     17  N   UNL     1      -0.235  15.210  19.532  0.00  0.00    +0.000 N 
ATOM     18  C   UNL     1      -1.300  15.881  20.275  0.00  0.00    +0.000 C 
ATOM     19  C   UNL     1      -0.749  16.813  21.372  0.00  0.00    +0.000 C 
ATOM     20  N   UNL     1       0.298  17.737  20.892  0.00  0.00    +0.000 NA
ATOM     21  C   UNL     1       1.385  16.946  20.292  0.00  0.00    +0.000 C 
ATOM     22  C   UNL     1       0.911  16.041  19.133  0.00  0.00    +0.000 C 
ATOM     23  N   UNL     1      -0.460  13.121  20.706  0.00  0.00    +0.000 NA
ATOM     24  N   UNL     1      -0.272  11.717  20.765  0.00  0.00    +0.000 NA
ATOM     25  N   UNL     1       1.423   7.546  19.318  0.00  0.00    +0.000 NA
ATOM     26  C   UNL     1       2.343   6.896  18.563  0.00  0.00    +0.000 A 
ATOM     27  H   UNL     1       0.161   9.228  20.673  0.00  0.00    +0.000 HD
ATOM     28  H   UNL     1       0.664  18.264  21.683  0.00  0.00    +0.000 HD
ENDROOT
BRANCH   1  33
ATOM     29  C   UNL     1       2.635   3.978  20.480  0.00  0.00    +0.000 C 
ATOM     30  C   UNL     1       1.849   2.716  20.815  0.00  0.00    +0.000 C 
ATOM     31  C   UNL     1       1.528   2.102  19.459  0.00  0.00    +0.000 C 
ATOM     32  C   UNL     1       1.467   3.265  18.466  0.00  0.00    +0.000 C 
ATOM     33  C   UNL     1       1.874   4.512  19.262  0.00  0.00    +0.000 C 
BRANCH  29  34
ATOM     34  O   UNL     1       2.579   4.893  21.565  0.00  0.00    +0.000 OA
ATOM     35  H   UNL     1       2.234   5.736  21.219  0.00  0.00    +0.000 HD
ENDBRANCH  29  34
ENDBRANCH   1  33
TORSDOF 2
ENDMDL
MODEL 7
REMARK VINA RESULT:      -8.1      1.357      1.524
REMARK  Name = 
REMARK  2 active torsions:
REMARK  status: ('A' for Active; 'I' for Inactive)
REMARK    1  A    between atoms: O_1  and  C_2
REMARK    2  A    between atoms: C_6  and  N_7
REMARK                            x       y       z     vdW  Elec       q    Type
REMARK                         _______ _______ _______ _____ _____    ______ ____
ROOT
ATOM      1  N   UNL     1       3.394   5.034  18.269  0.00  0.00    +0.000 N 
ATOM      2  C   UNL     1       4.250   4.952  17.173  0.00  0.00    +0.000 A 
ATOM      3  C   UNL     1       4.894   3.875  16.568  0.00  0.00    +0.000 A 
ATOM      4  N   UNL     1       5.707   4.091  15.506  0.00  0.00    +0.000 NA
ATOM      5  C   UNL     1       5.867   5.345  15.039  0.00  0.00    +0.000 A 
ATOM      6  C   UNL     1       5.251   6.461  15.573  0.00  0.00    +0.000 A 
ATOM      7  C   UNL     1       4.416   6.245  16.679  0.00  0.00    +0.000 A 
ATOM      8  C   UNL     1       3.631   7.101  17.484  0.00  0.00    +0.000 A 
ATOM      9  C   UNL     1       3.382   8.458  17.498  0.00  0.00    +0.000 A 
ATOM     10  N   UNL     1       2.551   8.961  18.419  0.00  0.00    +0.000 NA
ATOM     11  C   UNL     1       1.953   8.157  19.322  0.00  0.00    +0.000 A 
ATOM     12  N   UNL     1       1.064   8.760  20.220  0.00  0.00    +0.000 N 
ATOM     13  C   UNL     1       0.654  10.099  20.261  0.00  0.00    +0.000 A 
ATOM     14  C   UNL     1       0.649  10.904  19.129  0.00  0.00    +0.000 A 
ATOM     15  C   UNL     1       0.305  12.251  19.202  0.00  0.00    +0.000 A 
ATOM     16  C   UNL     1      -0.094  12.815  20.398  0.00  0.00    +0.000 A 
ATOM     17  N   UNL     1      -0.461  14.149  20.416  0.00  0.00    +0.000 N 
ATOM     18  C   UNL     1      -1.445  14.630  21.386  0.00  0.00    +0.000 C 
ATOM     19  C   UNL     1      -0.825  15.593  22.417  0.00  0.00    +0.000 C 
ATOM     20  N   UNL     1      -0.029  16.677  21.810  0.00  0.00    +0.000 NA
ATOM     21  C   UNL     1       1.021  16.076  20.969  0.00  0.00    +0.000 C 
ATOM     22  C   UNL     1       0.460  15.154  19.864  0.00  0.00    +0.000 C 
ATOM     23  N   UNL     1      -0.165  12.010  21.477  0.00  0.00    +0.000 NA
ATOM     24  N   UNL     1       0.222  10.648  21.411  0.00  0.00    +0.000 NA
ATOM     25  N   UNL     1       2.162   6.826  19.412  0.00  0.00    +0.000 NA
ATOM     26  C   UNL     1       2.999   6.345  18.460  0.00  0.00    +0.000 A 
ATOM     27  H   UNL     1       0.967   8.254  21.083  0.00  0.00    +0.000 HD
ATOM     28  H   UNL     1       0.408  17.223  22.551  0.00  0.00    +0.000 HD
ENDROOT
BRANCH   1  33
ATOM     29  C   UNL     1       3.932   2.678  18.977  0.00  0.00    +0.000 C 
ATOM     30  C   UNL     1       3.082   1.581  19.609  0.00  0.00    +0.000 C 
ATOM     31  C   UNL     1       1.677   1.845  19.084  0.00  0.00    +0.000 C 
ATOM     32  C   UNL     1       1.598   3.350  18.814  0.00  0.00    +0.000 C 
ATOM     33  C   UNL     1       3.007   3.895  19.081  0.00  0.00    +0.000 C 
BRANCH  29  34
ATOM     34  O   UNL     1       5.122   2.869  19.729  0.00  0.00    +0.000 OA
ATOM     35  H   UNL     1       5.067   3.748  20.146  0.00  0.00    +0.000 HD
ENDBRANCH  29  34
ENDBRANCH   1  33
TORSDOF 2
ENDMDL
MODEL 8
REMARK VINA RESULT:      -7.9      2.078      4.112
REMARK  Name = 
REMARK  2 active torsions:
REMARK  status: ('A' for Active; 'I' for Inactive)
REMARK    1  A    between atoms: O_1  and  C_2
REMARK    2  A    between atoms: C_6  and  N_7
REMARK                            x       y       z     vdW  Elec       q    Type
REMARK                         _______ _______ _______ _____ _____    ______ ____
ROOT
ATOM      1  N   UNL     1       3.621   5.263  19.067  0.00  0.00    +0.000 N 
ATOM      2  C   UNL     1       3.483   4.091  19.807  0.00  0.00    +0.000 A 
ATOM      3  C   UNL     1       4.135   2.862  19.739  0.00  0.00    +0.000 A 
ATOM      4  N   UNL     1       3.775   1.866  20.585  0.00  0.00    +0.000 NA
ATOM      5  C   UNL     1       2.803   2.084  21.491  0.00  0.00    +0.000 A 
ATOM      6  C   UNL     1       2.122   3.280  21.630  0.00  0.00    +0.000 A 
ATOM      7  C   UNL     1       2.482   4.311  20.752  0.00  0.00    +0.000 A 
ATOM      8  C   UNL     1       2.035   5.640  20.580  0.00  0.00    +0.000 A 
ATOM      9  C   UNL     1       1.087   6.430  21.197  0.00  0.00    +0.000 A 
ATOM     10  N   UNL     1       0.918   7.693  20.784  0.00  0.00    +0.000 NA
ATOM     11  C   UNL     1       1.667   8.197  19.782  0.00  0.00    +0.000 A 
ATOM     12  N   UNL     1       1.456   9.540  19.445  0.00  0.00    +0.000 N 
ATOM     13  C   UNL     1       0.604  10.463  20.067  0.00  0.00    +0.000 A 
ATOM     14  C   UNL     1       0.243  10.349  21.403  0.00  0.00    +0.000 A 
ATOM     15  C   UNL     1      -0.659  11.235  21.986  0.00  0.00    +0.000 A 
ATOM     16  C   UNL     1      -1.183  12.289  21.262  0.00  0.00    +0.000 A 
ATOM     17  N   UNL     1      -2.049  13.166  21.891  0.00  0.00    +0.000 N 
ATOM     18  C   UNL     1      -2.127  14.561  21.460  0.00  0.00    +0.000 C 
ATOM     19  C   UNL     1      -3.490  14.899  20.825  0.00  0.00    +0.000 C 
ATOM     20  N   UNL     1      -4.644  14.476  21.642  0.00  0.00    +0.000 NA
ATOM     21  C   UNL     1      -4.538  13.029  21.895  0.00  0.00    +0.000 C 
ATOM     22  C   UNL     1      -3.222  12.631  22.599  0.00  0.00    +0.000 C 
ATOM     23  N   UNL     1      -0.766  12.442  19.989  0.00  0.00    +0.000 NA
ATOM     24  N   UNL     1       0.123  11.518  19.384  0.00  0.00    +0.000 NA
ATOM     25  N   UNL     1       2.591   7.493  19.094  0.00  0.00    +0.000 NA
ATOM     26  C   UNL     1       2.746   6.223  19.542  0.00  0.00    +0.000 A 
ATOM     27  H   UNL     1       1.701   9.754  18.495  0.00  0.00    +0.000 HD
ATOM     28  H   UNL     1      -5.502  14.663  21.125  0.00  0.00    +0.000 HD
ENDROOT
BRANCH   1  33
ATOM     29  C   UNL     1       5.952   5.878  18.342  0.00  0.00    +0.000 C 
ATOM     30  C   UNL     1       6.527   6.297  16.993  0.00  0.00    +0.000 C 
ATOM     31  C   UNL     1       5.373   7.006  16.297  0.00  0.00    +0.000 C 
ATOM     32  C   UNL     1       4.090   6.389  16.859  0.00  0.00    +0.000 C 
ATOM     33  C   UNL     1       4.543   5.417  17.957  0.00  0.00    +0.000 C 
BRANCH  29  34
ATOM     34  O   UNL     1       6.713   4.810  18.888  0.00  0.00    +0.000 OA
ATOM     35  H   UNL     1       6.725   4.924  19.855  0.00  0.00    +0.000 HD
ENDBRANCH  29  34
ENDBRANCH   1  33
TORSDOF 2
ENDMDL
MODEL 9
REMARK VINA RESULT:      -7.9      2.002      3.740
REMARK  Name = 
REMARK  2 active torsions:
REMARK  status: ('A' for Active; 'I' for Inactive)
REMARK    1  A    between atoms: O_1  and  C_2
REMARK    2  A    between atoms: C_6  and  N_7
REMARK                            x       y       z     vdW  Elec       q    Type
REMARK                         _______ _______ _______ _____ _____    ______ ____
ROOT
ATOM      1  N   UNL     1       3.641   5.336  19.013  0.00  0.00    +0.000 N 
ATOM      2  C   UNL     1       3.149   4.034  19.065  0.00  0.00    +0.000 A 
ATOM      3  C   UNL     1       3.671   2.820  18.622  0.00  0.00    +0.000 A 
ATOM      4  N   UNL     1       2.951   1.683  18.784  0.00  0.00    +0.000 NA
ATOM      5  C   UNL     1       1.749   1.741  19.388  0.00  0.00    +0.000 A 
ATOM      6  C   UNL     1       1.172   2.902  19.869  0.00  0.00    +0.000 A 
ATOM      7  C   UNL     1       1.907   4.083  19.695  0.00  0.00    +0.000 A 
ATOM      8  C   UNL     1       1.669   5.433  20.037  0.00  0.00    +0.000 A 
ATOM      9  C   UNL     1       0.642   6.106  20.665  0.00  0.00    +0.000 A 
ATOM     10  N   UNL     1       0.741   7.429  20.848  0.00  0.00    +0.000 NA
ATOM     11  C   UNL     1       1.833   8.102  20.433  0.00  0.00    +0.000 A 
ATOM     12  N   UNL     1       1.875   9.476  20.705  0.00  0.00    +0.000 N 
ATOM     13  C   UNL     1       0.948  10.242  21.425  0.00  0.00    +0.000 A 
ATOM     14  C   UNL     1       0.136   9.688  22.406  0.00  0.00    +0.000 A 
ATOM     15  C   UNL     1      -0.828  10.449  23.061  0.00  0.00    +0.000 A 
ATOM     16  C   UNL     1      -0.970  11.796  22.788  0.00  0.00    +0.000 A 
ATOM     17  N   UNL     1      -1.918  12.522  23.489  0.00  0.00    +0.000 N 
ATOM     18  C   UNL     1      -1.716  13.948  23.742  0.00  0.00    +0.000 C 
ATOM     19  C   UNL     1      -2.737  14.824  22.990  0.00  0.00    +0.000 C 
ATOM     20  N   UNL     1      -4.136  14.392  23.175  0.00  0.00    +0.000 NA
ATOM     21  C   UNL     1      -4.255  12.985  22.756  0.00  0.00    +0.000 C 
ATOM     22  C   UNL     1      -3.307  12.040  23.526  0.00  0.00    +0.000 C 
ATOM     23  N   UNL     1      -0.126  12.346  21.893  0.00  0.00    +0.000 NA
ATOM     24  N   UNL     1       0.830  11.563  21.198  0.00  0.00    +0.000 NA
ATOM     25  N   UNL     1       2.871   7.540  19.778  0.00  0.00    +0.000 NA
ATOM     26  C   UNL     1       2.746   6.200  19.618  0.00  0.00    +0.000 A 
ATOM     27  H   UNL     1       2.453   9.990  20.065  0.00  0.00    +0.000 HD
ATOM     28  H   UNL     1      -4.741  14.968  22.592  0.00  0.00    +0.000 HD
ENDROOT
BRANCH   1  33
ATOM     29  C   UNL     1       4.876   5.774  16.863  0.00  0.00    +0.000 C 
ATOM     30  C   UNL     1       6.363   5.797  16.524  0.00  0.00    +0.000 C 
ATOM     31  C   UNL     1       6.984   4.798  17.491  0.00  0.00    +0.000 C 
ATOM     32  C   UNL     1       6.087   4.790  18.731  0.00  0.00    +0.000 C 
ATOM     33  C   UNL     1       4.901   5.702  18.393  0.00  0.00    +0.000 C 
BRANCH  29  34
ATOM     34  O   UNL     1       4.253   6.969  16.413  0.00  0.00    +0.000 OA
ATOM     35  H   UNL     1       4.160   7.558  17.182  0.00  0.00    +0.000 HD
ENDBRANCH  29  34
ENDBRANCH   1  33
TORSDOF 2
ENDMDL
