MODEL 1
REMARK VINA RESULT:      -8.0      0.000      0.000
REMARK  Name = 
REMARK  6 active torsions:
REMARK  status: ('A' for Active; 'I' for Inactive)
REMARK    1  A    between atoms: C_1  and  N_2
REMARK    2  A    between atoms: N_2  and  C_3
REMARK    3  A    between atoms: C_3  and  C_4
REMARK    4  A    between atoms: N_6  and  C_7
REMARK    5  A    between atoms: C_17  and  C_19
REMARK    6  A    between atoms: C_20  and  C_21
REMARK                            x       y       z     vdW  Elec       q    Type
REMARK                         _______ _______ _______ _____ _____    ______ ____
ROOT
ATOM      1  C   UNL     1       1.926   5.307  20.541  0.00  0.00    +0.000 C 
ATOM      2  O   UNL     1       0.774   5.128  20.137  0.00  0.00    +0.000 OA
ATOM      3  N   UNL     1       2.638   6.487  20.388  0.00  0.00    +0.000 N 
ATOM      4  H   UNL     1       3.645   6.416  20.415  0.00  0.00    +0.000 HD
ENDROOT
BRANCH   3   5
ATOM      5  C   UNL     1       2.055   7.624  19.760  0.00  0.00    +0.000 A 
ATOM      6  C   UNL     1       2.289   7.830  18.390  0.00  0.00    +0.000 A 
ATOM      7  C   UNL     1       1.817   8.971  17.748  0.00  0.00    +0.000 A 
ATOM      8  C   UNL     1       1.123   9.930  18.474  0.00  0.00    +0.000 A 
ATOM      9  C   UNL     1       0.859   9.744  19.840  0.00  0.00    +0.000 A 
ATOM     10  C   UNL     1       0.188  10.753  20.551  0.00  0.00    +0.000 A 
ATOM     11  C   UNL     1      -0.080  10.608  21.912  0.00  0.00    +0.000 A 
ATOM     12  C   UNL     1       0.303   9.447  22.568  0.00  0.00    +0.000 A 
ATOM     13  C   UNL     1       0.978   8.439  21.875  0.00  0.00    +0.000 A 
ATOM     14  C   UNL     1       1.287   8.562  20.500  0.00  0.00    +0.000 A 
ENDBRANCH   3   5
BRANCH   1  15
ATOM     15  C   UNL     1       2.700   4.110  21.117  0.00  0.00    +0.000 C 
BRANCH  15  17
ATOM     16  C   UNL     1       1.694   2.037  20.207  0.00  0.00    +0.000 C 
ATOM     17  N   UNL     1       2.833   2.944  20.238  0.00  0.00    +0.000 N 
ATOM     18  C   UNL     1       3.776   2.779  19.236  0.00  0.00    +0.000 C 
ATOM     19  O   UNL     1       3.681   1.887  18.395  0.00  0.00    +0.000 OA
BRANCH  18  20
ATOM     20  C   UNL     1       4.951   3.693  19.223  0.00  0.00    +0.000 C 
ATOM     21  C   UNL     1       4.952   4.736  18.378  0.00  0.00    +0.000 C 
BRANCH  21  22
ATOM     22  C   UNL     1       6.050   5.641  18.280  0.00  0.00    +0.000 A 
ATOM     23  C   UNL     1       7.225   5.736  19.012  0.00  0.00    +0.000 A 
ATOM     24  C   UNL     1       8.078   6.791  18.575  0.00  0.00    +0.000 A 
ATOM     25  C   UNL     1       7.536   7.486  17.522  0.00  0.00    +0.000 A 
ATOM     26  S   UNL     1       6.012   6.869  17.067  0.00  0.00    +0.000 S 
ENDBRANCH  21  22
ENDBRANCH  18  20
ENDBRANCH  15  17
ENDBRANCH   1  15
TORSDOF 5
ENDMDL
MODEL 2
REMARK VINA RESULT:      -7.6      3.572      6.029
REMARK  Name = 
REMARK  6 active torsions:
REMARK  status: ('A' for Active; 'I' for Inactive)
REMARK    1  A    between atoms: C_1  and  N_2
REMARK    2  A    between atoms: N_2  and  C_3
REMARK    3  A    between atoms: C_3  and  C_4
REMARK    4  A    between atoms: N_6  and  C_7
REMARK    5  A    between atoms: C_17  and  C_19
REMARK    6  A    between atoms: C_20  and  C_21
REMARK                            x       y       z     vdW  Elec       q    Type
REMARK                         _______ _______ _______ _____ _____    ______ ____
ROOT
ATOM      1  C   UNL     1       4.737   6.591  17.552  0.00  0.00    +0.000 C 
ATOM      2  O   UNL     1       3.777   6.934  16.858  0.00  0.00    +0.000 OA
ATOM      3  N   UNL     1       4.634   5.895  18.747  0.00  0.00    +0.000 N 
ATOM      4  H   UNL     1       5.406   5.985  19.392  0.00  0.00    +0.000 HD
ENDROOT
BRANCH   3   5
ATOM      5  C   UNL     1       3.369   5.486  19.256  0.00  0.00    +0.000 A 
ATOM      6  C   UNL     1       2.681   6.350  20.124  0.00  0.00    +0.000 A 
ATOM      7  C   UNL     1       1.484   5.961  20.719  0.00  0.00    +0.000 A 
ATOM      8  C   UNL     1       0.971   4.695  20.468  0.00  0.00    +0.000 A 
ATOM      9  C   UNL     1       1.627   3.816  19.591  0.00  0.00    +0.000 A 
ATOM     10  C   UNL     1       1.101   2.529  19.391  0.00  0.00    +0.000 A 
ATOM     11  C   UNL     1       1.733   1.626  18.537  0.00  0.00    +0.000 A 
ATOM     12  C   UNL     1       2.884   2.007  17.863  0.00  0.00    +0.000 A 
ATOM     13  C   UNL     1       3.423   3.280  18.059  0.00  0.00    +0.000 A 
ATOM     14  C   UNL     1       2.822   4.215  18.935  0.00  0.00    +0.000 A 
ENDBRANCH   3   5
BRANCH   1  15
ATOM     15  C   UNL     1       6.140   7.091  17.170  0.00  0.00    +0.000 C 
BRANCH  15  17
ATOM     16  C   UNL     1       8.085   6.668  18.645  0.00  0.00    +0.000 C 
ATOM     17  N   UNL     1       7.259   6.217  17.534  0.00  0.00    +0.000 N 
ATOM     18  C   UNL     1       7.426   4.898  17.141  0.00  0.00    +0.000 C 
ATOM     19  O   UNL     1       8.259   4.163  17.668  0.00  0.00    +0.000 OA
BRANCH  18  20
ATOM     20  C   UNL     1       6.593   4.392  16.016  0.00  0.00    +0.000 C 
ATOM     21  C   UNL     1       7.090   4.436  14.769  0.00  0.00    +0.000 C 
BRANCH  21  22
ATOM     22  C   UNL     1       6.346   4.001  13.633  0.00  0.00    +0.000 A 
ATOM     23  C   UNL     1       4.986   3.796  13.454  0.00  0.00    +0.000 A 
ATOM     24  C   UNL     1       4.648   3.365  12.138  0.00  0.00    +0.000 A 
ATOM     25  C   UNL     1       5.758   3.244  11.337  0.00  0.00    +0.000 A 
ATOM     26  S   UNL     1       7.192   3.646  12.170  0.00  0.00    +0.000 S 
ENDBRANCH  21  22
ENDBRANCH  18  20
ENDBRANCH  15  17
ENDBRANCH   1  15
TORSDOF 5
ENDMDL
MODEL 3
REMARK VINA RESULT:      -7.4      1.225      1.489
REMARK  Name = 
REMARK  6 active torsions:
REMARK  status: ('A' for Active; 'I' for Inactive)
REMARK    1  A    between atoms: C_1  and  N_2
REMARK    2  A    between atoms: N_2  and  C_3
REMARK    3  A    between atoms: C_3  and  C_4
REMARK    4  A    between atoms: N_6  and  C_7
REMARK    5  A    between atoms: C_17  and  C_19
REMARK    6  A    between atoms: C_20  and  C_21
REMARK                            x       y       z     vdW  Elec       q    Type
REMARK                         _______ _______ _______ _____ _____    ______ ____
ROOT
ATOM      1  C   UNL     1       1.822   5.665  20.688  0.00  0.00    +0.000 C 
ATOM      2  O   UNL     1       0.645   5.459  20.382  0.00  0.00    +0.000 OA
ATOM      3  N   UNL     1       2.503   6.847  20.438  0.00  0.00    +0.000 N 
ATOM      4  H   UNL     1       3.510   6.789  20.389  0.00  0.00    +0.000 HD
ENDROOT
BRANCH   3   5
ATOM      5  C   UNL     1       1.857   7.954  19.818  0.00  0.00    +0.000 A 
ATOM      6  C   UNL     1       2.051   8.163  18.442  0.00  0.00    +0.000 A 
ATOM      7  C   UNL     1       1.515   9.279  17.807  0.00  0.00    +0.000 A 
ATOM      8  C   UNL     1       0.796  10.210  18.543  0.00  0.00    +0.000 A 
ATOM      9  C   UNL     1       0.570  10.020  19.916  0.00  0.00    +0.000 A 
ATOM     10  C   UNL     1      -0.129  11.002  20.638  0.00  0.00    +0.000 A 
ATOM     11  C   UNL     1      -0.359  10.852  22.005  0.00  0.00    +0.000 A 
ATOM     12  C   UNL     1       0.089   9.713  22.658  0.00  0.00    +0.000 A 
ATOM     13  C   UNL     1       0.792   8.732  21.954  0.00  0.00    +0.000 A 
ATOM     14  C   UNL     1       1.065   8.861  20.571  0.00  0.00    +0.000 A 
ENDBRANCH   3   5
BRANCH   1  15
ATOM     15  C   UNL     1       2.656   4.498  21.243  0.00  0.00    +0.000 C 
BRANCH  15  17
ATOM     16  C   UNL     1       1.613   2.289  21.653  0.00  0.00    +0.000 C 
ATOM     17  N   UNL     1       2.321   3.166  20.731  0.00  0.00    +0.000 N 
ATOM     18  C   UNL     1       2.341   2.772  19.402  0.00  0.00    +0.000 C 
ATOM     19  O   UNL     1       1.829   1.718  19.029  0.00  0.00    +0.000 OA
BRANCH  18  20
ATOM     20  C   UNL     1       3.044   3.646  18.424  0.00  0.00    +0.000 C 
ATOM     21  C   UNL     1       4.386   3.690  18.440  0.00  0.00    +0.000 C 
BRANCH  21  22
ATOM     22  C   UNL     1       5.136   4.523  17.559  0.00  0.00    +0.000 A 
ATOM     23  C   UNL     1       4.747   5.279  16.463  0.00  0.00    +0.000 A 
ATOM     24  C   UNL     1       5.823   5.990  15.857  0.00  0.00    +0.000 A 
ATOM     25  C   UNL     1       7.016   5.760  16.498  0.00  0.00    +0.000 A 
ATOM     26  S   UNL     1       6.835   4.694  17.818  0.00  0.00    +0.000 S 
ENDBRANCH  21  22
ENDBRANCH  18  20
ENDBRANCH  15  17
ENDBRANCH   1  15
TORSDOF 5
ENDMDL
MODEL 4
REMARK VINA RESULT:      -7.3      1.756      1.890
REMARK  Name = 
REMARK  6 active torsions:
REMARK  status: ('A' for Active; 'I' for Inactive)
REMARK    1  A    between atoms: C_1  and  N_2
REMARK    2  A    between atoms: N_2  and  C_3
REMARK    3  A    between atoms: C_3  and  C_4
REMARK    4  A    between atoms: N_6  and  C_7
REMARK    5  A    between atoms: C_17  and  C_19
REMARK    6  A    between atoms: C_20  and  C_21
REMARK                            x       y       z     vdW  Elec       q    Type
REMARK                         _______ _______ _______ _____ _____    ______ ____
ROOT
ATOM      1  C   UNL     1       2.304   6.112  19.624  0.00  0.00    +0.000 C 
ATOM      2  O   UNL     1       2.120   6.161  18.406  0.00  0.00    +0.000 OA
ATOM      3  N   UNL     1       2.064   7.162  20.498  0.00  0.00    +0.000 N 
ATOM      4  H   UNL     1       2.571   7.151  21.371  0.00  0.00    +0.000 HD
ENDROOT
BRANCH   3   5
ATOM      5  C   UNL     1       1.540   8.402  20.035  0.00  0.00    +0.000 A 
ATOM      6  C   UNL     1       1.866   8.829  18.737  0.00  0.00    +0.000 A 
ATOM      7  C   UNL     1       1.453  10.073  18.269  0.00  0.00    +0.000 A 
ATOM      8  C   UNL     1       0.726  10.914  19.101  0.00  0.00    +0.000 A 
ATOM      9  C   UNL     1       0.370  10.508  20.398  0.00  0.00    +0.000 A 
ATOM     10  C   UNL     1      -0.332  11.400  21.226  0.00  0.00    +0.000 A 
ATOM     11  C   UNL     1      -0.690  11.035  22.523  0.00  0.00    +0.000 A 
ATOM     12  C   UNL     1      -0.367   9.771  22.997  0.00  0.00    +0.000 A 
ATOM     13  C   UNL     1       0.338   8.878  22.187  0.00  0.00    +0.000 A 
ATOM     14  C   UNL     1       0.738   9.221  20.874  0.00  0.00    +0.000 A 
ENDBRANCH   3   5
BRANCH   1  15
ATOM     15  C   UNL     1       2.990   4.871  20.218  0.00  0.00    +0.000 C 
BRANCH  15  17
ATOM     16  C   UNL     1       1.190   3.175  20.364  0.00  0.00    +0.000 C 
ATOM     17  N   UNL     1       2.465   3.573  19.783  0.00  0.00    +0.000 N 
ATOM     18  C   UNL     1       2.891   2.846  18.683  0.00  0.00    +0.000 C 
ATOM     19  O   UNL     1       2.253   1.887  18.250  0.00  0.00    +0.000 OA
BRANCH  18  20
ATOM     20  C   UNL     1       4.184   3.227  18.051  0.00  0.00    +0.000 C 
ATOM     21  C   UNL     1       4.164   3.903  16.891  0.00  0.00    +0.000 C 
BRANCH  21  22
ATOM     22  C   UNL     1       5.356   4.279  16.204  0.00  0.00    +0.000 A 
ATOM     23  C   UNL     1       6.592   4.695  16.676  0.00  0.00    +0.000 A 
ATOM     24  C   UNL     1       7.531   4.965  15.639  0.00  0.00    +0.000 A 
ATOM     25  C   UNL     1       6.993   4.756  14.392  0.00  0.00    +0.000 A 
ATOM     26  S   UNL     1       5.369   4.239  14.477  0.00  0.00    +0.000 S 
ENDBRANCH  21  22
ENDBRANCH  18  20
ENDBRANCH  15  17
ENDBRANCH   1  15
TORSDOF 5
ENDMDL
MODEL 5
REMARK VINA RESULT:      -7.1      1.955      2.311
REMARK  Name = 
REMARK  6 active torsions:
REMARK  status: ('A' for Active; 'I' for Inactive)
REMARK    1  A    between atoms: C_1  and  N_2
REMARK    2  A    between atoms: N_2  and  C_3
REMARK    3  A    between atoms: C_3  and  C_4
REMARK    4  A    between atoms: N_6  and  C_7
REMARK    5  A    between atoms: C_17  and  C_19
REMARK    6  A    between atoms: C_20  and  C_21
REMARK                            x       y       z     vdW  Elec       q    Type
REMARK                         _______ _______ _______ _____ _____    ______ ____
ROOT
ATOM      1  C   UNL     1       2.336   6.578  19.379  0.00  0.00    +0.000 C 
ATOM      2  O   UNL     1       2.318   6.852  18.177  0.00  0.00    +0.000 OA
ATOM      3  N   UNL     1       1.898   7.426  20.385  0.00  0.00    +0.000 N 
ATOM      4  H   UNL     1       2.280   7.272  21.307  0.00  0.00    +0.000 HD
ENDROOT
BRANCH   3   5
ATOM      5  C   UNL     1       1.349   8.705  20.085  0.00  0.00    +0.000 A 
ATOM      6  C   UNL     1       1.642   9.290  18.841  0.00  0.00    +0.000 A 
ATOM      7  C   UNL     1       1.204  10.574  18.534  0.00  0.00    +0.000 A 
ATOM      8  C   UNL     1       0.485  11.299  19.476  0.00  0.00    +0.000 A 
ATOM      9  C   UNL     1       0.162  10.735  20.721  0.00  0.00    +0.000 A 
ATOM     10  C   UNL     1      -0.533  11.511  21.664  0.00  0.00    +0.000 A 
ATOM     11  C   UNL     1      -0.858  10.988  22.915  0.00  0.00    +0.000 A 
ATOM     12  C   UNL     1      -0.510   9.682  23.227  0.00  0.00    +0.000 A 
ATOM     13  C   UNL     1       0.188   8.902  22.302  0.00  0.00    +0.000 A 
ATOM     14  C   UNL     1       0.556   9.406  21.032  0.00  0.00    +0.000 A 
ENDBRANCH   3   5
BRANCH   1  15
ATOM     15  C   UNL     1       3.027   5.281  19.830  0.00  0.00    +0.000 C 
BRANCH  15  17
ATOM     16  C   UNL     1       1.361   3.668  20.702  0.00  0.00    +0.000 C 
ATOM     17  N   UNL     1       2.270   4.042  19.628  0.00  0.00    +0.000 N 
ATOM     18  C   UNL     1       2.109   3.370  18.426  0.00  0.00    +0.000 C 
ATOM     19  O   UNL     1       1.277   2.475  18.288  0.00  0.00    +0.000 OA
BRANCH  18  20
ATOM     20  C   UNL     1       3.010   3.730  17.297  0.00  0.00    +0.000 C 
ATOM     21  C   UNL     1       4.337   3.739  17.503  0.00  0.00    +0.000 C 
BRANCH  21  22
ATOM     22  C   UNL     1       5.267   4.102  16.485  0.00  0.00    +0.000 A 
ATOM     23  C   UNL     1       5.153   4.113  15.103  0.00  0.00    +0.000 A 
ATOM     24  C   UNL     1       6.332   4.565  14.442  0.00  0.00    +0.000 A 
ATOM     25  C   UNL     1       7.328   4.885  15.333  0.00  0.00    +0.000 A 
ATOM     26  S   UNL     1       6.841   4.640  16.949  0.00  0.00    +0.000 S 
ENDBRANCH  21  22
ENDBRANCH  18  20
ENDBRANCH  15  17
ENDBRANCH   1  15
TORSDOF 5
ENDMDL
MODEL 6
REMARK VINA RESULT:      -7.0      1.825      2.045
REMARK  Name = 
REMARK  6 active torsions:
REMARK  status: ('A' for Active; 'I' for Inactive)
REMARK    1  A    between atoms: C_1  and  N_2
REMARK    2  A    between atoms: N_2  and  C_3
REMARK    3  A    between atoms: C_3  and  C_4
REMARK    4  A    between atoms: N_6  and  C_7
REMARK    5  A    between atoms: C_17  and  C_19
REMARK    6  A    between atoms: C_20  and  C_21
REMARK                            x       y       z     vdW  Elec       q    Type
REMARK                         _______ _______ _______ _____ _____    ______ ____
ROOT
ATOM      1  C   UNL     1       3.072   5.686  19.759  0.00  0.00    +0.000 C 
ATOM      2  O   UNL     1       4.105   6.243  19.382  0.00  0.00    +0.000 OA
ATOM      3  N   UNL     1       1.831   6.300  19.837  0.00  0.00    +0.000 N 
ATOM      4  H   UNL     1       1.163   5.894  20.476  0.00  0.00    +0.000 HD
ENDROOT
BRANCH   3   5
ATOM      5  C   UNL     1       1.654   7.657  19.444  0.00  0.00    +0.000 A 
ATOM      6  C   UNL     1       2.132   8.063  18.187  0.00  0.00    +0.000 A 
ATOM      7  C   UNL     1       2.063   9.395  17.792  0.00  0.00    +0.000 A 
ATOM      8  C   UNL     1       1.533  10.342  18.658  0.00  0.00    +0.000 A 
ATOM      9  C   UNL     1       1.031   9.965  19.914  0.00  0.00    +0.000 A 
ATOM     10  C   UNL     1       0.537  10.955  20.780  0.00  0.00    +0.000 A 
ATOM     11  C   UNL     1       0.044  10.617  22.039  0.00  0.00    +0.000 A 
ATOM     12  C   UNL     1       0.020   9.288  22.436  0.00  0.00    +0.000 A 
ATOM     13  C   UNL     1       0.515   8.295  21.589  0.00  0.00    +0.000 A 
ATOM     14  C   UNL     1       1.045   8.601  20.313  0.00  0.00    +0.000 A 
ENDBRANCH   3   5
BRANCH   1  15
ATOM     15  C   UNL     1       3.168   4.262  20.332  0.00  0.00    +0.000 C 
BRANCH  15  17
ATOM     16  C   UNL     1       1.052   2.975  20.280  0.00  0.00    +0.000 C 
ATOM     17  N   UNL     1       2.347   3.243  19.671  0.00  0.00    +0.000 N 
ATOM     18  C   UNL     1       2.540   2.741  18.394  0.00  0.00    +0.000 C 
ATOM     19  O   UNL     1       1.684   2.066  17.824  0.00  0.00    +0.000 OA
BRANCH  18  20
ATOM     20  C   UNL     1       3.846   3.003  17.729  0.00  0.00    +0.000 C 
ATOM     21  C   UNL     1       3.926   3.988  16.820  0.00  0.00    +0.000 C 
BRANCH  21  22
ATOM     22  C   UNL     1       5.129   4.284  16.115  0.00  0.00    +0.000 A 
ATOM     23  C   UNL     1       5.404   4.337  14.757  0.00  0.00    +0.000 A 
ATOM     24  C   UNL     1       6.754   4.690  14.466  0.00  0.00    +0.000 A 
ATOM     25  C   UNL     1       7.487   4.894  15.610  0.00  0.00    +0.000 A 
ATOM     26  S   UNL     1       6.553   4.660  17.017  0.00  0.00    +0.000 S 
ENDBRANCH  21  22
ENDBRANCH  18  20
ENDBRANCH  15  17
ENDBRANCH   1  15
TORSDOF 5
ENDMDL
MODEL 7
REMARK VINA RESULT:      -7.0      1.006      2.384
REMARK  Name = 
REMARK  6 active torsions:
REMARK  status: ('A' for Active; 'I' for Inactive)
REMARK    1  A    between atoms: C_1  and  N_2
REMARK    2  A    between atoms: N_2  and  C_3
REMARK    3  A    between atoms: C_3  and  C_4
REMARK    4  A    between atoms: N_6  and  C_7
REMARK    5  A    between atoms: C_17  and  C_19
REMARK    6  A    between atoms: C_20  and  C_21
REMARK                            x       y       z     vdW  Elec       q    Type
REMARK                         _______ _______ _______ _____ _____    ______ ____
ROOT
ATOM      1  C   UNL     1       1.618   4.848  20.673  0.00  0.00    +0.000 C 
ATOM      2  O   UNL     1       0.439   4.729  20.332  0.00  0.00    +0.000 OA
ATOM      3  N   UNL     1       2.243   6.059  20.934  0.00  0.00    +0.000 N 
ATOM      4  H   UNL     1       3.249   6.079  20.844  0.00  0.00    +0.000 HD
ENDROOT
BRANCH   3   5
ATOM      5  C   UNL     1       1.531   7.289  20.852  0.00  0.00    +0.000 A 
ATOM      6  C   UNL     1       0.625   7.613  21.876  0.00  0.00    +0.000 A 
ATOM      7  C   UNL     1      -0.159   8.759  21.800  0.00  0.00    +0.000 A 
ATOM      8  C   UNL     1      -0.063   9.586  20.688  0.00  0.00    +0.000 A 
ATOM      9  C   UNL     1       0.845   9.298  19.657  0.00  0.00    +0.000 A 
ATOM     10  C   UNL     1       0.889  10.134  18.529  0.00  0.00    +0.000 A 
ATOM     11  C   UNL     1       1.769   9.871  17.480  0.00  0.00    +0.000 A 
ATOM     12  C   UNL     1       2.626   8.782  17.558  0.00  0.00    +0.000 A 
ATOM     13  C   UNL     1       2.587   7.938  18.669  0.00  0.00    +0.000 A 
ATOM     14  C   UNL     1       1.692   8.160  19.742  0.00  0.00    +0.000 A 
ENDBRANCH   3   5
BRANCH   1  15
ATOM     15  C   UNL     1       2.518   3.601  20.666  0.00  0.00    +0.000 C 
BRANCH  15  17
ATOM     16  C   UNL     1       1.275   1.966  19.281  0.00  0.00    +0.000 C 
ATOM     17  N   UNL     1       2.471   2.778  19.454  0.00  0.00    +0.000 N 
ATOM     18  C   UNL     1       3.285   2.917  18.340  0.00  0.00    +0.000 C 
ATOM     19  O   UNL     1       3.036   2.348  17.278  0.00  0.00    +0.000 OA
BRANCH  18  20
ATOM     20  C   UNL     1       4.512   3.749  18.470  0.00  0.00    +0.000 C 
ATOM     21  C   UNL     1       4.582   4.912  17.802  0.00  0.00    +0.000 C 
BRANCH  21  22
ATOM     22  C   UNL     1       5.732   5.753  17.846  0.00  0.00    +0.000 A 
ATOM     23  C   UNL     1       6.107   6.832  17.060  0.00  0.00    +0.000 A 
ATOM     24  C   UNL     1       7.348   7.414  17.453  0.00  0.00    +0.000 A 
ATOM     25  C   UNL     1       7.900   6.765  18.531  0.00  0.00    +0.000 A 
ATOM     26  S   UNL     1       6.928   5.465  19.058  0.00  0.00    +0.000 S 
ENDBRANCH  21  22
ENDBRANCH  18  20
ENDBRANCH  15  17
ENDBRANCH   1  15
TORSDOF 5
ENDMDL
MODEL 8
REMARK VINA RESULT:      -6.9      2.155      5.965
REMARK  Name = 
REMARK  6 active torsions:
REMARK  status: ('A' for Active; 'I' for Inactive)
REMARK    1  A    between atoms: C_1  and  N_2
REMARK    2  A    between atoms: N_2  and  C_3
REMARK    3  A    between atoms: C_3  and  C_4
REMARK    4  A    between atoms: N_6  and  C_7
REMARK    5  A    between atoms: C_17  and  C_19
REMARK    6  A    between atoms: C_20  and  C_21
REMARK                            x       y       z     vdW  Elec       q    Type
REMARK                         _______ _______ _______ _____ _____    ______ ____
ROOT
ATOM      1  C   UNL     1       2.676   3.020  17.816  0.00  0.00    +0.000 C 
ATOM      2  O   UNL     1       3.249   1.961  17.552  0.00  0.00    +0.000 OA
ATOM      3  N   UNL     1       3.174   4.279  17.518  0.00  0.00    +0.000 N 
ATOM      4  H   UNL     1       2.832   5.047  18.078  0.00  0.00    +0.000 HD
ENDROOT
BRANCH   3   5
ATOM      5  C   UNL     1       4.412   4.440  16.833  0.00  0.00    +0.000 A 
ATOM      6  C   UNL     1       4.471   4.128  15.465  0.00  0.00    +0.000 A 
ATOM      7  C   UNL     1       5.675   4.183  14.771  0.00  0.00    +0.000 A 
ATOM      8  C   UNL     1       6.840   4.531  15.441  0.00  0.00    +0.000 A 
ATOM      9  C   UNL     1       6.811   4.865  16.805  0.00  0.00    +0.000 A 
ATOM     10  C   UNL     1       8.014   5.174  17.461  0.00  0.00    +0.000 A 
ATOM     11  C   UNL     1       8.023   5.497  18.816  0.00  0.00    +0.000 A 
ATOM     12  C   UNL     1       6.830   5.533  19.524  0.00  0.00    +0.000 A 
ATOM     13  C   UNL     1       5.628   5.220  18.887  0.00  0.00    +0.000 A 
ATOM     14  C   UNL     1       5.582   4.865  17.518  0.00  0.00    +0.000 A 
ENDBRANCH   3   5
BRANCH   1  15
ATOM     15  C   UNL     1       1.398   2.974  18.670  0.00  0.00    +0.000 C 
BRANCH  15  17
ATOM     16  C   UNL     1       1.980   1.691  20.708  0.00  0.00    +0.000 C 
ATOM     17  N   UNL     1       1.593   2.967  20.123  0.00  0.00    +0.000 N 
ATOM     18  C   UNL     1       1.736   4.082  20.934  0.00  0.00    +0.000 C 
ATOM     19  O   UNL     1       2.125   3.994  22.097  0.00  0.00    +0.000 OA
BRANCH  18  20
ATOM     20  C   UNL     1       1.362   5.409  20.372  0.00  0.00    +0.000 C 
ATOM     21  C   UNL     1       2.333   6.224  19.930  0.00  0.00    +0.000 C 
BRANCH  21  22
ATOM     22  C   UNL     1       2.064   7.522  19.406  0.00  0.00    +0.000 A 
ATOM     23  C   UNL     1       2.350   8.088  18.173  0.00  0.00    +0.000 A 
ATOM     24  C   UNL     1       1.889   9.431  18.046  0.00  0.00    +0.000 A 
ATOM     25  C   UNL     1       1.263   9.868  19.189  0.00  0.00    +0.000 A 
ATOM     26  S   UNL     1       1.236   8.666  20.400  0.00  0.00    +0.000 S 
ENDBRANCH  21  22
ENDBRANCH  18  20
ENDBRANCH  15  17
ENDBRANCH   1  15
TORSDOF 5
ENDMDL
MODEL 9
REMARK VINA RESULT:      -6.8      4.049      7.377
REMARK  Name = 
REMARK  6 active torsions:
REMARK  status: ('A' for Active; 'I' for Inactive)
REMARK    1  A    between atoms: C_1  and  N_2
REMARK    2  A    between atoms: N_2  and  C_3
REMARK    3  A    between atoms: C_3  and  C_4
REMARK    4  A    between atoms: N_6  and  C_7
REMARK    5  A    between atoms: C_17  and  C_19
REMARK    6  A    between atoms: C_20  and  C_21
REMARK                            x       y       z     vdW  Elec       q    Type
REMARK                         _______ _______ _______ _____ _____    ______ ____
ROOT
ATOM      1  C   UNL     1       1.809   8.662  18.693  0.00  0.00    +0.000 C 
ATOM      2  O   UNL     1       1.801   8.810  17.469  0.00  0.00    +0.000 OA
ATOM      3  N   UNL     1       2.304   7.543  19.346  0.00  0.00    +0.000 N 
ATOM      4  H   UNL     1       1.945   7.361  20.272  0.00  0.00    +0.000 HD
ENDROOT
BRANCH   3   5
ATOM      5  C   UNL     1       2.886   6.464  18.622  0.00  0.00    +0.000 A 
ATOM      6  C   UNL     1       3.916   6.742  17.708  0.00  0.00    +0.000 A 
ATOM      7  C   UNL     1       4.457   5.737  16.913  0.00  0.00    +0.000 A 
ATOM      8  C   UNL     1       3.960   4.444  17.007  0.00  0.00    +0.000 A 
ATOM      9  C   UNL     1       2.943   4.130  17.923  0.00  0.00    +0.000 A 
ATOM     10  C   UNL     1       2.437   2.820  17.964  0.00  0.00    +0.000 A 
ATOM     11  C   UNL     1       1.419   2.478  18.851  0.00  0.00    +0.000 A 
ATOM     12  C   UNL     1       0.911   3.434  19.719  0.00  0.00    +0.000 A 
ATOM     13  C   UNL     1       1.398   4.742  19.683  0.00  0.00    +0.000 A 
ATOM     14  C   UNL     1       2.415   5.133  18.780  0.00  0.00    +0.000 A 
ENDBRANCH   3   5
BRANCH   1  15
ATOM     15  C   UNL     1       1.089   9.701  19.568  0.00  0.00    +0.000 C 
BRANCH  15  17
ATOM     16  C   UNL     1      -1.159  10.230  18.670  0.00  0.00    +0.000 C 
ATOM     17  N   UNL     1       0.222  10.650  18.862  0.00  0.00    +0.000 N 
ATOM     18  C   UNL     1       0.494  11.989  18.631  0.00  0.00    +0.000 C 
ATOM     19  O   UNL     1      -0.372  12.770  18.241  0.00  0.00    +0.000 OA
BRANCH  18  20
ATOM     20  C   UNL     1       1.892  12.463  18.826  0.00  0.00    +0.000 C 
ATOM     21  C   UNL     1       2.131  13.784  18.849  0.00  0.00    +0.000 C 
BRANCH  21  22
ATOM     22  C   UNL     1       3.443  14.322  19.000  0.00  0.00    +0.000 A 
ATOM     23  C   UNL     1       4.429  14.603  18.066  0.00  0.00    +0.000 A 
ATOM     24  C   UNL     1       5.611  15.154  18.641  0.00  0.00    +0.000 A 
ATOM     25  C   UNL     1       5.508  15.279  20.005  0.00  0.00    +0.000 A 
ATOM     26  S   UNL     1       3.998  14.734  20.583  0.00  0.00    +0.000 S 
ENDBRANCH  21  22
ENDBRANCH  18  20
ENDBRANCH  15  17
ENDBRANCH   1  15
TORSDOF 5
ENDMDL
