MODEL 1
REMARK VINA RESULT:      -7.6      0.000      0.000
REMARK  Name = 
REMARK  7 active torsions:
REMARK  status: ('A' for Active; 'I' for Inactive)
REMARK    1  A    between atoms: C_1  and  C_2
REMARK    2  A    between atoms: C_7  and  C_8
REMARK    3  A    between atoms: C_14  and  N_15
REMARK    4  A    between atoms: C_16  and  C_18
REMARK    5  A    between atoms: C_18  and  N_19
REMARK    6  A    between atoms: N_19  and  C_20
REMARK    7  A    between atoms: N_19  and  C_21
REMARK                            x       y       z     vdW  Elec       q    Type
REMARK                         _______ _______ _______ _____ _____    ______ ____
ROOT
ATOM      1  C   UNL     1       2.409   5.514  19.980  0.00  0.00    +0.000 A 
ATOM      2  N   UNL     1       2.176   4.800  21.091  0.00  0.00    +0.000 NA
ATOM      3  N   UNL     1       2.631   3.576  20.779  0.00  0.00    +0.000 N 
ATOM      4  C   UNL     1       3.177   3.480  19.529  0.00  0.00    +0.000 A 
ATOM      5  C   UNL     1       3.760   2.404  18.858  0.00  0.00    +0.000 A 
ATOM      6  C   UNL     1       4.279   2.648  17.579  0.00  0.00    +0.000 A 
ATOM      7  C   UNL     1       4.223   3.913  16.990  0.00  0.00    +0.000 A 
ATOM      8  C   UNL     1       3.574   4.957  17.668  0.00  0.00    +0.000 A 
ATOM      9  C   UNL     1       3.055   4.746  18.967  0.00  0.00    +0.000 A 
ATOM     10  H   UNL     1       2.556   2.842  21.475  0.00  0.00    +0.000 HD
ENDROOT
BRANCH   1  17
ATOM     11  C   UNL     1      -0.043  12.404  21.499  0.00  0.00    +0.000 C 
ATOM     12  C   UNL     1       0.494  11.229  20.734  0.00  0.00    +0.000 A 
ATOM     13  C   UNL     1       0.827  11.371  19.385  0.00  0.00    +0.000 A 
ATOM     14  C   UNL     1       1.354  10.297  18.658  0.00  0.00    +0.000 A 
ATOM     15  C   UNL     1       1.547   9.063  19.300  0.00  0.00    +0.000 A 
ATOM     16  C   UNL     1       2.062   7.814  18.870  0.00  0.00    +0.000 A 
ATOM     17  C   UNL     1       2.001   6.943  19.930  0.00  0.00    +0.000 A 
ATOM     18  N   UNL     1       1.459   7.624  20.995  0.00  0.00    +0.000 N 
ATOM     19  C   UNL     1       1.191   8.927  20.641  0.00  0.00    +0.000 A 
ATOM     20  C   UNL     1       0.668   9.994  21.386  0.00  0.00    +0.000 A 
ATOM     21  H   UNL     1       1.298   7.205  21.902  0.00  0.00    +0.000 HD
ENDBRANCH   1  17
BRANCH   7  22
ATOM     22  N   UNL     1       4.810   4.209  15.740  0.00  0.00    +0.000 N 
ATOM     23  C   UNL     1       6.166   4.347  15.482  0.00  0.00    +0.000 C 
ATOM     24  O   UNL     1       7.080   4.220  16.293  0.00  0.00    +0.000 OA
ATOM     25  H   UNL     1       4.203   4.543  14.997  0.00  0.00    +0.000 HD
BRANCH  23  26
ATOM     26  C   UNL     1       6.472   4.696  14.021  0.00  0.00    +0.000 C 
BRANCH  26  27
ATOM     27  N   UNL     1       6.250   3.543  13.112  0.00  0.00    +0.000 NA
ATOM     28  C   UNL     1       4.898   3.592  12.533  0.00  0.00    +0.000 C 
ATOM     29  C   UNL     1       7.230   3.606  12.019  0.00  0.00    +0.000 C 
ENDBRANCH  26  27
ENDBRANCH  23  26
ENDBRANCH   7  22
TORSDOF 4
ENDMDL
MODEL 2
REMARK VINA RESULT:      -7.5      4.285      8.641
REMARK  Name = 
REMARK  7 active torsions:
REMARK  status: ('A' for Active; 'I' for Inactive)
REMARK    1  A    between atoms: C_1  and  C_2
REMARK    2  A    between atoms: C_7  and  C_8
REMARK    3  A    between atoms: C_14  and  N_15
REMARK    4  A    between atoms: C_16  and  C_18
REMARK    5  A    between atoms: C_18  and  N_19
REMARK    6  A    between atoms: N_19  and  C_20
REMARK    7  A    between atoms: N_19  and  C_21
REMARK                            x       y       z     vdW  Elec       q    Type
REMARK                         _______ _______ _______ _____ _____    ______ ____
ROOT
ATOM      1  C   UNL     1       0.690   9.362  20.932  0.00  0.00    +0.000 A 
ATOM      2  N   UNL     1       0.865   9.586  22.243  0.00  0.00    +0.000 NA
ATOM      3  N   UNL     1       0.059  10.631  22.494  0.00  0.00    +0.000 N 
ATOM      4  C   UNL     1      -0.651  11.067  21.410  0.00  0.00    +0.000 A 
ATOM      5  C   UNL     1      -1.585  12.095  21.273  0.00  0.00    +0.000 A 
ATOM      6  C   UNL     1      -2.182  12.259  20.016  0.00  0.00    +0.000 A 
ATOM      7  C   UNL     1      -1.863  11.433  18.935  0.00  0.00    +0.000 A 
ATOM      8  C   UNL     1      -0.874  10.449  19.092  0.00  0.00    +0.000 A 
ATOM      9  C   UNL     1      -0.267  10.249  20.354  0.00  0.00    +0.000 A 
ATOM     10  H   UNL     1       0.024  10.995  23.440  0.00  0.00    +0.000 HD
ENDROOT
BRANCH   1  17
ATOM     11  C   UNL     1       4.186   3.008  19.145  0.00  0.00    +0.000 C 
ATOM     12  C   UNL     1       3.668   4.414  19.050  0.00  0.00    +0.000 A 
ATOM     13  C   UNL     1       3.900   5.164  17.894  0.00  0.00    +0.000 A 
ATOM     14  C   UNL     1       3.404   6.467  17.772  0.00  0.00    +0.000 A 
ATOM     15  C   UNL     1       2.666   7.023  18.829  0.00  0.00    +0.000 A 
ATOM     16  C   UNL     1       2.025   8.274  19.015  0.00  0.00    +0.000 A 
ATOM     17  C   UNL     1       1.458   8.278  20.267  0.00  0.00    +0.000 A 
ATOM     18  N   UNL     1       1.738   7.066  20.851  0.00  0.00    +0.000 N 
ATOM     19  C   UNL     1       2.458   6.273  19.986  0.00  0.00    +0.000 A 
ATOM     20  C   UNL     1       2.941   4.964  20.123  0.00  0.00    +0.000 A 
ATOM     21  H   UNL     1       1.438   6.813  21.784  0.00  0.00    +0.000 HD
ENDBRANCH   1  17
BRANCH   7  22
ATOM     22  N   UNL     1      -2.507  11.521  17.681  0.00  0.00    +0.000 N 
ATOM     23  C   UNL     1      -3.771  11.040  17.372  0.00  0.00    +0.000 C 
ATOM     24  O   UNL     1      -4.545  10.473  18.140  0.00  0.00    +0.000 OA
ATOM     25  H   UNL     1      -1.945  11.778  16.875  0.00  0.00    +0.000 HD
BRANCH  23  26
ATOM     26  C   UNL     1      -4.167  11.273  15.909  0.00  0.00    +0.000 C 
BRANCH  26  27
ATOM     27  N   UNL     1      -3.231  10.615  14.964  0.00  0.00    +0.000 NA
ATOM     28  C   UNL     1      -2.555   9.478  15.611  0.00  0.00    +0.000 C 
ATOM     29  C   UNL     1      -3.995  10.112  13.814  0.00  0.00    +0.000 C 
ENDBRANCH  26  27
ENDBRANCH  23  26
ENDBRANCH   7  22
TORSDOF 4
ENDMDL
MODEL 3
REMARK VINA RESULT:      -7.4      4.480     10.117
REMARK  Name = 
REMARK  7 active torsions:
REMARK  status: ('A' for Active; 'I' for Inactive)
REMARK    1  A    between atoms: C_1  and  C_2
REMARK    2  A    between atoms: C_7  and  C_8
REMARK    3  A    between atoms: C_14  and  N_15
REMARK    4  A    between atoms: C_16  and  C_18
REMARK    5  A    between atoms: C_18  and  N_19
REMARK    6  A    between atoms: N_19  and  C_20
REMARK    7  A    between atoms: N_19  and  C_21
REMARK                            x       y       z     vdW  Elec       q    Type
REMARK                         _______ _______ _______ _____ _____    ______ ____
ROOT
ATOM      1  C   UNL     1       1.861  10.256  18.436  0.00  0.00    +0.000 A 
ATOM      2  N   UNL     1       2.743  10.850  17.619  0.00  0.00    +0.000 NA
ATOM      3  N   UNL     1       2.350  12.135  17.612  0.00  0.00    +0.000 N 
ATOM      4  C   UNL     1       1.274  12.398  18.415  0.00  0.00    +0.000 A 
ATOM      5  C   UNL     1       0.595  13.587  18.684  0.00  0.00    +0.000 A 
ATOM      6  C   UNL     1      -0.456  13.532  19.609  0.00  0.00    +0.000 A 
ATOM      7  C   UNL     1      -0.818  12.342  20.244  0.00  0.00    +0.000 A 
ATOM      8  C   UNL     1      -0.154  11.154  19.903  0.00  0.00    +0.000 A 
ATOM      9  C   UNL     1       0.922  11.180  18.985  0.00  0.00    +0.000 A 
ATOM     10  H   UNL     1       2.871  12.795  17.046  0.00  0.00    +0.000 HD
ENDROOT
BRANCH   1  17
ATOM     11  C   UNL     1       1.842   3.371  21.333  0.00  0.00    +0.000 C 
ATOM     12  C   UNL     1       1.998   4.492  20.345  0.00  0.00    +0.000 A 
ATOM     13  C   UNL     1       2.363   4.210  19.026  0.00  0.00    +0.000 A 
ATOM     14  C   UNL     1       2.489   5.234  18.081  0.00  0.00    +0.000 A 
ATOM     15  C   UNL     1       2.244   6.561  18.470  0.00  0.00    +0.000 A 
ATOM     16  C   UNL     1       2.265   7.797  17.776  0.00  0.00    +0.000 A 
ATOM     17  C   UNL     1       1.955   8.792  18.672  0.00  0.00    +0.000 A 
ATOM     18  N   UNL     1       1.748   8.198  19.895  0.00  0.00    +0.000 N 
ATOM     19  C   UNL     1       1.899   6.833  19.794  0.00  0.00    +0.000 A 
ATOM     20  C   UNL     1       1.763   5.818  20.752  0.00  0.00    +0.000 A 
ATOM     21  H   UNL     1       1.511   8.712  20.733  0.00  0.00    +0.000 HD
ENDBRANCH   1  17
BRANCH   7  22
ATOM     22  N   UNL     1      -1.817  12.271  21.240  0.00  0.00    +0.000 N 
ATOM     23  C   UNL     1      -1.616  12.004  22.587  0.00  0.00    +0.000 C 
ATOM     24  O   UNL     1      -0.536  11.801  23.138  0.00  0.00    +0.000 OA
ATOM     25  H   UNL     1      -2.785  12.216  20.940  0.00  0.00    +0.000 HD
BRANCH  23  26
ATOM     26  C   UNL     1      -2.915  11.974  23.399  0.00  0.00    +0.000 C 
BRANCH  26  27
ATOM     27  N   UNL     1      -3.693  13.231  23.257  0.00  0.00    +0.000 NA
ATOM     28  C   UNL     1      -5.085  13.031  23.691  0.00  0.00    +0.000 C 
ATOM     29  C   UNL     1      -3.082  14.263  24.105  0.00  0.00    +0.000 C 
ENDBRANCH  26  27
ENDBRANCH  23  26
ENDBRANCH   7  22
TORSDOF 4
ENDMDL
MODEL 4
REMARK VINA RESULT:      -7.4      4.326      8.360
REMARK  Name = 
REMARK  7 active torsions:
REMARK  status: ('A' for Active; 'I' for Inactive)
REMARK    1  A    between atoms: C_1  and  C_2
REMARK    2  A    between atoms: C_7  and  C_8
REMARK    3  A    between atoms: C_14  and  N_15
REMARK    4  A    between atoms: C_16  and  C_18
REMARK    5  A    between atoms: C_18  and  N_19
REMARK    6  A    between atoms: N_19  and  C_20
REMARK    7  A    between atoms: N_19  and  C_21
REMARK                            x       y       z     vdW  Elec       q    Type
REMARK                         _______ _______ _______ _____ _____    ______ ____
ROOT
ATOM      1  C   UNL     1       0.793   9.487  20.399  0.00  0.00    +0.000 A 
ATOM      2  N   UNL     1       0.887   9.772  21.706  0.00  0.00    +0.000 NA
ATOM      3  N   UNL     1       0.087  10.841  21.854  0.00  0.00    +0.000 N 
ATOM      4  C   UNL     1      -0.543  11.235  20.706  0.00  0.00    +0.000 A 
ATOM      5  C   UNL     1      -1.446  12.270  20.460  0.00  0.00    +0.000 A 
ATOM      6  C   UNL     1      -1.957  12.382  19.160  0.00  0.00    +0.000 A 
ATOM      7  C   UNL     1      -1.586  11.499  18.143  0.00  0.00    +0.000 A 
ATOM      8  C   UNL     1      -0.629  10.509  18.411  0.00  0.00    +0.000 A 
ATOM      9  C   UNL     1      -0.107  10.360  19.718  0.00  0.00    +0.000 A 
ATOM     10  H   UNL     1      -0.001  11.252  22.777  0.00  0.00    +0.000 HD
ENDROOT
BRANCH   1  17
ATOM     11  C   UNL     1       4.439   3.074  19.228  0.00  0.00    +0.000 C 
ATOM     12  C   UNL     1       3.880   4.449  18.995  0.00  0.00    +0.000 A 
ATOM     13  C   UNL     1       4.073   5.078  17.762  0.00  0.00    +0.000 A 
ATOM     14  C   UNL     1       3.539   6.347  17.512  0.00  0.00    +0.000 A 
ATOM     15  C   UNL     1       2.801   6.992  18.519  0.00  0.00    +0.000 A 
ATOM     16  C   UNL     1       2.129   8.238  18.583  0.00  0.00    +0.000 A 
ATOM     17  C   UNL     1       1.581   8.359  19.838  0.00  0.00    +0.000 A 
ATOM     18  N   UNL     1       1.903   7.223  20.541  0.00  0.00    +0.000 N 
ATOM     19  C   UNL     1       2.632   6.363  19.751  0.00  0.00    +0.000 A 
ATOM     20  C   UNL     1       3.154   5.089  20.017  0.00  0.00    +0.000 A 
ATOM     21  H   UNL     1       1.625   7.063  21.501  0.00  0.00    +0.000 HD
ENDBRANCH   1  17
BRANCH   7  22
ATOM     22  N   UNL     1      -2.146  11.536  16.847  0.00  0.00    +0.000 N 
ATOM     23  C   UNL     1      -2.918  10.545  16.258  0.00  0.00    +0.000 C 
ATOM     24  O   UNL     1      -3.257   9.481  16.771  0.00  0.00    +0.000 OA
ATOM     25  H   UNL     1      -1.810  12.246  16.204  0.00  0.00    +0.000 HD
BRANCH  23  26
ATOM     26  C   UNL     1      -3.351  10.885  14.827  0.00  0.00    +0.000 C 
BRANCH  26  27
ATOM     27  N   UNL     1      -3.583   9.668  14.009  0.00  0.00    +0.000 NA
ATOM     28  C   UNL     1      -4.755   9.845  13.136  0.00  0.00    +0.000 C 
ATOM     29  C   UNL     1      -2.403   9.432  13.167  0.00  0.00    +0.000 C 
ENDBRANCH  26  27
ENDBRANCH  23  26
ENDBRANCH   7  22
TORSDOF 4
ENDMDL
MODEL 5
REMARK VINA RESULT:      -7.4      5.150      8.827
REMARK  Name = 
REMARK  7 active torsions:
REMARK  status: ('A' for Active; 'I' for Inactive)
REMARK    1  A    between atoms: C_1  and  C_2
REMARK    2  A    between atoms: C_7  and  C_8
REMARK    3  A    between atoms: C_14  and  N_15
REMARK    4  A    between atoms: C_16  and  C_18
REMARK    5  A    between atoms: C_18  and  N_19
REMARK    6  A    between atoms: N_19  and  C_20
REMARK    7  A    between atoms: N_19  and  C_21
REMARK                            x       y       z     vdW  Elec       q    Type
REMARK                         _______ _______ _______ _____ _____    ______ ____
ROOT
ATOM      1  C   UNL     1       0.800  11.702  19.068  0.00  0.00    +0.000 A 
ATOM      2  N   UNL     1      -0.476  12.030  19.315  0.00  0.00    +0.000 NA
ATOM      3  N   UNL     1      -0.476  13.371  19.237  0.00  0.00    +0.000 N 
ATOM      4  C   UNL     1       0.736  13.917  18.919  0.00  0.00    +0.000 A 
ATOM      5  C   UNL     1       1.130  15.243  18.733  0.00  0.00    +0.000 A 
ATOM      6  C   UNL     1       2.460  15.472  18.357  0.00  0.00    +0.000 A 
ATOM      7  C   UNL     1       3.365  14.425  18.172  0.00  0.00    +0.000 A 
ATOM      8  C   UNL     1       2.951  13.108  18.427  0.00  0.00    +0.000 A 
ATOM      9  C   UNL     1       1.610  12.843  18.792  0.00  0.00    +0.000 A 
ATOM     10  H   UNL     1      -1.349  13.862  19.398  0.00  0.00    +0.000 HD
ENDROOT
BRANCH   1  17
ATOM     11  C   UNL     1       2.154   4.596  20.928  0.00  0.00    +0.000 C 
ATOM     12  C   UNL     1       2.115   5.868  20.132  0.00  0.00    +0.000 A 
ATOM     13  C   UNL     1       2.616   5.888  18.827  0.00  0.00    +0.000 A 
ATOM     14  C   UNL     1       2.565   7.054  18.056  0.00  0.00    +0.000 A 
ATOM     15  C   UNL     1       2.004   8.218  18.607  0.00  0.00    +0.000 A 
ATOM     16  C   UNL     1       1.788   9.526  18.104  0.00  0.00    +0.000 A 
ATOM     17  C   UNL     1       1.207  10.273  19.100  0.00  0.00    +0.000 A 
ATOM     18  N   UNL     1       1.064   9.458  20.198  0.00  0.00    +0.000 N 
ATOM     19  C   UNL     1       1.525   8.192  19.917  0.00  0.00    +0.000 A 
ATOM     20  C   UNL     1       1.562   7.030  20.702  0.00  0.00    +0.000 A 
ATOM     21  H   UNL     1       0.666   9.768  21.075  0.00  0.00    +0.000 HD
ENDBRANCH   1  17
BRANCH   7  22
ATOM     22  N   UNL     1       4.687  14.619  17.713  0.00  0.00    +0.000 N 
ATOM     23  C   UNL     1       5.797  14.891  18.499  0.00  0.00    +0.000 C 
ATOM     24  O   UNL     1       5.818  14.991  19.724  0.00  0.00    +0.000 OA
ATOM     25  H   UNL     1       4.828  14.770  16.719  0.00  0.00    +0.000 HD
BRANCH  23  26
ATOM     26  C   UNL     1       7.085  15.072  17.688  0.00  0.00    +0.000 C 
BRANCH  26  27
ATOM     27  N   UNL     1       8.233  14.350  18.291  0.00  0.00    +0.000 NA
ATOM     28  C   UNL     1       8.417  13.040  17.647  0.00  0.00    +0.000 C 
ATOM     29  C   UNL     1       9.451  15.147  18.090  0.00  0.00    +0.000 C 
ENDBRANCH  26  27
ENDBRANCH  23  26
ENDBRANCH   7  22
TORSDOF 4
ENDMDL
MODEL 6
REMARK VINA RESULT:      -7.3      2.996      8.407
REMARK  Name = 
REMARK  7 active torsions:
REMARK  status: ('A' for Active; 'I' for Inactive)
REMARK    1  A    between atoms: C_1  and  C_2
REMARK    2  A    between atoms: C_7  and  C_8
REMARK    3  A    between atoms: C_14  and  N_15
REMARK    4  A    between atoms: C_16  and  C_18
REMARK    5  A    between atoms: C_18  and  N_19
REMARK    6  A    between atoms: N_19  and  C_20
REMARK    7  A    between atoms: N_19  and  C_21
REMARK                            x       y       z     vdW  Elec       q    Type
REMARK                         _______ _______ _______ _____ _____    ______ ____
ROOT
ATOM      1  C   UNL     1       3.019   5.850  19.364  0.00  0.00    +0.000 A 
ATOM      2  N   UNL     1       2.744   4.865  20.231  0.00  0.00    +0.000 NA
ATOM      3  N   UNL     1       1.895   5.439  21.100  0.00  0.00    +0.000 N 
ATOM      4  C   UNL     1       1.587   6.740  20.811  0.00  0.00    +0.000 A 
ATOM      5  C   UNL     1       0.748   7.652  21.451  0.00  0.00    +0.000 A 
ATOM      6  C   UNL     1       0.605   8.917  20.865  0.00  0.00    +0.000 A 
ATOM      7  C   UNL     1       1.271   9.262  19.687  0.00  0.00    +0.000 A 
ATOM      8  C   UNL     1       2.155   8.341  19.104  0.00  0.00    +0.000 A 
ATOM      9  C   UNL     1       2.306   7.050  19.663  0.00  0.00    +0.000 A 
ATOM     10  H   UNL     1       1.544   4.880  21.870  0.00  0.00    +0.000 HD
ENDROOT
BRANCH   1  17
ATOM     11  C   UNL     1       6.381   3.660  13.065  0.00  0.00    +0.000 C 
ATOM     12  C   UNL     1       6.166   4.296  14.408  0.00  0.00    +0.000 A 
ATOM     13  C   UNL     1       7.198   5.026  15.005  0.00  0.00    +0.000 A 
ATOM     14  C   UNL     1       7.013   5.650  16.243  0.00  0.00    +0.000 A 
ATOM     15  C   UNL     1       5.772   5.537  16.890  0.00  0.00    +0.000 A 
ATOM     16  C   UNL     1       5.262   6.047  18.111  0.00  0.00    +0.000 A 
ATOM     17  C   UNL     1       3.970   5.600  18.251  0.00  0.00    +0.000 A 
ATOM     18  N   UNL     1       3.679   4.828  17.151  0.00  0.00    +0.000 N 
ATOM     19  C   UNL     1       4.756   4.790  16.295  0.00  0.00    +0.000 A 
ATOM     20  C   UNL     1       4.922   4.163  15.051  0.00  0.00    +0.000 A 
ATOM     21  H   UNL     1       2.787   4.370  17.011  0.00  0.00    +0.000 HD
ENDBRANCH   1  17
BRANCH   7  22
ATOM     22  N   UNL     1       1.083  10.498  19.028  0.00  0.00    +0.000 N 
ATOM     23  C   UNL     1       1.204  11.757  19.596  0.00  0.00    +0.000 C 
ATOM     24  O   UNL     1       1.509  12.008  20.760  0.00  0.00    +0.000 OA
ATOM     25  H   UNL     1       0.635  10.487  18.117  0.00  0.00    +0.000 HD
BRANCH  23  26
ATOM     26  C   UNL     1       0.910  12.896  18.613  0.00  0.00    +0.000 C 
BRANCH  26  27
ATOM     27  N   UNL     1       1.499  14.184  19.056  0.00  0.00    +0.000 NA
ATOM     28  C   UNL     1       2.674  14.526  18.239  0.00  0.00    +0.000 C 
ATOM     29  C   UNL     1       0.494  15.244  18.897  0.00  0.00    +0.000 C 
ENDBRANCH  26  27
ENDBRANCH  23  26
ENDBRANCH   7  22
TORSDOF 4
ENDMDL
MODEL 7
REMARK VINA RESULT:      -7.3      4.254      8.277
REMARK  Name = 
REMARK  7 active torsions:
REMARK  status: ('A' for Active; 'I' for Inactive)
REMARK    1  A    between atoms: C_1  and  C_2
REMARK    2  A    between atoms: C_7  and  C_8
REMARK    3  A    between atoms: C_14  and  N_15
REMARK    4  A    between atoms: C_16  and  C_18
REMARK    5  A    between atoms: C_18  and  N_19
REMARK    6  A    between atoms: N_19  and  C_20
REMARK    7  A    between atoms: N_19  and  C_21
REMARK                            x       y       z     vdW  Elec       q    Type
REMARK                         _______ _______ _______ _____ _____    ______ ____
ROOT
ATOM      1  C   UNL     1       1.419   8.666  20.034  0.00  0.00    +0.000 A 
ATOM      2  N   UNL     1       1.563   8.744  21.365  0.00  0.00    +0.000 NA
ATOM      3  N   UNL     1       0.731   9.738  21.714  0.00  0.00    +0.000 N 
ATOM      4  C   UNL     1       0.034  10.281  20.670  0.00  0.00    +0.000 A 
ATOM      5  C   UNL     1      -0.919  11.299  20.629  0.00  0.00    +0.000 A 
ATOM      6  C   UNL     1      -1.494  11.593  19.385  0.00  0.00    +0.000 A 
ATOM      7  C   UNL     1      -1.138  10.900  18.226  0.00  0.00    +0.000 A 
ATOM      8  C   UNL     1      -0.132   9.923  18.294  0.00  0.00    +0.000 A 
ATOM      9  C   UNL     1       0.456   9.594  19.538  0.00  0.00    +0.000 A 
ATOM     10  H   UNL     1       0.670   9.994  22.693  0.00  0.00    +0.000 HD
ENDROOT
BRANCH   1  17
ATOM     11  C   UNL     1       5.977   5.192  15.244  0.00  0.00    +0.000 C 
ATOM     12  C   UNL     1       4.994   5.410  16.358  0.00  0.00    +0.000 A 
ATOM     13  C   UNL     1       4.555   4.325  17.122  0.00  0.00    +0.000 A 
ATOM     14  C   UNL     1       3.660   4.508  18.181  0.00  0.00    +0.000 A 
ATOM     15  C   UNL     1       3.200   5.802  18.475  0.00  0.00    +0.000 A 
ATOM     16  C   UNL     1       2.327   6.321  19.465  0.00  0.00    +0.000 A 
ATOM     17  C   UNL     1       2.223   7.677  19.268  0.00  0.00    +0.000 A 
ATOM     18  N   UNL     1       3.005   8.000  18.184  0.00  0.00    +0.000 N 
ATOM     19  C   UNL     1       3.628   6.874  17.694  0.00  0.00    +0.000 A 
ATOM     20  C   UNL     1       4.530   6.710  16.632  0.00  0.00    +0.000 A 
ATOM     21  H   UNL     1       3.099   8.940  17.823  0.00  0.00    +0.000 HD
ENDBRANCH   1  17
BRANCH   7  22
ATOM     22  N   UNL     1      -1.759  11.116  16.976  0.00  0.00    +0.000 N 
ATOM     23  C   UNL     1      -2.832  10.405  16.458  0.00  0.00    +0.000 C 
ATOM     24  O   UNL     1      -3.429   9.482  17.007  0.00  0.00    +0.000 OA
ATOM     25  H   UNL     1      -1.277  11.703  16.301  0.00  0.00    +0.000 HD
BRANCH  23  26
ATOM     26  C   UNL     1      -3.252  10.874  15.061  0.00  0.00    +0.000 C 
BRANCH  26  27
ATOM     27  N   UNL     1      -3.573   9.737  14.162  0.00  0.00    +0.000 NA
ATOM     28  C   UNL     1      -4.659  10.098  13.237  0.00  0.00    +0.000 C 
ATOM     29  C   UNL     1      -2.378   9.405  13.375  0.00  0.00    +0.000 C 
ENDBRANCH  26  27
ENDBRANCH  23  26
ENDBRANCH   7  22
TORSDOF 4
ENDMDL
MODEL 8
REMARK VINA RESULT:      -7.3      0.618      1.323
REMARK  Name = 
REMARK  7 active torsions:
REMARK  status: ('A' for Active; 'I' for Inactive)
REMARK    1  A    between atoms: C_1  and  C_2
REMARK    2  A    between atoms: C_7  and  C_8
REMARK    3  A    between atoms: C_14  and  N_15
REMARK    4  A    between atoms: C_16  and  C_18
REMARK    5  A    between atoms: C_18  and  N_19
REMARK    6  A    between atoms: N_19  and  C_20
REMARK    7  A    between atoms: N_19  and  C_21
REMARK                            x       y       z     vdW  Elec       q    Type
REMARK                         _______ _______ _______ _____ _____    ______ ____
ROOT
ATOM      1  C   UNL     1       2.267   5.575  20.093  0.00  0.00    +0.000 A 
ATOM      2  N   UNL     1       2.025   4.825  21.177  0.00  0.00    +0.000 NA
ATOM      3  N   UNL     1       2.474   3.609  20.826  0.00  0.00    +0.000 N 
ATOM      4  C   UNL     1       3.024   3.552  19.575  0.00  0.00    +0.000 A 
ATOM      5  C   UNL     1       3.603   2.496  18.870  0.00  0.00    +0.000 A 
ATOM      6  C   UNL     1       4.130   2.780  17.603  0.00  0.00    +0.000 A 
ATOM      7  C   UNL     1       4.084   4.064  17.057  0.00  0.00    +0.000 A 
ATOM      8  C   UNL     1       3.439   5.089  17.767  0.00  0.00    +0.000 A 
ATOM      9  C   UNL     1       2.913   4.837  19.056  0.00  0.00    +0.000 A 
ATOM     10  H   UNL     1       2.391   2.853  21.496  0.00  0.00    +0.000 HD
ENDROOT
BRANCH   1  17
ATOM     11  C   UNL     1       0.897  12.708  18.351  0.00  0.00    +0.000 C 
ATOM     12  C   UNL     1       0.990  11.437  19.145  0.00  0.00    +0.000 A 
ATOM     13  C   UNL     1       0.525  11.404  20.463  0.00  0.00    +0.000 A 
ATOM     14  C   UNL     1       0.576  10.225  21.214  0.00  0.00    +0.000 A 
ATOM     15  C   UNL     1       1.105   9.062  20.630  0.00  0.00    +0.000 A 
ATOM     16  C   UNL     1       1.280   7.734  21.096  0.00  0.00    +0.000 A 
ATOM     17  C   UNL     1       1.869   7.007  20.089  0.00  0.00    +0.000 A 
ATOM     18  N   UNL     1       2.061   7.854  19.024  0.00  0.00    +0.000 N 
ATOM     19  C   UNL     1       1.584   9.111  19.321  0.00  0.00    +0.000 A 
ATOM     20  C   UNL     1       1.534  10.282  18.552  0.00  0.00    +0.000 A 
ATOM     21  H   UNL     1       2.487   7.567  18.152  0.00  0.00    +0.000 HD
ENDBRANCH   1  17
BRANCH   7  22
ATOM     22  N   UNL     1       4.678   4.398  15.820  0.00  0.00    +0.000 N 
ATOM     23  C   UNL     1       6.038   4.472  15.556  0.00  0.00    +0.000 C 
ATOM     24  O   UNL     1       6.950   4.243  16.348  0.00  0.00    +0.000 OA
ATOM     25  H   UNL     1       4.087   4.810  15.104  0.00  0.00    +0.000 HD
BRANCH  23  26
ATOM     26  C   UNL     1       6.354   4.888  14.114  0.00  0.00    +0.000 C 
BRANCH  26  27
ATOM     27  N   UNL     1       6.326   3.734  13.180  0.00  0.00    +0.000 NA
ATOM     28  C   UNL     1       4.981   3.563  12.608  0.00  0.00    +0.000 C 
ATOM     29  C   UNL     1       7.272   3.988  12.086  0.00  0.00    +0.000 C 
ENDBRANCH  26  27
ENDBRANCH  23  26
ENDBRANCH   7  22
TORSDOF 4
ENDMDL
MODEL 9
REMARK VINA RESULT:      -7.3      4.073      9.019
REMARK  Name = 
REMARK  7 active torsions:
REMARK  status: ('A' for Active; 'I' for Inactive)
REMARK    1  A    between atoms: C_1  and  C_2
REMARK    2  A    between atoms: C_7  and  C_8
REMARK    3  A    between atoms: C_14  and  N_15
REMARK    4  A    between atoms: C_16  and  C_18
REMARK    5  A    between atoms: C_18  and  N_19
REMARK    6  A    between atoms: N_19  and  C_20
REMARK    7  A    between atoms: N_19  and  C_21
REMARK                            x       y       z     vdW  Elec       q    Type
REMARK                         _______ _______ _______ _____ _____    ______ ____
ROOT
ATOM      1  C   UNL     1       0.358   9.001  21.473  0.00  0.00    +0.000 A 
ATOM      2  N   UNL     1      -0.412   8.313  22.329  0.00  0.00    +0.000 NA
ATOM      3  N   UNL     1      -1.047   9.272  23.022  0.00  0.00    +0.000 N 
ATOM      4  C   UNL     1      -0.745  10.546  22.627  0.00  0.00    +0.000 A 
ATOM      5  C   UNL     1      -1.202  11.784  23.081  0.00  0.00    +0.000 A 
ATOM      6  C   UNL     1      -0.728  12.926  22.422  0.00  0.00    +0.000 A 
ATOM      7  C   UNL     1       0.166  12.842  21.352  0.00  0.00    +0.000 A 
ATOM      8  C   UNL     1       0.652  11.584  20.962  0.00  0.00    +0.000 A 
ATOM      9  C   UNL     1       0.179  10.412  21.597  0.00  0.00    +0.000 A 
ATOM     10  H   UNL     1      -1.695   8.990  23.750  0.00  0.00    +0.000 HD
ENDROOT
BRANCH   1  17
ATOM     11  C   UNL     1       4.832   4.048  18.121  0.00  0.00    +0.000 C 
ATOM     12  C   UNL     1       4.042   5.300  18.372  0.00  0.00    +0.000 A 
ATOM     13  C   UNL     1       4.007   6.306  17.402  0.00  0.00    +0.000 A 
ATOM     14  C   UNL     1       3.257   7.470  17.602  0.00  0.00    +0.000 A 
ATOM     15  C   UNL     1       2.533   7.624  18.795  0.00  0.00    +0.000 A 
ATOM     16  C   UNL     1       1.682   8.644  19.291  0.00  0.00    +0.000 A 
ATOM     17  C   UNL     1       1.253   8.267  20.541  0.00  0.00    +0.000 A 
ATOM     18  N   UNL     1       1.821   7.048  20.823  0.00  0.00    +0.000 N 
ATOM     19  C   UNL     1       2.591   6.623  19.764  0.00  0.00    +0.000 A 
ATOM     20  C   UNL     1       3.333   5.447  19.578  0.00  0.00    +0.000 A 
ATOM     21  H   UNL     1       1.670   6.549  21.691  0.00  0.00    +0.000 HD
ENDBRANCH   1  17
BRANCH   7  22
ATOM     22  N   UNL     1       0.597  13.968  20.616  0.00  0.00    +0.000 N 
ATOM     23  C   UNL     1       0.242  14.281  19.312  0.00  0.00    +0.000 C 
ATOM     24  O   UNL     1      -0.518  13.642  18.588  0.00  0.00    +0.000 OA
ATOM     25  H   UNL     1       1.381  14.501  20.979  0.00  0.00    +0.000 HD
BRANCH  23  26
ATOM     26  C   UNL     1       0.905  15.563  18.795  0.00  0.00    +0.000 C 
BRANCH  26  27
ATOM     27  N   UNL     1       2.386  15.496  18.870  0.00  0.00    +0.000 NA
ATOM     28  C   UNL     1       2.897  14.382  18.056  0.00  0.00    +0.000 C 
ATOM     29  C   UNL     1       2.943  16.752  18.348  0.00  0.00    +0.000 C 
ENDBRANCH  26  27
ENDBRANCH  23  26
ENDBRANCH   7  22
TORSDOF 4
ENDMDL
