MODEL 1
REMARK VINA RESULT:      -7.3      0.000      0.000
REMARK  Name = 
REMARK  5 active torsions:
REMARK  status: ('A' for Active; 'I' for Inactive)
REMARK    1  A    between atoms: C_7  and  N_8
REMARK    2  A    between atoms: N_8  and  C_9
REMARK    3  A    between atoms: C_9  and  C_10
REMARK    4  A    between atoms: C_10  and  C_11
REMARK    5  A    between atoms: C_11  and  O_12
REMARK                            x       y       z     vdW  Elec       q    Type
REMARK                         _______ _______ _______ _____ _____    ______ ____
ROOT
ATOM      1  N   UNL     1       4.646   3.211  17.147  0.00  0.00    +0.000 N 
ATOM      2  H   UNL     1       4.618   2.370  16.581  0.00  0.00    +0.000 HD
ENDROOT
BRANCH   1   9
ATOM      3  N   UNL     1       7.295   5.156  13.789  0.00  0.00    +0.000 N 
ATOM      4  C   UNL     1       6.917   5.101  15.113  0.00  0.00    +0.000 A 
ATOM      5  N   UNL     1       7.518   5.930  15.957  0.00  0.00    +0.000 NA
ATOM      6  C   UNL     1       7.110   5.835  17.226  0.00  0.00    +0.000 A 
ATOM      7 CL   UNL     1       7.860   6.947  18.299  0.00  0.00    +0.000 Cl
ATOM      8  C   UNL     1       6.177   4.943  17.689  0.00  0.00    +0.000 A 
ATOM      9  C   UNL     1       5.648   4.095  16.746  0.00  0.00    +0.000 A 
ATOM     10  N   UNL     1       5.998   4.191  15.455  0.00  0.00    +0.000 NA
ATOM     11  H   UNL     1       8.215   5.561  13.700  0.00  0.00    +0.000 HD
ATOM     12  H   UNL     1       7.129   4.269  13.332  0.00  0.00    +0.000 HD
ENDBRANCH   1   9
BRANCH   1  13
ATOM     13  C   UNL     1       3.308   3.739  17.436  0.00  0.00    +0.000 C 
BRANCH  13  14
ATOM     14  C   UNL     1       2.904   3.351  18.872  0.00  0.00    +0.000 C 
ATOM     15  C   UNL     1       3.143   4.518  19.850  0.00  0.00    +0.000 C 
ATOM     16  C   UNL     1       2.199   4.249  21.021  0.00  0.00    +0.000 C 
ATOM     17  C   UNL     1       1.041   3.430  20.454  0.00  0.00    +0.000 C 
ATOM     18  C   UNL     1       1.381   3.162  18.991  0.00  0.00    +0.000 C 
BRANCH  14  19
ATOM     19  C   UNL     1       3.668   2.086  19.326  0.00  0.00    +0.000 C 
BRANCH  19  20
ATOM     20  O   UNL     1       4.961   2.410  19.829  0.00  0.00    +0.000 OA
ATOM     21  H   UNL     1       5.211   3.270  19.436  0.00  0.00    +0.000 HD
ENDBRANCH  19  20
ENDBRANCH  14  19
ENDBRANCH  13  14
ENDBRANCH   1  13
TORSDOF 5
ENDMDL
MODEL 2
REMARK VINA RESULT:      -7.3      1.105      1.221
REMARK  Name = 
REMARK  5 active torsions:
REMARK  status: ('A' for Active; 'I' for Inactive)
REMARK    1  A    between atoms: C_7  and  N_8
REMARK    2  A    between atoms: N_8  and  C_9
REMARK    3  A    between atoms: C_9  and  C_10
REMARK    4  A    between atoms: C_10  and  C_11
REMARK    5  A    between atoms: C_11  and  O_12
REMARK                            x       y       z     vdW  Elec       q    Type
REMARK                         _______ _______ _______ _____ _____    ______ ____
ROOT
ATOM      1  N   UNL     1       4.821   3.425  17.847  0.00  0.00    +0.000 N 
ATOM      2  H   UNL     1       3.978   3.341  17.289  0.00  0.00    +0.000 HD
ENDROOT
BRANCH   1   9
ATOM      3  N   UNL     1       7.111   5.095  14.099  0.00  0.00    +0.000 N 
ATOM      4  C   UNL     1       6.850   5.160  15.451  0.00  0.00    +0.000 A 
ATOM      5  N   UNL     1       7.494   6.081  16.157  0.00  0.00    +0.000 NA
ATOM      6  C   UNL     1       7.199   6.101  17.459  0.00  0.00    +0.000 A 
ATOM      7 CL   UNL     1       8.002   7.329  18.352  0.00  0.00    +0.000 Cl
ATOM      8  C   UNL     1       6.338   5.237  18.086  0.00  0.00    +0.000 A 
ATOM      9  C   UNL     1       5.758   4.289  17.277  0.00  0.00    +0.000 A 
ATOM     10  N   UNL     1       5.993   4.267  15.957  0.00  0.00    +0.000 NA
ATOM     11  H   UNL     1       8.008   5.511  13.892  0.00  0.00    +0.000 HD
ATOM     12  H   UNL     1       6.936   4.164  13.746  0.00  0.00    +0.000 HD
ENDBRANCH   1   9
BRANCH   1  13
ATOM     13  C   UNL     1       4.539   3.530  19.282  0.00  0.00    +0.000 C 
BRANCH  13  14
ATOM     14  C   UNL     1       3.059   3.188  19.540  0.00  0.00    +0.000 C 
ATOM     15  C   UNL     1       2.840   2.729  20.994  0.00  0.00    +0.000 C 
ATOM     16  C   UNL     1       1.363   2.999  21.275  0.00  0.00    +0.000 C 
ATOM     17  C   UNL     1       0.957   4.143  20.348  0.00  0.00    +0.000 C 
ATOM     18  C   UNL     1       2.177   4.450  19.485  0.00  0.00    +0.000 C 
BRANCH  14  19
ATOM     19  C   UNL     1       2.570   2.113  18.541  0.00  0.00    +0.000 C 
BRANCH  19  20
ATOM     20  O   UNL     1       3.450   0.993  18.510  0.00  0.00    +0.000 OA
ATOM     21  H   UNL     1       2.960   0.236  18.888  0.00  0.00    +0.000 HD
ENDBRANCH  19  20
ENDBRANCH  14  19
ENDBRANCH  13  14
ENDBRANCH   1  13
TORSDOF 5
ENDMDL
MODEL 3
REMARK VINA RESULT:      -7.2      1.781      2.179
REMARK  Name = 
REMARK  5 active torsions:
REMARK  status: ('A' for Active; 'I' for Inactive)
REMARK    1  A    between atoms: C_7  and  N_8
REMARK    2  A    between atoms: N_8  and  C_9
REMARK    3  A    between atoms: C_9  and  C_10
REMARK    4  A    between atoms: C_10  and  C_11
REMARK    5  A    between atoms: C_11  and  O_12
REMARK                            x       y       z     vdW  Elec       q    Type
REMARK                         _______ _______ _______ _____ _____    ______ ____
ROOT
ATOM      1  N   UNL     1       3.741   5.035  17.476  0.00  0.00    +0.000 N 
ATOM      2  H   UNL     1       3.686   5.565  18.339  0.00  0.00    +0.000 HD
ENDROOT
BRANCH   1   9
ATOM      3  N   UNL     1       8.344   4.477  18.235  0.00  0.00    +0.000 N 
ATOM      4  C   UNL     1       7.298   4.588  17.345  0.00  0.00    +0.000 A 
ATOM      5  N   UNL     1       7.586   4.547  16.050  0.00  0.00    +0.000 NA
ATOM      6  C   UNL     1       6.533   4.656  15.235  0.00  0.00    +0.000 A 
ATOM      7 CL   UNL     1       6.915   4.551  13.563  0.00  0.00    +0.000 Cl
ATOM      8  C   UNL     1       5.237   4.839  15.642  0.00  0.00    +0.000 A 
ATOM      9  C   UNL     1       5.048   4.916  17.001  0.00  0.00    +0.000 A 
ATOM     10  N   UNL     1       6.073   4.765  17.852  0.00  0.00    +0.000 NA
ATOM     11  H   UNL     1       9.214   4.734  17.792  0.00  0.00    +0.000 HD
ATOM     12  H   UNL     1       8.117   4.925  19.112  0.00  0.00    +0.000 HD
ENDBRANCH   1   9
BRANCH   1  13
ATOM     13  C   UNL     1       2.880   3.848  17.488  0.00  0.00    +0.000 C 
BRANCH  13  14
ATOM     14  C   UNL     1       2.703   3.358  18.939  0.00  0.00    +0.000 C 
ATOM     15  C   UNL     1       2.901   4.512  19.941  0.00  0.00    +0.000 C 
ATOM     16  C   UNL     1       2.146   4.077  21.196  0.00  0.00    +0.000 C 
ATOM     17  C   UNL     1       1.046   3.128  20.723  0.00  0.00    +0.000 C 
ATOM     18  C   UNL     1       1.243   2.960  19.220  0.00  0.00    +0.000 C 
BRANCH  14  19
ATOM     19  C   UNL     1       3.675   2.194  19.240  0.00  0.00    +0.000 C 
BRANCH  19  20
ATOM     20  O   UNL     1       4.986   2.670  19.527  0.00  0.00    +0.000 OA
ATOM     21  H   UNL     1       5.052   3.568  19.145  0.00  0.00    +0.000 HD
ENDBRANCH  19  20
ENDBRANCH  14  19
ENDBRANCH  13  14
ENDBRANCH   1  13
TORSDOF 5
ENDMDL
MODEL 4
REMARK VINA RESULT:      -7.2      1.381      1.805
REMARK  Name = 
REMARK  5 active torsions:
REMARK  status: ('A' for Active; 'I' for Inactive)
REMARK    1  A    between atoms: C_7  and  N_8
REMARK    2  A    between atoms: N_8  and  C_9
REMARK    3  A    between atoms: C_9  and  C_10
REMARK    4  A    between atoms: C_10  and  C_11
REMARK    5  A    between atoms: C_11  and  O_12
REMARK                            x       y       z     vdW  Elec       q    Type
REMARK                         _______ _______ _______ _____ _____    ______ ____
ROOT
ATOM      1  N   UNL     1       5.379   3.774  18.867  0.00  0.00    +0.000 N 
ATOM      2  H   UNL     1       5.969   3.171  19.431  0.00  0.00    +0.000 HD
ENDROOT
BRANCH   1   9
ATOM      3  N   UNL     1       6.933   4.733  14.539  0.00  0.00    +0.000 N 
ATOM      4  C   UNL     1       6.837   5.090  15.866  0.00  0.00    +0.000 A 
ATOM      5  N   UNL     1       7.433   6.214  16.245  0.00  0.00    +0.000 NA
ATOM      6  C   UNL     1       7.304   6.511  17.540  0.00  0.00    +0.000 A 
ATOM      7 CL   UNL     1       8.038   7.993  18.007  0.00  0.00    +0.000 Cl
ATOM      8  C   UNL     1       6.653   5.737  18.466  0.00  0.00    +0.000 A 
ATOM      9  C   UNL     1       6.110   4.570  17.985  0.00  0.00    +0.000 A 
ATOM     10  N   UNL     1       6.179   4.260  16.682  0.00  0.00    +0.000 NA
ATOM     11  H   UNL     1       7.732   5.178  14.110  0.00  0.00    +0.000 HD
ATOM     12  H   UNL     1       6.843   3.732  14.430  0.00  0.00    +0.000 HD
ENDBRANCH   1   9
BRANCH   1  13
ATOM     13  C   UNL     1       4.180   3.086  18.375  0.00  0.00    +0.000 C 
BRANCH  13  14
ATOM     14  C   UNL     1       2.951   3.567  19.173  0.00  0.00    +0.000 C 
ATOM     15  C   UNL     1       1.665   2.880  18.676  0.00  0.00    +0.000 C 
ATOM     16  C   UNL     1       0.696   2.957  19.855  0.00  0.00    +0.000 C 
ATOM     17  C   UNL     1       1.562   3.026  21.111  0.00  0.00    +0.000 C 
ATOM     18  C   UNL     1       3.009   3.080  20.633  0.00  0.00    +0.000 C 
BRANCH  14  19
ATOM     19  C   UNL     1       2.822   5.105  19.093  0.00  0.00    +0.000 C 
BRANCH  19  20
ATOM     20  O   UNL     1       3.508   5.742  20.167  0.00  0.00    +0.000 OA
ATOM     21  H   UNL     1       3.397   6.706  20.043  0.00  0.00    +0.000 HD
ENDBRANCH  19  20
ENDBRANCH  14  19
ENDBRANCH  13  14
ENDBRANCH   1  13
TORSDOF 5
ENDMDL
MODEL 5
REMARK VINA RESULT:      -7.2      1.940      2.372
REMARK  Name = 
REMARK  5 active torsions:
REMARK  status: ('A' for Active; 'I' for Inactive)
REMARK    1  A    between atoms: C_7  and  N_8
REMARK    2  A    between atoms: N_8  and  C_9
REMARK    3  A    between atoms: C_9  and  C_10
REMARK    4  A    between atoms: C_10  and  C_11
REMARK    5  A    between atoms: C_11  and  O_12
REMARK                            x       y       z     vdW  Elec       q    Type
REMARK                         _______ _______ _______ _____ _____    ______ ____
ROOT
ATOM      1  N   UNL     1       4.962   3.383  17.891  0.00  0.00    +0.000 N 
ATOM      2  H   UNL     1       4.293   2.768  17.441  0.00  0.00    +0.000 HD
ENDROOT
BRANCH   1   9
ATOM      3  N   UNL     1       7.685   7.086  16.918  0.00  0.00    +0.000 N 
ATOM      4  C   UNL     1       7.043   5.945  16.487  0.00  0.00    +0.000 A 
ATOM      5  N   UNL     1       7.150   5.628  15.203  0.00  0.00    +0.000 NA
ATOM      6  C   UNL     1       6.510   4.512  14.843  0.00  0.00    +0.000 A 
ATOM      7 CL   UNL     1       6.697   4.087  13.189  0.00  0.00    +0.000 Cl
ATOM      8  C   UNL     1       5.752   3.733  15.679  0.00  0.00    +0.000 A 
ATOM      9  C   UNL     1       5.665   4.171  16.979  0.00  0.00    +0.000 A 
ATOM     10  N   UNL     1       6.330   5.261  17.388  0.00  0.00    +0.000 NA
ATOM     11  H   UNL     1       7.851   7.712  16.144  0.00  0.00    +0.000 HD
ATOM     12  H   UNL     1       7.229   7.466  17.736  0.00  0.00    +0.000 HD
ENDBRANCH   1   9
BRANCH   1  13
ATOM     13  C   UNL     1       4.425   4.009  19.104  0.00  0.00    +0.000 C 
BRANCH  13  14
ATOM     14  C   UNL     1       2.998   3.485  19.362  0.00  0.00    +0.000 C 
ATOM     15  C   UNL     1       2.903   2.786  20.731  0.00  0.00    +0.000 C 
ATOM     16  C   UNL     1       1.425   2.861  21.110  0.00  0.00    +0.000 C 
ATOM     17  C   UNL     1       0.865   4.088  20.394  0.00  0.00    +0.000 C 
ATOM     18  C   UNL     1       2.003   4.645  19.544  0.00  0.00    +0.000 C 
BRANCH  14  19
ATOM     19  C   UNL     1       2.557   2.533  18.225  0.00  0.00    +0.000 C 
BRANCH  19  20
ATOM     20  O   UNL     1       3.089   1.224  18.406  0.00  0.00    +0.000 OA
ATOM     21  H   UNL     1       3.899   1.319  18.946  0.00  0.00    +0.000 HD
ENDBRANCH  19  20
ENDBRANCH  14  19
ENDBRANCH  13  14
ENDBRANCH   1  13
TORSDOF 5
ENDMDL
MODEL 6
REMARK VINA RESULT:      -7.1      1.887      2.378
REMARK  Name = 
REMARK  5 active torsions:
REMARK  status: ('A' for Active; 'I' for Inactive)
REMARK    1  A    between atoms: C_7  and  N_8
REMARK    2  A    between atoms: N_8  and  C_9
REMARK    3  A    between atoms: C_9  and  C_10
REMARK    4  A    between atoms: C_10  and  C_11
REMARK    5  A    between atoms: C_11  and  O_12
REMARK                            x       y       z     vdW  Elec       q    Type
REMARK                         _______ _______ _______ _____ _____    ______ ____
ROOT
ATOM      1  N   UNL     1       3.806   5.146  17.252  0.00  0.00    +0.000 N 
ATOM      2  H   UNL     1       3.277   5.798  16.682  0.00  0.00    +0.000 HD
ENDROOT
BRANCH   1   9
ATOM      3  N   UNL     1       8.347   4.417  18.213  0.00  0.00    +0.000 N 
ATOM      4  C   UNL     1       7.354   4.618  17.279  0.00  0.00    +0.000 A 
ATOM      5  N   UNL     1       7.712   4.661  16.001  0.00  0.00    +0.000 NA
ATOM      6  C   UNL     1       6.708   4.854  15.141  0.00  0.00    +0.000 A 
ATOM      7 CL   UNL     1       7.178   4.858  13.489  0.00  0.00    +0.000 Cl
ATOM      8  C   UNL     1       5.395   5.042  15.491  0.00  0.00    +0.000 A 
ATOM      9  C   UNL     1       5.134   5.027  16.840  0.00  0.00    +0.000 A 
ATOM     10  N   UNL     1       6.107   4.790  17.731  0.00  0.00    +0.000 NA
ATOM     11  H   UNL     1       9.246   4.682  17.836  0.00  0.00    +0.000 HD
ATOM     12  H   UNL     1       8.082   4.807  19.106  0.00  0.00    +0.000 HD
ENDBRANCH   1   9
BRANCH   1  13
ATOM     13  C   UNL     1       3.517   5.288  18.683  0.00  0.00    +0.000 C 
BRANCH  13  14
ATOM     14  C   UNL     1       2.794   4.023  19.187  0.00  0.00    +0.000 C 
ATOM     15  C   UNL     1       1.690   4.382  20.200  0.00  0.00    +0.000 C 
ATOM     16  C   UNL     1       0.714   3.208  20.152  0.00  0.00    +0.000 C 
ATOM     17  C   UNL     1       0.855   2.595  18.760  0.00  0.00    +0.000 C 
ATOM     18  C   UNL     1       1.972   3.366  18.063  0.00  0.00    +0.000 C 
BRANCH  14  19
ATOM     19  C   UNL     1       3.806   3.030  19.803  0.00  0.00    +0.000 C 
BRANCH  19  20
ATOM     20  O   UNL     1       4.549   2.351  18.795  0.00  0.00    +0.000 OA
ATOM     21  H   UNL     1       4.114   1.487  18.655  0.00  0.00    +0.000 HD
ENDBRANCH  19  20
ENDBRANCH  14  19
ENDBRANCH  13  14
ENDBRANCH   1  13
TORSDOF 5
ENDMDL
MODEL 7
REMARK VINA RESULT:      -7.1      1.919      2.552
REMARK  Name = 
REMARK  5 active torsions:
REMARK  status: ('A' for Active; 'I' for Inactive)
REMARK    1  A    between atoms: C_7  and  N_8
REMARK    2  A    between atoms: N_8  and  C_9
REMARK    3  A    between atoms: C_9  and  C_10
REMARK    4  A    between atoms: C_10  and  C_11
REMARK    5  A    between atoms: C_11  and  O_12
REMARK                            x       y       z     vdW  Elec       q    Type
REMARK                         _______ _______ _______ _____ _____    ______ ____
ROOT
ATOM      1  N   UNL     1       4.673   3.364  17.684  0.00  0.00    +0.000 N 
ATOM      2  H   UNL     1       4.921   2.381  17.667  0.00  0.00    +0.000 HD
ENDROOT
BRANCH   1   9
ATOM      3  N   UNL     1       7.622   6.951  16.972  0.00  0.00    +0.000 N 
ATOM      4  C   UNL     1       6.959   5.850  16.476  0.00  0.00    +0.000 A 
ATOM      5  N   UNL     1       7.139   5.551  15.195  0.00  0.00    +0.000 NA
ATOM      6  C   UNL     1       6.475   4.472  14.771  0.00  0.00    +0.000 A 
ATOM      7 CL   UNL     1       6.754   4.068  13.124  0.00  0.00    +0.000 Cl
ATOM      8  C   UNL     1       5.627   3.715  15.537  0.00  0.00    +0.000 A 
ATOM      9  C   UNL     1       5.471   4.134  16.837  0.00  0.00    +0.000 A 
ATOM     10  N   UNL     1       6.156   5.184  17.313  0.00  0.00    +0.000 NA
ATOM     11  H   UNL     1       7.869   7.583  16.224  0.00  0.00    +0.000 HD
ATOM     12  H   UNL     1       7.129   7.338  17.766  0.00  0.00    +0.000 HD
ENDBRANCH   1   9
BRANCH   1  13
ATOM     13  C   UNL     1       3.221   3.577  17.679  0.00  0.00    +0.000 C 
BRANCH  13  14
ATOM     14  C   UNL     1       2.743   3.873  19.114  0.00  0.00    +0.000 C 
ATOM     15  C   UNL     1       1.262   3.489  19.295  0.00  0.00    +0.000 C 
ATOM     16  C   UNL     1       1.095   3.261  20.796  0.00  0.00    +0.000 C 
ATOM     17  C   UNL     1       2.471   2.852  21.319  0.00  0.00    +0.000 C 
ATOM     18  C   UNL     1       3.424   2.941  20.132  0.00  0.00    +0.000 C 
BRANCH  14  19
ATOM     19  C   UNL     1       2.974   5.361  19.466  0.00  0.00    +0.000 C 
BRANCH  19  20
ATOM     20  O   UNL     1       4.334   5.611  19.806  0.00  0.00    +0.000 OA
ATOM     21  H   UNL     1       4.667   6.281  19.175  0.00  0.00    +0.000 HD
ENDBRANCH  19  20
ENDBRANCH  14  19
ENDBRANCH  13  14
ENDBRANCH   1  13
TORSDOF 5
ENDMDL
MODEL 8
REMARK VINA RESULT:      -7.1      1.037      1.037
REMARK  Name = 
REMARK  5 active torsions:
REMARK  status: ('A' for Active; 'I' for Inactive)
REMARK    1  A    between atoms: C_7  and  N_8
REMARK    2  A    between atoms: N_8  and  C_9
REMARK    3  A    between atoms: C_9  and  C_10
REMARK    4  A    between atoms: C_10  and  C_11
REMARK    5  A    between atoms: C_11  and  O_12
REMARK                            x       y       z     vdW  Elec       q    Type
REMARK                         _______ _______ _______ _____ _____    ______ ____
ROOT
ATOM      1  N   UNL     1       3.425   5.186  17.595  0.00  0.00    +0.000 N 
ATOM      2  H   UNL     1       3.283   5.687  18.466  0.00  0.00    +0.000 HD
ENDROOT
BRANCH   1   9
ATOM      3  N   UNL     1       6.707   4.254  14.365  0.00  0.00    +0.000 N 
ATOM      4  C   UNL     1       6.303   4.981  15.463  0.00  0.00    +0.000 A 
ATOM      5  N   UNL     1       7.154   5.871  15.958  0.00  0.00    +0.000 NA
ATOM      6  C   UNL     1       6.707   6.549  17.019  0.00  0.00    +0.000 A 
ATOM      7 CL   UNL     1       7.799   7.732  17.618  0.00  0.00    +0.000 Cl
ATOM      8  C   UNL     1       5.491   6.357  17.622  0.00  0.00    +0.000 A 
ATOM      9  C   UNL     1       4.701   5.380  17.065  0.00  0.00    +0.000 A 
ATOM     10  N   UNL     1       5.095   4.711  15.972  0.00  0.00    +0.000 NA
ATOM     11  H   UNL     1       7.715   4.240  14.301  0.00  0.00    +0.000 HD
ATOM     12  H   UNL     1       6.225   3.366  14.326  0.00  0.00    +0.000 HD
ENDBRANCH   1   9
BRANCH   1  13
ATOM     13  C   UNL     1       2.870   3.828  17.631  0.00  0.00    +0.000 C 
BRANCH  13  14
ATOM     14  C   UNL     1       2.785   3.348  19.093  0.00  0.00    +0.000 C 
ATOM     15  C   UNL     1       2.797   4.540  20.069  0.00  0.00    +0.000 C 
ATOM     16  C   UNL     1       2.131   4.014  21.340  0.00  0.00    +0.000 C 
ATOM     17  C   UNL     1       1.199   2.888  20.896  0.00  0.00    +0.000 C 
ATOM     18  C   UNL     1       1.411   2.722  19.395  0.00  0.00    +0.000 C 
BRANCH  14  19
ATOM     19  C   UNL     1       3.936   2.365  19.408  0.00  0.00    +0.000 C 
BRANCH  19  20
ATOM     20  O   UNL     1       5.200   3.023  19.398  0.00  0.00    +0.000 OA
ATOM     21  H   UNL     1       5.881   2.327  19.310  0.00  0.00    +0.000 HD
ENDBRANCH  19  20
ENDBRANCH  14  19
ENDBRANCH  13  14
ENDBRANCH   1  13
TORSDOF 5
ENDMDL
MODEL 9
REMARK VINA RESULT:      -7.1      1.820      2.205
REMARK  Name = 
REMARK  5 active torsions:
REMARK  status: ('A' for Active; 'I' for Inactive)
REMARK    1  A    between atoms: C_7  and  N_8
REMARK    2  A    between atoms: N_8  and  C_9
REMARK    3  A    between atoms: C_9  and  C_10
REMARK    4  A    between atoms: C_10  and  C_11
REMARK    5  A    between atoms: C_11  and  O_12
REMARK                            x       y       z     vdW  Elec       q    Type
REMARK                         _______ _______ _______ _____ _____    ______ ____
ROOT
ATOM      1  N   UNL     1       4.739   3.165  17.103  0.00  0.00    +0.000 N 
ATOM      2  H   UNL     1       4.846   2.193  16.833  0.00  0.00    +0.000 HD
ENDROOT
BRANCH   1   9
ATOM      3  N   UNL     1       7.630   6.860  16.870  0.00  0.00    +0.000 N 
ATOM      4  C   UNL     1       7.026   5.791  16.245  0.00  0.00    +0.000 A 
ATOM      5  N   UNL     1       7.288   5.604  14.957  0.00  0.00    +0.000 NA
ATOM      6  C   UNL     1       6.678   4.551  14.406  0.00  0.00    +0.000 A 
ATOM      7 CL   UNL     1       7.064   4.292  12.752  0.00  0.00    +0.000 Cl
ATOM      8  C   UNL     1       5.807   3.715  15.055  0.00  0.00    +0.000 A 
ATOM      9  C   UNL     1       5.565   4.020  16.373  0.00  0.00    +0.000 A 
ATOM     10  N   UNL     1       6.193   5.040  16.974  0.00  0.00    +0.000 NA
ATOM     11  H   UNL     1       7.904   7.558  16.193  0.00  0.00    +0.000 HD
ATOM     12  H   UNL     1       7.082   7.169  17.661  0.00  0.00    +0.000 HD
ENDBRANCH   1   9
BRANCH   1  13
ATOM     13  C   UNL     1       3.336   3.540  17.311  0.00  0.00    +0.000 C 
BRANCH  13  14
ATOM     14  C   UNL     1       3.008   3.482  18.816  0.00  0.00    +0.000 C 
ATOM     15  C   UNL     1       2.092   4.650  19.229  0.00  0.00    +0.000 C 
ATOM     16  C   UNL     1       1.389   4.170  20.497  0.00  0.00    +0.000 C 
ATOM     17  C   UNL     1       1.355   2.645  20.412  0.00  0.00    +0.000 C 
ATOM     18  C   UNL     1       2.119   2.269  19.146  0.00  0.00    +0.000 C 
BRANCH  14  19
ATOM     19  C   UNL     1       4.307   3.476  19.653  0.00  0.00    +0.000 C 
BRANCH  19  20
ATOM     20  O   UNL     1       4.826   2.158  19.802  0.00  0.00    +0.000 OA
ATOM     21  H   UNL     1       5.221   2.107  20.695  0.00  0.00    +0.000 HD
ENDBRANCH  19  20
ENDBRANCH  14  19
ENDBRANCH  13  14
ENDBRANCH   1  13
TORSDOF 5
ENDMDL
