MODEL 1
REMARK VINA RESULT:      -8.3      0.000      0.000
REMARK  Name = 
REMARK  3 active torsions:
REMARK  status: ('A' for Active; 'I' for Inactive)
REMARK    1  A    between atoms: C_5  and  C_7
REMARK    2  A    between atoms: C_10  and  C_11
REMARK    3  A    between atoms: C_17  and  O_18
REMARK                            x       y       z     vdW  Elec       q    Type
REMARK                         _______ _______ _______ _____ _____    ______ ____
ROOT
ATOM      1  C   UNL     1       6.659   4.566  16.131  0.00  0.00    +0.000 A 
ATOM      2  C   UNL     1       7.469   4.726  17.237  0.00  0.00    +0.000 A 
ATOM      3  C   UNL     1       6.636   4.604  18.371  0.00  0.00    +0.000 A 
ATOM      4  C   UNL     1       5.360   4.352  17.908  0.00  0.00    +0.000 A 
ATOM      5  O   UNL     1       5.369   4.336  16.537  0.00  0.00    +0.000 OA
ENDROOT
BRANCH   1  10
ATOM      6  N   UNL     1       5.693   2.541  12.135  0.00  0.00    +0.000 NA
ATOM      7  C   UNL     1       6.419   3.487  12.605  0.00  0.00    +0.000 C 
ATOM      8  N   UNL     1       7.209   4.264  11.840  0.00  0.00    +0.000 N 
ATOM      9  N   UNL     1       6.340   3.664  13.954  0.00  0.00    +0.000 N 
ATOM     10  C   UNL     1       6.975   4.628  14.719  0.00  0.00    +0.000 C 
ATOM     11  O   UNL     1       7.721   5.482  14.237  0.00  0.00    +0.000 OA
ATOM     12  H   UNL     1       5.849   2.477  11.124  0.00  0.00    +0.000 HD
ATOM     13  H   UNL     1       6.974   4.372  10.864  0.00  0.00    +0.000 HD
ATOM     14  H   UNL     1       7.545   5.117  12.287  0.00  0.00    +0.000 HD
ATOM     15  H   UNL     1       5.734   3.011  14.427  0.00  0.00    +0.000 HD
ENDBRANCH   1  10
BRANCH   4  16
ATOM     16  C   UNL     1       4.078   4.087  18.557  0.00  0.00    +0.000 A 
ATOM     17  C   UNL     1       3.445   5.093  19.306  0.00  0.00    +0.000 A 
ATOM     18  C   UNL     1       2.203   4.860  19.900  0.00  0.00    +0.000 A 
ATOM     19 CL   UNL     1       1.433   6.112  20.795  0.00  0.00    +0.000 Cl
ATOM     20  C   UNL     1       1.572   3.625  19.766  0.00  0.00    +0.000 A 
ATOM     21  C   UNL     1       2.194   2.607  19.046  0.00  0.00    +0.000 A 
ATOM     22  C   UNL     1       3.438   2.838  18.453  0.00  0.00    +0.000 A 
BRANCH  22  23
ATOM     23  O   UNL     1       4.024   1.825  17.741  0.00  0.00    +0.000 OA
ATOM     24  H   UNL     1       4.714   1.405  18.281  0.00  0.00    +0.000 HD
ENDBRANCH  22  23
ENDBRANCH   4  16
TORSDOF 3
ENDMDL
MODEL 2
REMARK VINA RESULT:      -7.8      1.376      1.907
REMARK  Name = 
REMARK  3 active torsions:
REMARK  status: ('A' for Active; 'I' for Inactive)
REMARK    1  A    between atoms: C_5  and  C_7
REMARK    2  A    between atoms: C_10  and  C_11
REMARK    3  A    between atoms: C_17  and  O_18
REMARK                            x       y       z     vdW  Elec       q    Type
REMARK                         _______ _______ _______ _____ _____    ______ ____
ROOT
ATOM      1  C   UNL     1       6.798   4.699  16.149  0.00  0.00    +0.000 A 
ATOM      2  C   UNL     1       7.670   4.569  17.212  0.00  0.00    +0.000 A 
ATOM      3  C   UNL     1       6.892   4.659  18.388  0.00  0.00    +0.000 A 
ATOM      4  C   UNL     1       5.579   4.816  17.991  0.00  0.00    +0.000 A 
ATOM      5  O   UNL     1       5.519   4.850  16.622  0.00  0.00    +0.000 OA
ENDROOT
BRANCH   1  10
ATOM      6  N   UNL     1       5.655   2.554  12.265  0.00  0.00    +0.000 NA
ATOM      7  C   UNL     1       6.403   3.511  12.673  0.00  0.00    +0.000 C 
ATOM      8  N   UNL     1       7.161   4.261  11.850  0.00  0.00    +0.000 N 
ATOM      9  N   UNL     1       6.383   3.730  14.018  0.00  0.00    +0.000 N 
ATOM     10  C   UNL     1       7.053   4.716  14.724  0.00  0.00    +0.000 C 
ATOM     11  O   UNL     1       7.779   5.552  14.184  0.00  0.00    +0.000 OA
ATOM     12  H   UNL     1       5.766   2.459  11.251  0.00  0.00    +0.000 HD
ATOM     13  H   UNL     1       6.883   4.340  10.883  0.00  0.00    +0.000 HD
ATOM     14  H   UNL     1       7.517   5.127  12.256  0.00  0.00    +0.000 HD
ATOM     15  H   UNL     1       5.797   3.095  14.537  0.00  0.00    +0.000 HD
ENDBRANCH   1  10
BRANCH   4  16
ATOM     16  C   UNL     1       4.308   4.922  18.704  0.00  0.00    +0.000 A 
ATOM     17  C   UNL     1       3.907   3.905  19.587  0.00  0.00    +0.000 A 
ATOM     18  C   UNL     1       2.712   4.015  20.299  0.00  0.00    +0.000 A 
ATOM     19 CL   UNL     1       2.248   2.768  21.391  0.00  0.00    +0.000 Cl
ATOM     20  C   UNL     1       1.892   5.131  20.144  0.00  0.00    +0.000 A 
ATOM     21  C   UNL     1       2.261   6.141  19.258  0.00  0.00    +0.000 A 
ATOM     22  C   UNL     1       3.457   6.031  18.542  0.00  0.00    +0.000 A 
BRANCH  22  23
ATOM     23  O   UNL     1       3.803   7.042  17.684  0.00  0.00    +0.000 OA
ATOM     24  H   UNL     1       3.291   6.961  16.863  0.00  0.00    +0.000 HD
ENDBRANCH  22  23
ENDBRANCH   4  16
TORSDOF 3
ENDMDL
MODEL 3
REMARK VINA RESULT:      -7.8      1.429      1.711
REMARK  Name = 
REMARK  3 active torsions:
REMARK  status: ('A' for Active; 'I' for Inactive)
REMARK    1  A    between atoms: C_5  and  C_7
REMARK    2  A    between atoms: C_10  and  C_11
REMARK    3  A    between atoms: C_17  and  O_18
REMARK                            x       y       z     vdW  Elec       q    Type
REMARK                         _______ _______ _______ _____ _____    ______ ____
ROOT
ATOM      1  C   UNL     1       6.506   4.596  16.548  0.00  0.00    +0.000 A 
ATOM      2  C   UNL     1       7.411   5.081  17.471  0.00  0.00    +0.000 A 
ATOM      3  C   UNL     1       6.749   5.100  18.718  0.00  0.00    +0.000 A 
ATOM      4  C   UNL     1       5.478   4.605  18.506  0.00  0.00    +0.000 A 
ATOM      5  O   UNL     1       5.323   4.303  17.177  0.00  0.00    +0.000 OA
ENDROOT
BRANCH   1  10
ATOM      6  N   UNL     1       8.850   6.098  12.908  0.00  0.00    +0.000 NA
ATOM      7  C   UNL     1       7.926   5.259  13.202  0.00  0.00    +0.000 C 
ATOM      8  N   UNL     1       7.341   4.454  12.295  0.00  0.00    +0.000 N 
ATOM      9  N   UNL     1       7.567   5.229  14.516  0.00  0.00    +0.000 N 
ATOM     10  C   UNL     1       6.638   4.398  15.120  0.00  0.00    +0.000 C 
ATOM     11  O   UNL     1       5.999   3.545  14.501  0.00  0.00    +0.000 OA
ATOM     12  H   UNL     1       9.021   6.059  11.899  0.00  0.00    +0.000 HD
ATOM     13  H   UNL     1       7.855   4.223  11.457  0.00  0.00    +0.000 HD
ATOM     14  H   UNL     1       6.804   3.679  12.684  0.00  0.00    +0.000 HD
ATOM     15  H   UNL     1       8.057   5.889  15.099  0.00  0.00    +0.000 HD
ENDBRANCH   1  10
BRANCH   4  16
ATOM     16  C   UNL     1       4.337   4.330  19.376  0.00  0.00    +0.000 A 
ATOM     17  C   UNL     1       3.455   5.364  19.733  0.00  0.00    +0.000 A 
ATOM     18  C   UNL     1       2.342   5.103  20.534  0.00  0.00    +0.000 A 
ATOM     19 CL   UNL     1       1.263   6.378  20.943  0.00  0.00    +0.000 Cl
ATOM     20  C   UNL     1       2.089   3.814  21.000  0.00  0.00    +0.000 A 
ATOM     21  C   UNL     1       2.963   2.779  20.676  0.00  0.00    +0.000 A 
ATOM     22  C   UNL     1       4.078   3.039  19.875  0.00  0.00    +0.000 A 
BRANCH  22  23
ATOM     23  O   UNL     1       4.918   2.003  19.561  0.00  0.00    +0.000 OA
ATOM     24  H   UNL     1       4.490   1.159  19.781  0.00  0.00    +0.000 HD
ENDBRANCH  22  23
ENDBRANCH   4  16
TORSDOF 3
ENDMDL
MODEL 4
REMARK VINA RESULT:      -7.7      3.831      5.120
REMARK  Name = 
REMARK  3 active torsions:
REMARK  status: ('A' for Active; 'I' for Inactive)
REMARK    1  A    between atoms: C_5  and  C_7
REMARK    2  A    between atoms: C_10  and  C_11
REMARK    3  A    between atoms: C_17  and  O_18
REMARK                            x       y       z     vdW  Elec       q    Type
REMARK                         _______ _______ _______ _____ _____    ______ ____
ROOT
ATOM      1  C   UNL     1       3.910   6.209  17.553  0.00  0.00    +0.000 A 
ATOM      2  C   UNL     1       3.128   5.201  18.080  0.00  0.00    +0.000 A 
ATOM      3  C   UNL     1       2.172   5.823  18.914  0.00  0.00    +0.000 A 
ATOM      4  C   UNL     1       2.398   7.183  18.839  0.00  0.00    +0.000 A 
ATOM      5  O   UNL     1       3.466   7.422  18.014  0.00  0.00    +0.000 OA
ENDROOT
BRANCH   1  10
ATOM      6  N   UNL     1       7.977   4.151  17.077  0.00  0.00    +0.000 NA
ATOM      7  C   UNL     1       7.236   5.009  16.479  0.00  0.00    +0.000 C 
ATOM      8  N   UNL     1       7.573   5.595  15.314  0.00  0.00    +0.000 N 
ATOM      9  N   UNL     1       6.059   5.295  17.104  0.00  0.00    +0.000 N 
ATOM     10  C   UNL     1       5.054   6.143  16.668  0.00  0.00    +0.000 C 
ATOM     11  O   UNL     1       5.115   6.764  15.605  0.00  0.00    +0.000 OA
ATOM     12  H   UNL     1       8.841   4.032  16.541  0.00  0.00    +0.000 HD
ATOM     13  H   UNL     1       8.219   5.114  14.705  0.00  0.00    +0.000 HD
ATOM     14  H   UNL     1       6.811   6.066  14.827  0.00  0.00    +0.000 HD
ATOM     15  H   UNL     1       5.922   4.813  17.978  0.00  0.00    +0.000 HD
ENDBRANCH   1  10
BRANCH   4  16
ATOM     16  C   UNL     1       1.740   8.354  19.414  0.00  0.00    +0.000 A 
ATOM     17  C   UNL     1       1.336   8.348  20.760  0.00  0.00    +0.000 A 
ATOM     18  C   UNL     1       0.740   9.475  21.328  0.00  0.00    +0.000 A 
ATOM     19 CL   UNL     1       0.271   9.454  22.983  0.00  0.00    +0.000 Cl
ATOM     20  C   UNL     1       0.530  10.625  20.570  0.00  0.00    +0.000 A 
ATOM     21  C   UNL     1       0.904  10.645  19.228  0.00  0.00    +0.000 A 
ATOM     22  C   UNL     1       1.499   9.516  18.657  0.00  0.00    +0.000 A 
BRANCH  22  23
ATOM     23  O   UNL     1       1.867   9.563  17.338  0.00  0.00    +0.000 OA
ATOM     24  H   UNL     1       1.173  10.005  16.823  0.00  0.00    +0.000 HD
ENDBRANCH  22  23
ENDBRANCH   4  16
TORSDOF 3
ENDMDL
MODEL 5
REMARK VINA RESULT:      -7.6      1.246      1.275
REMARK  Name = 
REMARK  3 active torsions:
REMARK  status: ('A' for Active; 'I' for Inactive)
REMARK    1  A    between atoms: C_5  and  C_7
REMARK    2  A    between atoms: C_10  and  C_11
REMARK    3  A    between atoms: C_17  and  O_18
REMARK                            x       y       z     vdW  Elec       q    Type
REMARK                         _______ _______ _______ _____ _____    ______ ____
ROOT
ATOM      1  C   UNL     1       6.375   4.473  16.267  0.00  0.00    +0.000 A 
ATOM      2  C   UNL     1       7.050   4.764  17.435  0.00  0.00    +0.000 A 
ATOM      3  C   UNL     1       6.144   4.538  18.495  0.00  0.00    +0.000 A 
ATOM      4  C   UNL     1       4.965   4.098  17.929  0.00  0.00    +0.000 A 
ATOM      5  O   UNL     1       5.100   4.065  16.565  0.00  0.00    +0.000 OA
ENDROOT
BRANCH   1  10
ATOM      6  N   UNL     1       5.667   2.590  12.150  0.00  0.00    +0.000 NA
ATOM      7  C   UNL     1       6.384   3.497  12.703  0.00  0.00    +0.000 C 
ATOM      8  N   UNL     1       7.258   4.265  12.027  0.00  0.00    +0.000 N 
ATOM      9  N   UNL     1       6.203   3.640  14.047  0.00  0.00    +0.000 N 
ATOM     10  C   UNL     1       6.805   4.561  14.887  0.00  0.00    +0.000 C 
ATOM     11  O   UNL     1       7.616   5.400  14.491  0.00  0.00    +0.000 OA
ATOM     12  H   UNL     1       5.901   2.548  11.153  0.00  0.00    +0.000 HD
ATOM     13  H   UNL     1       7.106   4.408  11.039  0.00  0.00    +0.000 HD
ATOM     14  H   UNL     1       7.585   5.093  12.524  0.00  0.00    +0.000 HD
ATOM     15  H   UNL     1       5.539   2.998  14.450  0.00  0.00    +0.000 HD
ENDBRANCH   1  10
BRANCH   4  16
ATOM     16  C   UNL     1       3.680   3.659  18.470  0.00  0.00    +0.000 A 
ATOM     17  C   UNL     1       3.517   3.493  19.856  0.00  0.00    +0.000 A 
ATOM     18  C   UNL     1       2.283   3.109  20.384  0.00  0.00    +0.000 A 
ATOM     19 CL   UNL     1       2.098   2.931  22.085  0.00  0.00    +0.000 Cl
ATOM     20  C   UNL     1       1.194   2.876  19.548  0.00  0.00    +0.000 A 
ATOM     21  C   UNL     1       1.340   3.015  18.169  0.00  0.00    +0.000 A 
ATOM     22  C   UNL     1       2.575   3.397  17.638  0.00  0.00    +0.000 A 
BRANCH  22  23
ATOM     23  O   UNL     1       2.692   3.536  16.280  0.00  0.00    +0.000 OA
ATOM     24  H   UNL     1       2.877   2.671  15.879  0.00  0.00    +0.000 HD
ENDBRANCH  22  23
ENDBRANCH   4  16
TORSDOF 3
ENDMDL
MODEL 6
REMARK VINA RESULT:      -7.5      3.525      4.644
REMARK  Name = 
REMARK  3 active torsions:
REMARK  status: ('A' for Active; 'I' for Inactive)
REMARK    1  A    between atoms: C_5  and  C_7
REMARK    2  A    between atoms: C_10  and  C_11
REMARK    3  A    between atoms: C_17  and  O_18
REMARK                            x       y       z     vdW  Elec       q    Type
REMARK                         _______ _______ _______ _____ _____    ______ ____
ROOT
ATOM      1  C   UNL     1       4.174   6.114  17.302  0.00  0.00    +0.000 A 
ATOM      2  C   UNL     1       3.340   5.091  17.707  0.00  0.00    +0.000 A 
ATOM      3  C   UNL     1       2.342   5.678  18.517  0.00  0.00    +0.000 A 
ATOM      4  C   UNL     1       2.599   7.034  18.552  0.00  0.00    +0.000 A 
ATOM      5  O   UNL     1       3.725   7.303  17.817  0.00  0.00    +0.000 OA
ENDROOT
BRANCH   1  10
ATOM      6  N   UNL     1       6.305   3.581  14.133  0.00  0.00    +0.000 NA
ATOM      7  C   UNL     1       6.471   4.665  14.796  0.00  0.00    +0.000 C 
ATOM      8  N   UNL     1       7.540   5.470  14.644  0.00  0.00    +0.000 N 
ATOM      9  N   UNL     1       5.478   4.962  15.681  0.00  0.00    +0.000 N 
ATOM     10  C   UNL     1       5.373   6.080  16.491  0.00  0.00    +0.000 C 
ATOM     11  O   UNL     1       6.212   6.983  16.499  0.00  0.00    +0.000 OA
ATOM     12  H   UNL     1       7.116   3.440  13.523  0.00  0.00    +0.000 HD
ATOM     13  H   UNL     1       8.037   5.445  13.766  0.00  0.00    +0.000 HD
ATOM     14  H   UNL     1       7.442   6.403  15.043  0.00  0.00    +0.000 HD
ATOM     15  H   UNL     1       4.738   4.278  15.725  0.00  0.00    +0.000 HD
ENDBRANCH   1  10
BRANCH   4  16
ATOM     16  C   UNL     1       1.929   8.179  19.164  0.00  0.00    +0.000 A 
ATOM     17  C   UNL     1       1.542   8.133  20.514  0.00  0.00    +0.000 A 
ATOM     18  C   UNL     1       0.934   9.235  21.117  0.00  0.00    +0.000 A 
ATOM     19 CL   UNL     1       0.486   9.166  22.776  0.00  0.00    +0.000 Cl
ATOM     20  C   UNL     1       0.693  10.399  20.390  0.00  0.00    +0.000 A 
ATOM     21  C   UNL     1       1.049  10.458  19.044  0.00  0.00    +0.000 A 
ATOM     22  C   UNL     1       1.657   9.354  18.439  0.00  0.00    +0.000 A 
BRANCH  22  23
ATOM     23  O   UNL     1       2.007   9.440  17.117  0.00  0.00    +0.000 OA
ATOM     24  H   UNL     1       2.840   8.964  16.969  0.00  0.00    +0.000 HD
ENDBRANCH  22  23
ENDBRANCH   4  16
TORSDOF 3
ENDMDL
MODEL 7
REMARK VINA RESULT:      -7.5      1.718      1.930
REMARK  Name = 
REMARK  3 active torsions:
REMARK  status: ('A' for Active; 'I' for Inactive)
REMARK    1  A    between atoms: C_5  and  C_7
REMARK    2  A    between atoms: C_10  and  C_11
REMARK    3  A    between atoms: C_17  and  O_18
REMARK                            x       y       z     vdW  Elec       q    Type
REMARK                         _______ _______ _______ _____ _____    ______ ____
ROOT
ATOM      1  C   UNL     1       5.608   5.243  15.302  0.00  0.00    +0.000 A 
ATOM      2  C   UNL     1       5.226   6.489  15.756  0.00  0.00    +0.000 A 
ATOM      3  C   UNL     1       4.443   6.277  16.913  0.00  0.00    +0.000 A 
ATOM      4  C   UNL     1       4.401   4.913  17.125  0.00  0.00    +0.000 A 
ATOM      5  O   UNL     1       5.107   4.277  16.137  0.00  0.00    +0.000 OA
ENDROOT
BRANCH   1  10
ATOM      6  N   UNL     1       5.629   2.315  11.777  0.00  0.00    +0.000 NA
ATOM      7  C   UNL     1       6.342   3.257  12.274  0.00  0.00    +0.000 C 
ATOM      8  N   UNL     1       7.493   3.684  11.721  0.00  0.00    +0.000 N 
ATOM      9  N   UNL     1       5.854   3.813  13.418  0.00  0.00    +0.000 N 
ATOM     10  C   UNL     1       6.388   4.867  14.141  0.00  0.00    +0.000 C 
ATOM     11  O   UNL     1       7.420   5.452  13.809  0.00  0.00    +0.000 OA
ATOM     12  H   UNL     1       6.098   1.951  10.942  0.00  0.00    +0.000 HD
ATOM     13  H   UNL     1       7.631   3.543  10.731  0.00  0.00    +0.000 HD
ATOM     14  H   UNL     1       7.836   4.580  12.068  0.00  0.00    +0.000 HD
ATOM     15  H   UNL     1       4.997   3.400  13.751  0.00  0.00    +0.000 HD
ENDBRANCH   1  10
BRANCH   4  16
ATOM     16  C   UNL     1       3.808   4.064  18.156  0.00  0.00    +0.000 A 
ATOM     17  C   UNL     1       2.427   3.807  18.151  0.00  0.00    +0.000 A 
ATOM     18  C   UNL     1       1.858   2.968  19.110  0.00  0.00    +0.000 A 
ATOM     19 CL   UNL     1       0.167   2.651  19.075  0.00  0.00    +0.000 Cl
ATOM     20  C   UNL     1       2.647   2.374  20.093  0.00  0.00    +0.000 A 
ATOM     21  C   UNL     1       4.016   2.632  20.128  0.00  0.00    +0.000 A 
ATOM     22  C   UNL     1       4.587   3.474  19.169  0.00  0.00    +0.000 A 
BRANCH  22  23
ATOM     23  O   UNL     1       5.937   3.705  19.219  0.00  0.00    +0.000 OA
ATOM     24  H   UNL     1       6.339   3.140  19.899  0.00  0.00    +0.000 HD
ENDBRANCH  22  23
ENDBRANCH   4  16
TORSDOF 3
ENDMDL
MODEL 8
REMARK VINA RESULT:      -7.5      1.773      2.453
REMARK  Name = 
REMARK  3 active torsions:
REMARK  status: ('A' for Active; 'I' for Inactive)
REMARK    1  A    between atoms: C_5  and  C_7
REMARK    2  A    between atoms: C_10  and  C_11
REMARK    3  A    between atoms: C_17  and  O_18
REMARK                            x       y       z     vdW  Elec       q    Type
REMARK                         _______ _______ _______ _____ _____    ______ ____
ROOT
ATOM      1  C   UNL     1       6.382   4.586  16.387  0.00  0.00    +0.000 A 
ATOM      2  C   UNL     1       7.316   4.692  17.398  0.00  0.00    +0.000 A 
ATOM      3  C   UNL     1       6.596   4.869  18.600  0.00  0.00    +0.000 A 
ATOM      4  C   UNL     1       5.255   4.839  18.273  0.00  0.00    +0.000 A 
ATOM      5  O   UNL     1       5.121   4.674  16.919  0.00  0.00    +0.000 OA
ENDROOT
BRANCH   1  10
ATOM      6  N   UNL     1       8.924   6.100  12.888  0.00  0.00    +0.000 NA
ATOM      7  C   UNL     1       7.955   5.293  13.120  0.00  0.00    +0.000 C 
ATOM      8  N   UNL     1       7.372   4.543  12.165  0.00  0.00    +0.000 N 
ATOM      9  N   UNL     1       7.545   5.236  14.418  0.00  0.00    +0.000 N 
ATOM     10  C   UNL     1       6.559   4.428  14.959  0.00  0.00    +0.000 C 
ATOM     11  O   UNL     1       5.910   3.623  14.289  0.00  0.00    +0.000 OA
ATOM     12  H   UNL     1       9.131   6.086  11.885  0.00  0.00    +0.000 HD
ATOM     13  H   UNL     1       7.907   4.317  11.340  0.00  0.00    +0.000 HD
ATOM     14  H   UNL     1       6.788   3.780  12.508  0.00  0.00    +0.000 HD
ATOM     15  H   UNL     1       8.040   5.856  15.040  0.00  0.00    +0.000 HD
ENDBRANCH   1  10
BRANCH   4  16
ATOM     16  C   UNL     1       4.019   4.918  19.048  0.00  0.00    +0.000 A 
ATOM     17  C   UNL     1       3.640   3.854  19.884  0.00  0.00    +0.000 A 
ATOM     18  C   UNL     1       2.479   3.936  20.655  0.00  0.00    +0.000 A 
ATOM     19 CL   UNL     1       2.044   2.631  21.689  0.00  0.00    +0.000 Cl
ATOM     20  C   UNL     1       1.672   5.070  20.605  0.00  0.00    +0.000 A 
ATOM     21  C   UNL     1       2.018   6.128  19.767  0.00  0.00    +0.000 A 
ATOM     22  C   UNL     1       3.179   6.046  18.992  0.00  0.00    +0.000 A 
BRANCH  22  23
ATOM     23  O   UNL     1       3.503   7.103  18.182  0.00  0.00    +0.000 OA
ATOM     24  H   UNL     1       4.379   7.444  18.427  0.00  0.00    +0.000 HD
ENDBRANCH  22  23
ENDBRANCH   4  16
TORSDOF 3
ENDMDL
MODEL 9
REMARK VINA RESULT:      -7.4      1.503      1.988
REMARK  Name = 
REMARK  3 active torsions:
REMARK  status: ('A' for Active; 'I' for Inactive)
REMARK    1  A    between atoms: C_5  and  C_7
REMARK    2  A    between atoms: C_10  and  C_11
REMARK    3  A    between atoms: C_17  and  O_18
REMARK                            x       y       z     vdW  Elec       q    Type
REMARK                         _______ _______ _______ _____ _____    ______ ____
ROOT
ATOM      1  C   UNL     1       6.498   4.591  16.199  0.00  0.00    +0.000 A 
ATOM      2  C   UNL     1       7.284   4.621  17.334  0.00  0.00    +0.000 A 
ATOM      3  C   UNL     1       6.404   4.588  18.438  0.00  0.00    +0.000 A 
ATOM      4  C   UNL     1       5.123   4.515  17.929  0.00  0.00    +0.000 A 
ATOM      5  O   UNL     1       5.176   4.525  16.560  0.00  0.00    +0.000 OA
ENDROOT
BRANCH   1  10
ATOM      6  N   UNL     1       5.645   2.560  12.181  0.00  0.00    +0.000 NA
ATOM      7  C   UNL     1       6.371   3.495  12.673  0.00  0.00    +0.000 C 
ATOM      8  N   UNL     1       7.203   4.253  11.934  0.00  0.00    +0.000 N 
ATOM      9  N   UNL     1       6.244   3.682  14.017  0.00  0.00    +0.000 N 
ATOM     10  C   UNL     1       6.868   4.639  14.800  0.00  0.00    +0.000 C 
ATOM     11  O   UNL     1       7.647   5.476  14.342  0.00  0.00    +0.000 OA
ATOM     12  H   UNL     1       5.837   2.488  11.177  0.00  0.00    +0.000 HD
ATOM     13  H   UNL     1       7.006   4.360  10.949  0.00  0.00    +0.000 HD
ATOM     14  H   UNL     1       7.537   5.102  12.389  0.00  0.00    +0.000 HD
ATOM     15  H   UNL     1       5.609   3.044  14.470  0.00  0.00    +0.000 HD
ENDBRANCH   1  10
BRANCH   4  16
ATOM     16  C   UNL     1       3.795   4.409  18.531  0.00  0.00    +0.000 A 
ATOM     17  C   UNL     1       2.984   3.294  18.260  0.00  0.00    +0.000 A 
ATOM     18  C   UNL     1       1.729   3.167  18.859  0.00  0.00    +0.000 A 
ATOM     19 CL   UNL     1       0.759   1.785  18.529  0.00  0.00    +0.000 Cl
ATOM     20  C   UNL     1       1.256   4.145  19.731  0.00  0.00    +0.000 A 
ATOM     21  C   UNL     1       2.037   5.268  19.998  0.00  0.00    +0.000 A 
ATOM     22  C   UNL     1       3.292   5.397  19.397  0.00  0.00    +0.000 A 
BRANCH  22  23
ATOM     23  O   UNL     1       4.045   6.506  19.683  0.00  0.00    +0.000 OA
ATOM     24  H   UNL     1       3.464   7.227  19.976  0.00  0.00    +0.000 HD
ENDBRANCH  22  23
ENDBRANCH   4  16
TORSDOF 3
ENDMDL
