MODEL 1
REMARK VINA RESULT:      -7.0      0.000      0.000
REMARK  Name = 
REMARK  7 active torsions:
REMARK  status: ('A' for Active; 'I' for Inactive)
REMARK    1  A    between atoms: C_5  and  C_6
REMARK    2  A    between atoms: N_12  and  C_13
REMARK    3  A    between atoms: C_13  and  C_14
REMARK    4  A    between atoms: C_14  and  S_15
REMARK    5  A    between atoms: S_15  and  C_16
REMARK    6  A    between atoms: C_16  and  C_17
REMARK    7  A    between atoms: C_17  and  C_18
REMARK                            x       y       z     vdW  Elec       q    Type
REMARK                         _______ _______ _______ _____ _____    ______ ____
ROOT
ATOM      1  S   UNL     1       7.325   6.737  17.329  0.00  0.00    +0.000 S 
ATOM      2  C   UNL     1       6.237   5.696  18.019  0.00  0.00    +0.000 A 
ATOM      3  N   UNL     1       6.657   4.666  18.844  0.00  0.00    +0.000 N 
ATOM      4  N   UNL     1       5.600   3.969  19.322  0.00  0.00    +0.000 NA
ATOM      5  C   UNL     1       4.559   4.536  18.782  0.00  0.00    +0.000 A 
ATOM      6  N   UNL     1       4.859   5.612  17.967  0.00  0.00    +0.000 N 
ATOM      7  H   UNL     1       7.609   4.462  19.115  0.00  0.00    +0.000 HD
ENDROOT
BRANCH   5   8
ATOM      8  C   UNL     1       3.187   4.054  19.091  0.00  0.00    +0.000 A 
ATOM      9  C   UNL     1       2.594   4.487  20.288  0.00  0.00    +0.000 A 
ATOM     10  C   UNL     1       1.328   4.028  20.661  0.00  0.00    +0.000 A 
ATOM     11  C   UNL     1       0.637   3.144  19.837  0.00  0.00    +0.000 A 
ATOM     12  C   UNL     1       1.224   2.692  18.658  0.00  0.00    +0.000 A 
ATOM     13  C   UNL     1       2.506   3.124  18.302  0.00  0.00    +0.000 A 
ENDBRANCH   5   8
BRANCH   6  14
ATOM     14  C   UNL     1       3.874   6.548  17.415  0.00  0.00    +0.000 C 
BRANCH  14  15
ATOM     15  C   UNL     1       3.381   7.740  18.232  0.00  0.00    +0.000 C 
BRANCH  15  16
ATOM     16  S   UNL     1       1.684   8.241  17.733  0.00  0.00    +0.000 S 
BRANCH  16  17
ATOM     17  C   UNL     1       1.581   9.855  18.576  0.00  0.00    +0.000 C 
BRANCH  17  18
ATOM     18  C   UNL     1       0.126  10.217  18.870  0.00  0.00    +0.000 C 
BRANCH  18  19
ATOM     19  C   UNL     1      -0.149  10.161  20.353  0.00  0.00    +0.000 A 
ATOM     20  C   UNL     1      -0.571  11.306  21.042  0.00  0.00    +0.000 A 
ATOM     21  C   UNL     1      -0.810  11.256  22.416  0.00  0.00    +0.000 A 
ATOM     22  C   UNL     1      -0.622  10.065  23.114  0.00  0.00    +0.000 A 
ATOM     23  C   UNL     1      -0.189   8.923  22.442  0.00  0.00    +0.000 A 
ATOM     24  C   UNL     1       0.049   8.971  21.068  0.00  0.00    +0.000 A 
ENDBRANCH  18  19
ENDBRANCH  17  18
ENDBRANCH  16  17
ENDBRANCH  15  16
ENDBRANCH  14  15
ENDBRANCH   6  14
TORSDOF 7
ENDMDL
MODEL 2
REMARK VINA RESULT:      -7.0      0.774      1.342
REMARK  Name = 
REMARK  7 active torsions:
REMARK  status: ('A' for Active; 'I' for Inactive)
REMARK    1  A    between atoms: C_5  and  C_6
REMARK    2  A    between atoms: N_12  and  C_13
REMARK    3  A    between atoms: C_13  and  C_14
REMARK    4  A    between atoms: C_14  and  S_15
REMARK    5  A    between atoms: S_15  and  C_16
REMARK    6  A    between atoms: C_16  and  C_17
REMARK    7  A    between atoms: C_17  and  C_18
REMARK                            x       y       z     vdW  Elec       q    Type
REMARK                         _______ _______ _______ _____ _____    ______ ____
ROOT
ATOM      1  S   UNL     1       7.142   7.055  17.482  0.00  0.00    +0.000 S 
ATOM      2  C   UNL     1       6.117   5.907  18.096  0.00  0.00    +0.000 A 
ATOM      3  N   UNL     1       6.606   4.792  18.756  0.00  0.00    +0.000 N 
ATOM      4  N   UNL     1       5.595   4.012  19.202  0.00  0.00    +0.000 NA
ATOM      5  C   UNL     1       4.512   4.616  18.801  0.00  0.00    +0.000 A 
ATOM      6  N   UNL     1       4.741   5.793  18.113  0.00  0.00    +0.000 N 
ATOM      7  H   UNL     1       7.577   4.581  18.943  0.00  0.00    +0.000 HD
ENDROOT
BRANCH   5   8
ATOM      8  C   UNL     1       3.170   4.062  19.125  0.00  0.00    +0.000 A 
ATOM      9  C   UNL     1       2.702   4.208  20.440  0.00  0.00    +0.000 A 
ATOM     10  C   UNL     1       1.472   3.664  20.823  0.00  0.00    +0.000 A 
ATOM     11  C   UNL     1       0.694   2.982  19.892  0.00  0.00    +0.000 A 
ATOM     12  C   UNL     1       1.158   2.813  18.590  0.00  0.00    +0.000 A 
ATOM     13  C   UNL     1       2.404   3.327  18.217  0.00  0.00    +0.000 A 
ENDBRANCH   5   8
BRANCH   6  14
ATOM     14  C   UNL     1       3.707   6.765  17.744  0.00  0.00    +0.000 C 
BRANCH  14  15
ATOM     15  C   UNL     1       2.765   7.348  18.796  0.00  0.00    +0.000 C 
BRANCH  15  16
ATOM     16  S   UNL     1       1.909   8.850  18.173  0.00  0.00    +0.000 S 
BRANCH  16  17
ATOM     17  C   UNL     1       0.954   9.297  19.662  0.00  0.00    +0.000 C 
BRANCH  17  18
ATOM     18  C   UNL     1       0.243  10.634  19.465  0.00  0.00    +0.000 C 
BRANCH  18  19
ATOM     19  C   UNL     1      -0.510  11.029  20.712  0.00  0.00    +0.000 A 
ATOM     20  C   UNL     1      -0.311  10.333  21.913  0.00  0.00    +0.000 A 
ATOM     21  C   UNL     1      -1.020  10.689  23.060  0.00  0.00    +0.000 A 
ATOM     22  C   UNL     1      -1.938  11.736  23.018  0.00  0.00    +0.000 A 
ATOM     23  C   UNL     1      -2.155  12.426  21.826  0.00  0.00    +0.000 A 
ATOM     24  C   UNL     1      -1.445  12.072  20.677  0.00  0.00    +0.000 A 
ENDBRANCH  18  19
ENDBRANCH  17  18
ENDBRANCH  16  17
ENDBRANCH  15  16
ENDBRANCH  14  15
ENDBRANCH   6  14
TORSDOF 7
ENDMDL
MODEL 3
REMARK VINA RESULT:      -6.9      0.424      1.470
REMARK  Name = 
REMARK  7 active torsions:
REMARK  status: ('A' for Active; 'I' for Inactive)
REMARK    1  A    between atoms: C_5  and  C_6
REMARK    2  A    between atoms: N_12  and  C_13
REMARK    3  A    between atoms: C_13  and  C_14
REMARK    4  A    between atoms: C_14  and  S_15
REMARK    5  A    between atoms: S_15  and  C_16
REMARK    6  A    between atoms: C_16  and  C_17
REMARK    7  A    between atoms: C_17  and  C_18
REMARK                            x       y       z     vdW  Elec       q    Type
REMARK                         _______ _______ _______ _____ _____    ______ ____
ROOT
ATOM      1  S   UNL     1       7.320   6.842  17.542  0.00  0.00    +0.000 S 
ATOM      2  C   UNL     1       6.273   5.747  18.211  0.00  0.00    +0.000 A 
ATOM      3  N   UNL     1       6.713   4.801  19.122  0.00  0.00    +0.000 N 
ATOM      4  N   UNL     1       5.685   4.040  19.563  0.00  0.00    +0.000 NA
ATOM      5  C   UNL     1       4.644   4.486  18.918  0.00  0.00    +0.000 A 
ATOM      6  N   UNL     1       4.915   5.540  18.065  0.00  0.00    +0.000 N 
ATOM      7  H   UNL     1       7.655   4.696  19.473  0.00  0.00    +0.000 HD
ENDROOT
BRANCH   5   8
ATOM      8  C   UNL     1       3.297   3.902  19.155  0.00  0.00    +0.000 A 
ATOM      9  C   UNL     1       2.823   2.955  18.234  0.00  0.00    +0.000 A 
ATOM     10  C   UNL     1       1.543   2.408  18.371  0.00  0.00    +0.000 A 
ATOM     11  C   UNL     1       0.732   2.793  19.435  0.00  0.00    +0.000 A 
ATOM     12  C   UNL     1       1.185   3.748  20.342  0.00  0.00    +0.000 A 
ATOM     13  C   UNL     1       2.451   4.320  20.185  0.00  0.00    +0.000 A 
ENDBRANCH   5   8
BRANCH   6  14
ATOM     14  C   UNL     1       3.900   6.357  17.390  0.00  0.00    +0.000 C 
BRANCH  14  15
ATOM     15  C   UNL     1       3.576   7.767  17.878  0.00  0.00    +0.000 C 
BRANCH  15  16
ATOM     16  S   UNL     1       1.993   7.808  18.810  0.00  0.00    +0.000 S 
BRANCH  16  17
ATOM     17  C   UNL     1       1.556   9.566  18.595  0.00  0.00    +0.000 C 
BRANCH  17  18
ATOM     18  C   UNL     1       0.065   9.785  18.842  0.00  0.00    +0.000 C 
BRANCH  18  19
ATOM     19  C   UNL     1      -0.200  10.064  20.302  0.00  0.00    +0.000 A 
ATOM     20  C   UNL     1      -0.138   9.029  21.245  0.00  0.00    +0.000 A 
ATOM     21  C   UNL     1      -0.399   9.285  22.591  0.00  0.00    +0.000 A 
ATOM     22  C   UNL     1      -0.732  10.573  23.006  0.00  0.00    +0.000 A 
ATOM     23  C   UNL     1      -0.809  11.607  22.074  0.00  0.00    +0.000 A 
ATOM     24  C   UNL     1      -0.547  11.353  20.727  0.00  0.00    +0.000 A 
ENDBRANCH  18  19
ENDBRANCH  17  18
ENDBRANCH  16  17
ENDBRANCH  15  16
ENDBRANCH  14  15
ENDBRANCH   6  14
TORSDOF 7
ENDMDL
MODEL 4
REMARK VINA RESULT:      -6.9      1.713      2.431
REMARK  Name = 
REMARK  7 active torsions:
REMARK  status: ('A' for Active; 'I' for Inactive)
REMARK    1  A    between atoms: C_5  and  C_6
REMARK    2  A    between atoms: N_12  and  C_13
REMARK    3  A    between atoms: C_13  and  C_14
REMARK    4  A    between atoms: C_14  and  S_15
REMARK    5  A    between atoms: S_15  and  C_16
REMARK    6  A    between atoms: C_16  and  C_17
REMARK    7  A    between atoms: C_17  and  C_18
REMARK                            x       y       z     vdW  Elec       q    Type
REMARK                         _______ _______ _______ _____ _____    ______ ____
ROOT
ATOM      1  S   UNL     1       7.569   7.183  17.693  0.00  0.00    +0.000 S 
ATOM      2  C   UNL     1       6.556   6.030  18.317  0.00  0.00    +0.000 A 
ATOM      3  N   UNL     1       6.946   5.237  19.384  0.00  0.00    +0.000 N 
ATOM      4  N   UNL     1       5.952   4.396  19.749  0.00  0.00    +0.000 NA
ATOM      5  C   UNL     1       4.986   4.643  18.910  0.00  0.00    +0.000 A 
ATOM      6  N   UNL     1       5.272   5.639  17.995  0.00  0.00    +0.000 N 
ATOM      7  H   UNL     1       7.826   5.286  19.880  0.00  0.00    +0.000 HD
ENDROOT
BRANCH   5   8
ATOM      8  C   UNL     1       3.692   3.917  19.008  0.00  0.00    +0.000 A 
ATOM      9  C   UNL     1       3.425   2.923  18.053  0.00  0.00    +0.000 A 
ATOM     10  C   UNL     1       2.205   2.241  18.058  0.00  0.00    +0.000 A 
ATOM     11  C   UNL     1       1.246   2.535  19.024  0.00  0.00    +0.000 A 
ATOM     12  C   UNL     1       1.493   3.534  19.963  0.00  0.00    +0.000 A 
ATOM     13  C   UNL     1       2.699   4.240  19.937  0.00  0.00    +0.000 A 
ENDBRANCH   5   8
BRANCH   6  14
ATOM     14  C   UNL     1       4.294   6.253  17.089  0.00  0.00    +0.000 C 
BRANCH  14  15
ATOM     15  C   UNL     1       3.815   7.686  17.307  0.00  0.00    +0.000 C 
BRANCH  15  16
ATOM     16  S   UNL     1       2.408   7.751  18.489  0.00  0.00    +0.000 S 
BRANCH  16  17
ATOM     17  C   UNL     1       1.435   9.096  17.732  0.00  0.00    +0.000 C 
BRANCH  17  18
ATOM     18  C   UNL     1       0.965  10.086  18.795  0.00  0.00    +0.000 C 
BRANCH  18  19
ATOM     19  C   UNL     1      -0.459  10.515  18.535  0.00  0.00    +0.000 A 
ATOM     20  C   UNL     1      -1.014  11.598  19.230  0.00  0.00    +0.000 A 
ATOM     21  C   UNL     1      -2.334  11.983  18.999  0.00  0.00    +0.000 A 
ATOM     22  C   UNL     1      -3.115  11.286  18.079  0.00  0.00    +0.000 A 
ATOM     23  C   UNL     1      -2.577  10.199  17.391  0.00  0.00    +0.000 A 
ATOM     24  C   UNL     1      -1.255   9.813  17.620  0.00  0.00    +0.000 A 
ENDBRANCH  18  19
ENDBRANCH  17  18
ENDBRANCH  16  17
ENDBRANCH  15  16
ENDBRANCH  14  15
ENDBRANCH   6  14
TORSDOF 7
ENDMDL
MODEL 5
REMARK VINA RESULT:      -6.9      1.826      3.758
REMARK  Name = 
REMARK  7 active torsions:
REMARK  status: ('A' for Active; 'I' for Inactive)
REMARK    1  A    between atoms: C_5  and  C_6
REMARK    2  A    between atoms: N_12  and  C_13
REMARK    3  A    between atoms: C_13  and  C_14
REMARK    4  A    between atoms: C_14  and  S_15
REMARK    5  A    between atoms: S_15  and  C_16
REMARK    6  A    between atoms: C_16  and  C_17
REMARK    7  A    between atoms: C_17  and  C_18
REMARK                            x       y       z     vdW  Elec       q    Type
REMARK                         _______ _______ _______ _____ _____    ______ ____
ROOT
ATOM      1  S   UNL     1       1.590   3.169  21.263  0.00  0.00    +0.000 S 
ATOM      2  C   UNL     1       2.996   3.462  20.438  0.00  0.00    +0.000 A 
ATOM      3  N   UNL     1       3.884   2.438  20.152  0.00  0.00    +0.000 N 
ATOM      4  N   UNL     1       4.940   2.898  19.443  0.00  0.00    +0.000 NA
ATOM      5  C   UNL     1       4.723   4.176  19.320  0.00  0.00    +0.000 A 
ATOM      6  N   UNL     1       3.546   4.610  19.902  0.00  0.00    +0.000 N 
ATOM      7  H   UNL     1       3.769   1.460  20.381  0.00  0.00    +0.000 HD
ENDROOT
BRANCH   5   8
ATOM      8  C   UNL     1       5.673   5.039  18.568  0.00  0.00    +0.000 A 
ATOM      9  C   UNL     1       6.779   5.554  19.261  0.00  0.00    +0.000 A 
ATOM     10  C   UNL     1       7.680   6.414  18.626  0.00  0.00    +0.000 A 
ATOM     11  C   UNL     1       7.491   6.755  17.289  0.00  0.00    +0.000 A 
ATOM     12  C   UNL     1       6.386   6.266  16.598  0.00  0.00    +0.000 A 
ATOM     13  C   UNL     1       5.466   5.434  17.244  0.00  0.00    +0.000 A 
ENDBRANCH   5   8
BRANCH   6  14
ATOM     14  C   UNL     1       2.964   5.945  19.727  0.00  0.00    +0.000 C 
BRANCH  14  15
ATOM     15  C   UNL     1       2.311   6.350  18.408  0.00  0.00    +0.000 C 
BRANCH  15  16
ATOM     16  S   UNL     1       2.800   8.050  17.910  0.00  0.00    +0.000 S 
BRANCH  16  17
ATOM     17  C   UNL     1       1.185   8.887  18.054  0.00  0.00    +0.000 C 
BRANCH  17  18
ATOM     18  C   UNL     1       1.339  10.240  18.747  0.00  0.00    +0.000 C 
BRANCH  18  19
ATOM     19  C   UNL     1       0.731  10.205  20.128  0.00  0.00    +0.000 A 
ATOM     20  C   UNL     1       0.071  11.330  20.643  0.00  0.00    +0.000 A 
ATOM     21  C   UNL     1      -0.476  11.301  21.926  0.00  0.00    +0.000 A 
ATOM     22  C   UNL     1      -0.363  10.154  22.708  0.00  0.00    +0.000 A 
ATOM     23  C   UNL     1       0.302   9.035  22.212  0.00  0.00    +0.000 A 
ATOM     24  C   UNL     1       0.849   9.061  20.928  0.00  0.00    +0.000 A 
ENDBRANCH  18  19
ENDBRANCH  17  18
ENDBRANCH  16  17
ENDBRANCH  15  16
ENDBRANCH  14  15
ENDBRANCH   6  14
TORSDOF 7
ENDMDL
MODEL 6
REMARK VINA RESULT:      -6.9      1.639      2.274
REMARK  Name = 
REMARK  7 active torsions:
REMARK  status: ('A' for Active; 'I' for Inactive)
REMARK    1  A    between atoms: C_5  and  C_6
REMARK    2  A    between atoms: N_12  and  C_13
REMARK    3  A    between atoms: C_13  and  C_14
REMARK    4  A    between atoms: C_14  and  S_15
REMARK    5  A    between atoms: S_15  and  C_16
REMARK    6  A    between atoms: C_16  and  C_17
REMARK    7  A    between atoms: C_17  and  C_18
REMARK                            x       y       z     vdW  Elec       q    Type
REMARK                         _______ _______ _______ _____ _____    ______ ____
ROOT
ATOM      1  S   UNL     1       6.935   6.905  17.427  0.00  0.00    +0.000 S 
ATOM      2  C   UNL     1       5.958   5.766  18.129  0.00  0.00    +0.000 A 
ATOM      3  N   UNL     1       6.471   4.827  19.008  0.00  0.00    +0.000 N 
ATOM      4  N   UNL     1       5.492   4.025  19.484  0.00  0.00    +0.000 NA
ATOM      5  C   UNL     1       4.409   4.438  18.890  0.00  0.00    +0.000 A 
ATOM      6  N   UNL     1       4.604   5.510  18.039  0.00  0.00    +0.000 N 
ATOM      7  H   UNL     1       7.432   4.753  19.316  0.00  0.00    +0.000 HD
ENDROOT
BRANCH   5   8
ATOM      8  C   UNL     1       3.096   3.803  19.179  0.00  0.00    +0.000 A 
ATOM      9  C   UNL     1       2.647   3.800  20.509  0.00  0.00    +0.000 A 
ATOM     10  C   UNL     1       1.446   3.173  20.854  0.00  0.00    +0.000 A 
ATOM     11  C   UNL     1       0.676   2.555  19.872  0.00  0.00    +0.000 A 
ATOM     12  C   UNL     1       1.122   2.535  18.552  0.00  0.00    +0.000 A 
ATOM     13  C   UNL     1       2.340   3.132  18.213  0.00  0.00    +0.000 A 
ENDBRANCH   5   8
BRANCH   6  14
ATOM     14  C   UNL     1       3.531   6.296  17.419  0.00  0.00    +0.000 C 
BRANCH  14  15
ATOM     15  C   UNL     1       3.121   7.652  17.988  0.00  0.00    +0.000 C 
BRANCH  15  16
ATOM     16  S   UNL     1       2.271   7.471  19.607  0.00  0.00    +0.000 S 
BRANCH  16  17
ATOM     17  C   UNL     1       1.283   9.004  19.607  0.00  0.00    +0.000 C 
BRANCH  17  18
ATOM     18  C   UNL     1       1.001   9.464  18.178  0.00  0.00    +0.000 C 
BRANCH  18  19
ATOM     19  C   UNL     1      -0.293  10.239  18.111  0.00  0.00    +0.000 A 
ATOM     20  C   UNL     1      -0.428  11.457  18.791  0.00  0.00    +0.000 A 
ATOM     21  C   UNL     1      -1.630  12.164  18.740  0.00  0.00    +0.000 A 
ATOM     22  C   UNL     1      -2.709  11.657  18.018  0.00  0.00    +0.000 A 
ATOM     23  C   UNL     1      -2.590  10.439  17.350  0.00  0.00    +0.000 A 
ATOM     24  C   UNL     1      -1.388   9.732  17.398  0.00  0.00    +0.000 A 
ENDBRANCH  18  19
ENDBRANCH  17  18
ENDBRANCH  16  17
ENDBRANCH  15  16
ENDBRANCH  14  15
ENDBRANCH   6  14
TORSDOF 7
ENDMDL
MODEL 7
REMARK VINA RESULT:      -6.7      1.849      3.715
REMARK  Name = 
REMARK  7 active torsions:
REMARK  status: ('A' for Active; 'I' for Inactive)
REMARK    1  A    between atoms: C_5  and  C_6
REMARK    2  A    between atoms: N_12  and  C_13
REMARK    3  A    between atoms: C_13  and  C_14
REMARK    4  A    between atoms: C_14  and  S_15
REMARK    5  A    between atoms: S_15  and  C_16
REMARK    6  A    between atoms: C_16  and  C_17
REMARK    7  A    between atoms: C_17  and  C_18
REMARK                            x       y       z     vdW  Elec       q    Type
REMARK                         _______ _______ _______ _____ _____    ______ ____
ROOT
ATOM      1  S   UNL     1       1.416   4.409  20.816  0.00  0.00    +0.000 S 
ATOM      2  C   UNL     1       2.738   4.150  19.852  0.00  0.00    +0.000 A 
ATOM      3  N   UNL     1       3.515   3.012  19.995  0.00  0.00    +0.000 N 
ATOM      4  N   UNL     1       4.515   2.993  19.084  0.00  0.00    +0.000 NA
ATOM      5  C   UNL     1       4.376   4.103  18.418  0.00  0.00    +0.000 A 
ATOM      6  N   UNL     1       3.304   4.877  18.824  0.00  0.00    +0.000 N 
ATOM      7  H   UNL     1       3.358   2.253  20.645  0.00  0.00    +0.000 HD
ENDROOT
BRANCH   5   8
ATOM      8  C   UNL     1       5.294   4.436  17.296  0.00  0.00    +0.000 A 
ATOM      9  C   UNL     1       5.048   3.840  16.050  0.00  0.00    +0.000 A 
ATOM     10  C   UNL     1       5.904   4.070  14.969  0.00  0.00    +0.000 A 
ATOM     11  C   UNL     1       7.006   4.907  15.120  0.00  0.00    +0.000 A 
ATOM     12  C   UNL     1       7.272   5.488  16.359  0.00  0.00    +0.000 A 
ATOM     13  C   UNL     1       6.434   5.229  17.449  0.00  0.00    +0.000 A 
ENDBRANCH   5   8
BRANCH   6  14
ATOM     14  C   UNL     1       2.801   6.056  18.110  0.00  0.00    +0.000 C 
BRANCH  14  15
ATOM     15  C   UNL     1       2.451   7.338  18.861  0.00  0.00    +0.000 C 
BRANCH  15  16
ATOM     16  S   UNL     1       1.868   8.651  17.714  0.00  0.00    +0.000 S 
BRANCH  16  17
ATOM     17  C   UNL     1       1.540   9.984  18.916  0.00  0.00    +0.000 C 
BRANCH  17  18
ATOM     18  C   UNL     1       0.038  10.216  19.067  0.00  0.00    +0.000 C 
BRANCH  18  19
ATOM     19  C   UNL     1      -0.346  10.297  20.524  0.00  0.00    +0.000 A 
ATOM     20  C   UNL     1      -0.938  11.458  21.040  0.00  0.00    +0.000 A 
ATOM     21  C   UNL     1      -1.278  11.536  22.391  0.00  0.00    +0.000 A 
ATOM     22  C   UNL     1      -1.024  10.460  23.239  0.00  0.00    +0.000 A 
ATOM     23  C   UNL     1      -0.424   9.306  22.739  0.00  0.00    +0.000 A 
ATOM     24  C   UNL     1      -0.084   9.225  21.388  0.00  0.00    +0.000 A 
ENDBRANCH  18  19
ENDBRANCH  17  18
ENDBRANCH  16  17
ENDBRANCH  15  16
ENDBRANCH  14  15
ENDBRANCH   6  14
TORSDOF 7
ENDMDL
MODEL 8
REMARK VINA RESULT:      -6.7      3.538      7.752
REMARK  Name = 
REMARK  7 active torsions:
REMARK  status: ('A' for Active; 'I' for Inactive)
REMARK    1  A    between atoms: C_5  and  C_6
REMARK    2  A    between atoms: N_12  and  C_13
REMARK    3  A    between atoms: C_13  and  C_14
REMARK    4  A    between atoms: C_14  and  S_15
REMARK    5  A    between atoms: S_15  and  C_16
REMARK    6  A    between atoms: C_16  and  C_17
REMARK    7  A    between atoms: C_17  and  C_18
REMARK                            x       y       z     vdW  Elec       q    Type
REMARK                         _______ _______ _______ _____ _____    ______ ____
ROOT
ATOM      1  S   UNL     1       4.094   1.289  18.202  0.00  0.00    +0.000 S 
ATOM      2  C   UNL     1       3.193   2.669  18.365  0.00  0.00    +0.000 A 
ATOM      3  N   UNL     1       1.819   2.651  18.187  0.00  0.00    +0.000 N 
ATOM      4  N   UNL     1       1.288   3.877  18.404  0.00  0.00    +0.000 NA
ATOM      5  C   UNL     1       2.311   4.635  18.680  0.00  0.00    +0.000 A 
ATOM      6  N   UNL     1       3.524   3.972  18.680  0.00  0.00    +0.000 N 
ATOM      7  H   UNL     1       1.250   1.843  17.973  0.00  0.00    +0.000 HD
ENDROOT
BRANCH   5   8
ATOM      8  C   UNL     1       2.123   6.074  19.003  0.00  0.00    +0.000 A 
ATOM      9  C   UNL     1       2.448   7.016  18.015  0.00  0.00    +0.000 A 
ATOM     10  C   UNL     1       2.344   8.386  18.275  0.00  0.00    +0.000 A 
ATOM     11  C   UNL     1       1.902   8.827  19.519  0.00  0.00    +0.000 A 
ATOM     12  C   UNL     1       1.597   7.901  20.514  0.00  0.00    +0.000 A 
ATOM     13  C   UNL     1       1.734   6.532  20.265  0.00  0.00    +0.000 A 
ENDBRANCH   5   8
BRANCH   6  14
ATOM     14  C   UNL     1       4.789   4.536  19.163  0.00  0.00    +0.000 C 
BRANCH  14  15
ATOM     15  C   UNL     1       6.030   4.557  18.273  0.00  0.00    +0.000 C 
BRANCH  15  16
ATOM     16  S   UNL     1       6.340   6.236  17.592  0.00  0.00    +0.000 S 
BRANCH  16  17
ATOM     17  C   UNL     1       5.399   6.113  16.034  0.00  0.00    +0.000 C 
BRANCH  17  18
ATOM     18  C   UNL     1       5.329   4.663  15.560  0.00  0.00    +0.000 C 
BRANCH  18  19
ATOM     19  C   UNL     1       6.067   4.490  14.255  0.00  0.00    +0.000 A 
ATOM     20  C   UNL     1       7.168   5.301  13.948  0.00  0.00    +0.000 A 
ATOM     21  C   UNL     1       7.839   5.151  12.734  0.00  0.00    +0.000 A 
ATOM     22  C   UNL     1       7.412   4.196  11.813  0.00  0.00    +0.000 A 
ATOM     23  C   UNL     1       6.310   3.393  12.102  0.00  0.00    +0.000 A 
ATOM     24  C   UNL     1       5.638   3.541  13.316  0.00  0.00    +0.000 A 
ENDBRANCH  18  19
ENDBRANCH  17  18
ENDBRANCH  16  17
ENDBRANCH  15  16
ENDBRANCH  14  15
ENDBRANCH   6  14
TORSDOF 7
ENDMDL
MODEL 9
REMARK VINA RESULT:      -6.7      3.057      4.852
REMARK  Name = 
REMARK  7 active torsions:
REMARK  status: ('A' for Active; 'I' for Inactive)
REMARK    1  A    between atoms: C_5  and  C_6
REMARK    2  A    between atoms: N_12  and  C_13
REMARK    3  A    between atoms: C_13  and  C_14
REMARK    4  A    between atoms: C_14  and  S_15
REMARK    5  A    between atoms: S_15  and  C_16
REMARK    6  A    between atoms: C_16  and  C_17
REMARK    7  A    between atoms: C_17  and  C_18
REMARK                            x       y       z     vdW  Elec       q    Type
REMARK                         _______ _______ _______ _____ _____    ______ ____
ROOT
ATOM      1  S   UNL     1       1.044   8.343  21.272  0.00  0.00    +0.000 S 
ATOM      2  C   UNL     1       1.959   7.297  20.370  0.00  0.00    +0.000 A 
ATOM      3  N   UNL     1       2.224   6.012  20.815  0.00  0.00    +0.000 N 
ATOM      4  N   UNL     1       2.955   5.327  19.906  0.00  0.00    +0.000 NA
ATOM      5  C   UNL     1       3.159   6.177  18.939  0.00  0.00    +0.000 A 
ATOM      6  N   UNL     1       2.579   7.415  19.142  0.00  0.00    +0.000 N 
ATOM      7  H   UNL     1       1.892   5.592  21.673  0.00  0.00    +0.000 HD
ENDROOT
BRANCH   5   8
ATOM      8  C   UNL     1       3.921   5.777  17.726  0.00  0.00    +0.000 A 
ATOM      9  C   UNL     1       3.937   4.417  17.382  0.00  0.00    +0.000 A 
ATOM     10  C   UNL     1       4.678   3.970  16.283  0.00  0.00    +0.000 A 
ATOM     11  C   UNL     1       5.397   4.879  15.512  0.00  0.00    +0.000 A 
ATOM     12  C   UNL     1       5.404   6.228  15.857  0.00  0.00    +0.000 A 
ATOM     13  C   UNL     1       4.692   6.670  16.977  0.00  0.00    +0.000 A 
ENDBRANCH   5   8
BRANCH   6  14
ATOM     14  C   UNL     1       2.476   8.470  18.127  0.00  0.00    +0.000 C 
BRANCH  14  15
ATOM     15  C   UNL     1       1.205   9.305  17.989  0.00  0.00    +0.000 C 
BRANCH  15  16
ATOM     16  S   UNL     1       1.473  11.035  18.550  0.00  0.00    +0.000 S 
BRANCH  16  17
ATOM     17  C   UNL     1      -0.240  11.485  18.985  0.00  0.00    +0.000 C 
BRANCH  17  18
ATOM     18  C   UNL     1      -1.162  10.273  18.870  0.00  0.00    +0.000 C 
BRANCH  18  19
ATOM     19  C   UNL     1      -2.236  10.513  17.837  0.00  0.00    +0.000 A 
ATOM     20  C   UNL     1      -2.140   9.935  16.563  0.00  0.00    +0.000 A 
ATOM     21  C   UNL     1      -3.126  10.171  15.605  0.00  0.00    +0.000 A 
ATOM     22  C   UNL     1      -4.210  10.993  15.906  0.00  0.00    +0.000 A 
ATOM     23  C   UNL     1      -4.309  11.584  17.164  0.00  0.00    +0.000 A 
ATOM     24  C   UNL     1      -3.324  11.348  18.125  0.00  0.00    +0.000 A 
ENDBRANCH  18  19
ENDBRANCH  17  18
ENDBRANCH  16  17
ENDBRANCH  15  16
ENDBRANCH  14  15
ENDBRANCH   6  14
TORSDOF 7
ENDMDL
