MODEL 1
REMARK VINA RESULT:      -6.7      0.000      0.000
REMARK  Name = 
REMARK  5 active torsions:
REMARK  status: ('A' for Active; 'I' for Inactive)
REMARK    1  A    between atoms: C_1  and  O_2
REMARK    2  A    between atoms: O_2  and  C_3
REMARK    3  A    between atoms: N_10  and  N_11
REMARK    4  A    between atoms: N_11  and  C_12
REMARK    5  A    between atoms: C_12  and  N_13
REMARK                            x       y       z     vdW  Elec       q    Type
REMARK                         _______ _______ _______ _____ _____    ______ ____
ROOT
ATOM      1  C   UNL     1       5.548   6.265  16.759  0.00  0.00    +0.000 A 
ATOM      2  C   UNL     1       5.588   5.061  16.054  0.00  0.00    +0.000 A 
ATOM      3  C   UNL     1       4.670   4.051  16.349  0.00  0.00    +0.000 A 
ATOM      4  C   UNL     1       3.684   4.246  17.332  0.00  0.00    +0.000 A 
ATOM      5  C   UNL     1       3.629   5.471  18.009  0.00  0.00    +0.000 A 
ATOM      6  C   UNL     1       4.561   6.471  17.713  0.00  0.00    +0.000 A 
ATOM      7  C   UNL     1       2.584   5.740  19.046  0.00  0.00    +0.000 C 
ATOM      8  N   UNL     1       2.625   6.878  19.681  0.00  0.00    +0.000 NA
ATOM      9  C   UNL     1       1.576   4.632  19.315  0.00  0.00    +0.000 C 
ATOM     10  C   UNL     1       1.399   3.692  18.130  0.00  0.00    +0.000 C 
ATOM     11  C   UNL     1       2.735   3.134  17.667  0.00  0.00    +0.000 C 
ENDROOT
BRANCH   1  13
ATOM     12  C   UNL     1       7.512   7.373  17.422  0.00  0.00    +0.000 C 
ATOM     13  O   UNL     1       6.499   7.195  16.430  0.00  0.00    +0.000 OA
ENDBRANCH   1  13
BRANCH   8  14
ATOM     14  N   UNL     1       1.707   7.141  20.651  0.00  0.00    +0.000 N 
ATOM     15  H   UNL     1       1.220   6.398  21.134  0.00  0.00    +0.000 HD
BRANCH  14  16
ATOM     16  C   UNL     1       1.404   8.426  21.008  0.00  0.00    +0.000 C 
ATOM     17  S   UNL     1       0.656   9.479  19.969  0.00  0.00    +0.000 S 
BRANCH  16  18
ATOM     18  N   UNL     1       1.750   8.788  22.265  0.00  0.00    +0.000 N 
ATOM     19  H   UNL     1       1.625   8.099  22.995  0.00  0.00    +0.000 HD
ATOM     20  H   UNL     1       2.179   9.681  22.460  0.00  0.00    +0.000 HD
ENDBRANCH  16  18
ENDBRANCH  14  16
ENDBRANCH   8  14
TORSDOF 4
ENDMDL
MODEL 2
REMARK VINA RESULT:      -6.6      3.911      5.594
REMARK  Name = 
REMARK  5 active torsions:
REMARK  status: ('A' for Active; 'I' for Inactive)
REMARK    1  A    between atoms: C_1  and  O_2
REMARK    2  A    between atoms: O_2  and  C_3
REMARK    3  A    between atoms: N_10  and  N_11
REMARK    4  A    between atoms: N_11  and  C_12
REMARK    5  A    between atoms: C_12  and  N_13
REMARK                            x       y       z     vdW  Elec       q    Type
REMARK                         _______ _______ _______ _____ _____    ______ ____
ROOT
ATOM      1  C   UNL     1       2.252   6.355  19.836  0.00  0.00    +0.000 A 
ATOM      2  C   UNL     1       1.277   5.670  20.561  0.00  0.00    +0.000 A 
ATOM      3  C   UNL     1       1.125   4.292  20.395  0.00  0.00    +0.000 A 
ATOM      4  C   UNL     1       1.968   3.579  19.524  0.00  0.00    +0.000 A 
ATOM      5  C   UNL     1       2.968   4.270  18.828  0.00  0.00    +0.000 A 
ATOM      6  C   UNL     1       3.103   5.653  18.993  0.00  0.00    +0.000 A 
ATOM      7  C   UNL     1       3.909   3.557  17.908  0.00  0.00    +0.000 C 
ATOM      8  N   UNL     1       4.779   4.266  17.244  0.00  0.00    +0.000 NA
ATOM      9  C   UNL     1       3.741   2.049  17.780  0.00  0.00    +0.000 C 
ATOM     10  C   UNL     1       3.079   1.422  19.000  0.00  0.00    +0.000 C 
ATOM     11  C   UNL     1       1.762   2.107  19.324  0.00  0.00    +0.000 C 
ENDROOT
BRANCH   1  13
ATOM     12  C   UNL     1       1.331   8.220  20.930  0.00  0.00    +0.000 C 
ATOM     13  O   UNL     1       2.320   7.709  20.034  0.00  0.00    +0.000 OA
ENDBRANCH   1  13
BRANCH   8  14
ATOM     14  N   UNL     1       5.628   3.652  16.377  0.00  0.00    +0.000 N 
ATOM     15  H   UNL     1       5.465   2.705  16.057  0.00  0.00    +0.000 HD
BRANCH  14  16
ATOM     16  C   UNL     1       6.742   4.290  15.905  0.00  0.00    +0.000 C 
ATOM     17  S   UNL     1       6.861   4.813  14.335  0.00  0.00    +0.000 S 
BRANCH  16  18
ATOM     18  N   UNL     1       7.742   4.474  16.797  0.00  0.00    +0.000 N 
ATOM     19  H   UNL     1       7.743   5.340  17.318  0.00  0.00    +0.000 HD
ATOM     20  H   UNL     1       8.420   3.751  16.987  0.00  0.00    +0.000 HD
ENDBRANCH  16  18
ENDBRANCH  14  16
ENDBRANCH   8  14
TORSDOF 4
ENDMDL
MODEL 3
REMARK VINA RESULT:      -6.5      1.468      1.739
REMARK  Name = 
REMARK  5 active torsions:
REMARK  status: ('A' for Active; 'I' for Inactive)
REMARK    1  A    between atoms: C_1  and  O_2
REMARK    2  A    between atoms: O_2  and  C_3
REMARK    3  A    between atoms: N_10  and  N_11
REMARK    4  A    between atoms: N_11  and  C_12
REMARK    5  A    between atoms: C_12  and  N_13
REMARK                            x       y       z     vdW  Elec       q    Type
REMARK                         _______ _______ _______ _____ _____    ______ ____
ROOT
ATOM      1  C   UNL     1       4.500   5.279  16.836  0.00  0.00    +0.000 A 
ATOM      2  C   UNL     1       4.451   3.907  16.591  0.00  0.00    +0.000 A 
ATOM      3  C   UNL     1       3.696   3.077  17.423  0.00  0.00    +0.000 A 
ATOM      4  C   UNL     1       2.958   3.617  18.492  0.00  0.00    +0.000 A 
ATOM      5  C   UNL     1       2.984   5.001  18.707  0.00  0.00    +0.000 A 
ATOM      6  C   UNL     1       3.753   5.820  17.874  0.00  0.00    +0.000 A 
ATOM      7  C   UNL     1       2.197   5.630  19.814  0.00  0.00    +0.000 C 
ATOM      8  N   UNL     1       2.312   6.916  19.998  0.00  0.00    +0.000 NA
ATOM      9  C   UNL     1       1.355   4.702  20.678  0.00  0.00    +0.000 C 
ATOM     10  C   UNL     1       0.966   3.417  19.960  0.00  0.00    +0.000 C 
ATOM     11  C   UNL     1       2.189   2.707  19.402  0.00  0.00    +0.000 C 
ENDROOT
BRANCH   1  13
ATOM     12  C   UNL     1       5.933   5.258  14.974  0.00  0.00    +0.000 C 
ATOM     13  O   UNL     1       5.284   6.021  15.992  0.00  0.00    +0.000 OA
ENDBRANCH   1  13
BRANCH   8  14
ATOM     14  N   UNL     1       1.633   7.514  21.014  0.00  0.00    +0.000 N 
ATOM     15  H   UNL     1       1.511   7.059  21.910  0.00  0.00    +0.000 HD
BRANCH  14  16
ATOM     16  C   UNL     1       1.083   8.757  20.863  0.00  0.00    +0.000 C 
ATOM     17  S   UNL     1       0.396   9.579  22.129  0.00  0.00    +0.000 S 
BRANCH  16  18
ATOM     18  N   UNL     1       1.135   9.280  19.616  0.00  0.00    +0.000 N 
ATOM     19  H   UNL     1       1.774   8.849  18.961  0.00  0.00    +0.000 HD
ATOM     20  H   UNL     1       0.516  10.023  19.328  0.00  0.00    +0.000 HD
ENDBRANCH  16  18
ENDBRANCH  14  16
ENDBRANCH   8  14
TORSDOF 4
ENDMDL
MODEL 4
REMARK VINA RESULT:      -6.5      3.640      5.524
REMARK  Name = 
REMARK  5 active torsions:
REMARK  status: ('A' for Active; 'I' for Inactive)
REMARK    1  A    between atoms: C_1  and  O_2
REMARK    2  A    between atoms: O_2  and  C_3
REMARK    3  A    between atoms: N_10  and  N_11
REMARK    4  A    between atoms: N_11  and  C_12
REMARK    5  A    between atoms: C_12  and  N_13
REMARK                            x       y       z     vdW  Elec       q    Type
REMARK                         _______ _______ _______ _____ _____    ______ ____
ROOT
ATOM      1  C   UNL     1       2.054   6.763  19.993  0.00  0.00    +0.000 A 
ATOM      2  C   UNL     1       1.263   5.890  20.741  0.00  0.00    +0.000 A 
ATOM      3  C   UNL     1       1.269   4.524  20.452  0.00  0.00    +0.000 A 
ATOM      4  C   UNL     1       2.089   4.012  19.432  0.00  0.00    +0.000 A 
ATOM      5  C   UNL     1       2.907   4.891  18.710  0.00  0.00    +0.000 A 
ATOM      6  C   UNL     1       2.885   6.260  19.001  0.00  0.00    +0.000 A 
ATOM      7  C   UNL     1       3.818   4.397  17.631  0.00  0.00    +0.000 C 
ATOM      8  N   UNL     1       4.509   5.273  16.957  0.00  0.00    +0.000 NA
ATOM      9  C   UNL     1       3.829   2.897  17.368  0.00  0.00    +0.000 C 
ATOM     10  C   UNL     1       3.396   2.082  18.579  0.00  0.00    +0.000 C 
ATOM     11  C   UNL     1       2.049   2.549  19.105  0.00  0.00    +0.000 C 
ENDROOT
BRANCH   1  13
ATOM     12  C   UNL     1       1.128   8.368  21.438  0.00  0.00    +0.000 C 
ATOM     13  O   UNL     1       1.973   8.091  20.320  0.00  0.00    +0.000 OA
ENDBRANCH   1  13
BRANCH   8  14
ATOM     14  N   UNL     1       5.324   4.859  15.949  0.00  0.00    +0.000 N 
ATOM     15  H   UNL     1       4.950   4.471  15.092  0.00  0.00    +0.000 HD
BRANCH  14  16
ATOM     16  C   UNL     1       6.685   4.947  16.057  0.00  0.00    +0.000 C 
ATOM     17  S   UNL     1       7.475   4.687  17.491  0.00  0.00    +0.000 S 
BRANCH  16  18
ATOM     18  N   UNL     1       7.349   5.257  14.920  0.00  0.00    +0.000 N 
ATOM     19  H   UNL     1       6.833   5.750  14.203  0.00  0.00    +0.000 HD
ATOM     20  H   UNL     1       8.335   5.069  14.816  0.00  0.00    +0.000 HD
ENDBRANCH  16  18
ENDBRANCH  14  16
ENDBRANCH   8  14
TORSDOF 4
ENDMDL
MODEL 5
REMARK VINA RESULT:      -6.4      3.217      4.523
REMARK  Name = 
REMARK  5 active torsions:
REMARK  status: ('A' for Active; 'I' for Inactive)
REMARK    1  A    between atoms: C_1  and  O_2
REMARK    2  A    between atoms: O_2  and  C_3
REMARK    3  A    between atoms: N_10  and  N_11
REMARK    4  A    between atoms: N_11  and  C_12
REMARK    5  A    between atoms: C_12  and  N_13
REMARK                            x       y       z     vdW  Elec       q    Type
REMARK                         _______ _______ _______ _____ _____    ______ ____
ROOT
ATOM      1  C   UNL     1       5.681   4.228  14.422  0.00  0.00    +0.000 A 
ATOM      2  C   UNL     1       6.951   4.790  14.555  0.00  0.00    +0.000 A 
ATOM      3  C   UNL     1       7.338   5.356  15.772  0.00  0.00    +0.000 A 
ATOM      4  C   UNL     1       6.469   5.338  16.877  0.00  0.00    +0.000 A 
ATOM      5  C   UNL     1       5.210   4.739  16.744  0.00  0.00    +0.000 A 
ATOM      6  C   UNL     1       4.829   4.186  15.517  0.00  0.00    +0.000 A 
ATOM      7  C   UNL     1       4.256   4.671  17.895  0.00  0.00    +0.000 C 
ATOM      8  N   UNL     1       3.077   4.154  17.689  0.00  0.00    +0.000 NA
ATOM      9  C   UNL     1       4.724   5.262  19.217  0.00  0.00    +0.000 C 
ATOM     10  C   UNL     1       6.241   5.289  19.349  0.00  0.00    +0.000 C 
ATOM     11  C   UNL     1       6.883   5.990  18.163  0.00  0.00    +0.000 C 
ENDROOT
BRANCH   1  13
ATOM     12  C   UNL     1       6.490   3.551  12.321  0.00  0.00    +0.000 C 
ATOM     13  O   UNL     1       5.367   3.718  13.189  0.00  0.00    +0.000 OA
ENDBRANCH   1  13
BRANCH   8  14
ATOM     14  N   UNL     1       2.176   4.104  18.707  0.00  0.00    +0.000 N 
ATOM     15  H   UNL     1       1.709   4.937  19.042  0.00  0.00    +0.000 HD
BRANCH  14  16
ATOM     16  C   UNL     1       1.867   2.921  19.322  0.00  0.00    +0.000 C 
ATOM     17  S   UNL     1       1.563   2.826  20.949  0.00  0.00    +0.000 S 
BRANCH  16  18
ATOM     18  N   UNL     1       1.820   1.832  18.521  0.00  0.00    +0.000 N 
ATOM     19  H   UNL     1       2.002   0.935  18.951  0.00  0.00    +0.000 HD
ATOM     20  H   UNL     1       1.549   1.900  17.552  0.00  0.00    +0.000 HD
ENDBRANCH  16  18
ENDBRANCH  14  16
ENDBRANCH   8  14
TORSDOF 4
ENDMDL
MODEL 6
REMARK VINA RESULT:      -6.4      1.499      1.735
REMARK  Name = 
REMARK  5 active torsions:
REMARK  status: ('A' for Active; 'I' for Inactive)
REMARK    1  A    between atoms: C_1  and  O_2
REMARK    2  A    between atoms: O_2  and  C_3
REMARK    3  A    between atoms: N_10  and  N_11
REMARK    4  A    between atoms: N_11  and  C_12
REMARK    5  A    between atoms: C_12  and  N_13
REMARK                            x       y       z     vdW  Elec       q    Type
REMARK                         _______ _______ _______ _____ _____    ______ ____
ROOT
ATOM      1  C   UNL     1       6.716   6.312  16.835  0.00  0.00    +0.000 A 
ATOM      2  C   UNL     1       6.947   4.973  16.520  0.00  0.00    +0.000 A 
ATOM      3  C   UNL     1       5.947   4.023  16.739  0.00  0.00    +0.000 A 
ATOM      4  C   UNL     1       4.695   4.408  17.249  0.00  0.00    +0.000 A 
ATOM      5  C   UNL     1       4.459   5.760  17.528  0.00  0.00    +0.000 A 
ATOM      6  C   UNL     1       5.472   6.701  17.315  0.00  0.00    +0.000 A 
ATOM      7  C   UNL     1       3.136   6.228  18.048  0.00  0.00    +0.000 C 
ATOM      8  N   UNL     1       3.001   7.490  18.344  0.00  0.00    +0.000 NA
ATOM      9  C   UNL     1       2.056   5.172  18.239  0.00  0.00    +0.000 C 
ATOM     10  C   UNL     1       2.256   3.953  17.349  0.00  0.00    +0.000 C 
ATOM     11  C   UNL     1       3.648   3.368  17.521  0.00  0.00    +0.000 C 
ENDROOT
BRANCH   1  13
ATOM     12  C   UNL     1       7.873   8.210  17.597  0.00  0.00    +0.000 C 
ATOM     13  O   UNL     1       7.755   7.178  16.616  0.00  0.00    +0.000 OA
ENDBRANCH   1  13
BRANCH   8  14
ATOM     14  N   UNL     1       1.821   7.942  18.847  0.00  0.00    +0.000 N 
ATOM     15  H   UNL     1       1.154   7.314  19.278  0.00  0.00    +0.000 HD
BRANCH  14  16
ATOM     16  C   UNL     1       1.486   9.267  18.786  0.00  0.00    +0.000 C 
ATOM     17  S   UNL     1       0.719  10.042  20.036  0.00  0.00    +0.000 S 
BRANCH  16  18
ATOM     18  N   UNL     1       1.820   9.910  17.644  0.00  0.00    +0.000 N 
ATOM     19  H   UNL     1       1.853  10.920  17.675  0.00  0.00    +0.000 HD
ATOM     20  H   UNL     1       2.093   9.406  16.814  0.00  0.00    +0.000 HD
ENDBRANCH  16  18
ENDBRANCH  14  16
ENDBRANCH   8  14
TORSDOF 4
ENDMDL
MODEL 7
REMARK VINA RESULT:      -6.4      4.882      7.006
REMARK  Name = 
REMARK  5 active torsions:
REMARK  status: ('A' for Active; 'I' for Inactive)
REMARK    1  A    between atoms: C_1  and  O_2
REMARK    2  A    between atoms: O_2  and  C_3
REMARK    3  A    between atoms: N_10  and  N_11
REMARK    4  A    between atoms: N_11  and  C_12
REMARK    5  A    between atoms: C_12  and  N_13
REMARK                            x       y       z     vdW  Elec       q    Type
REMARK                         _______ _______ _______ _____ _____    ______ ____
ROOT
ATOM      1  C   UNL     1       2.736   3.759  17.789  0.00  0.00    +0.000 A 
ATOM      2  C   UNL     1       3.094   4.274  19.036  0.00  0.00    +0.000 A 
ATOM      3  C   UNL     1       4.363   4.824  19.223  0.00  0.00    +0.000 A 
ATOM      4  C   UNL     1       5.278   4.892  18.158  0.00  0.00    +0.000 A 
ATOM      5  C   UNL     1       4.897   4.405  16.901  0.00  0.00    +0.000 A 
ATOM      6  C   UNL     1       3.626   3.846  16.728  0.00  0.00    +0.000 A 
ATOM      7  C   UNL     1       5.822   4.475  15.727  0.00  0.00    +0.000 C 
ATOM      8  N   UNL     1       5.429   3.951  14.600  0.00  0.00    +0.000 NA
ATOM      9  C   UNL     1       7.183   5.116  15.956  0.00  0.00    +0.000 C 
ATOM     10  C   UNL     1       7.187   6.095  17.123  0.00  0.00    +0.000 C 
ATOM     11  C   UNL     1       6.653   5.445  18.388  0.00  0.00    +0.000 C 
ENDROOT
BRANCH   1  13
ATOM     12  C   UNL     1       1.016   2.604  18.898  0.00  0.00    +0.000 C 
ATOM     13  O   UNL     1       1.483   3.212  17.693  0.00  0.00    +0.000 OA
ENDBRANCH   1  13
BRANCH   8  14
ATOM     14  N   UNL     1       6.258   3.972  13.521  0.00  0.00    +0.000 N 
ATOM     15  H   UNL     1       7.118   4.505  13.525  0.00  0.00    +0.000 HD
BRANCH  14  16
ATOM     16  C   UNL     1       5.958   3.273  12.384  0.00  0.00    +0.000 C 
ATOM     17  S   UNL     1       4.462   3.344  11.673  0.00  0.00    +0.000 S 
BRANCH  16  18
ATOM     18  N   UNL     1       6.958   2.520  11.871  0.00  0.00    +0.000 N 
ATOM     19  H   UNL     1       7.309   2.778  10.958  0.00  0.00    +0.000 HD
ATOM     20  H   UNL     1       7.386   1.776  12.402  0.00  0.00    +0.000 HD
ENDBRANCH  16  18
ENDBRANCH  14  16
ENDBRANCH   8  14
TORSDOF 4
ENDMDL
MODEL 8
REMARK VINA RESULT:      -6.3      4.019      5.911
REMARK  Name = 
REMARK  5 active torsions:
REMARK  status: ('A' for Active; 'I' for Inactive)
REMARK    1  A    between atoms: C_1  and  O_2
REMARK    2  A    between atoms: O_2  and  C_3
REMARK    3  A    between atoms: N_10  and  N_11
REMARK    4  A    between atoms: N_11  and  C_12
REMARK    5  A    between atoms: C_12  and  N_13
REMARK                            x       y       z     vdW  Elec       q    Type
REMARK                         _______ _______ _______ _____ _____    ______ ____
ROOT
ATOM      1  C   UNL     1       2.281   3.313  19.678  0.00  0.00    +0.000 A 
ATOM      2  C   UNL     1       1.496   4.023  20.586  0.00  0.00    +0.000 A 
ATOM      3  C   UNL     1       1.471   5.419  20.542  0.00  0.00    +0.000 A 
ATOM      4  C   UNL     1       2.208   6.117  19.569  0.00  0.00    +0.000 A 
ATOM      5  C   UNL     1       2.964   5.394  18.639  0.00  0.00    +0.000 A 
ATOM      6  C   UNL     1       2.991   3.996  18.700  0.00  0.00    +0.000 A 
ATOM      7  C   UNL     1       3.748   6.085  17.567  0.00  0.00    +0.000 C 
ATOM      8  N   UNL     1       4.478   5.358  16.770  0.00  0.00    +0.000 NA
ATOM      9  C   UNL     1       3.667   7.605  17.523  0.00  0.00    +0.000 C 
ATOM     10  C   UNL     1       2.391   8.148  18.153  0.00  0.00    +0.000 C 
ATOM     11  C   UNL     1       2.205   7.617  19.565  0.00  0.00    +0.000 C 
ENDROOT
BRANCH   1  13
ATOM     12  C   UNL     1       3.189   1.276  18.935  0.00  0.00    +0.000 C 
ATOM     13  O   UNL     1       2.274   1.948  19.802  0.00  0.00    +0.000 OA
ENDBRANCH   1  13
BRANCH   8  14
ATOM     14  N   UNL     1       5.225   5.958  15.804  0.00  0.00    +0.000 N 
ATOM     15  H   UNL     1       5.002   6.883  15.461  0.00  0.00    +0.000 HD
BRANCH  14  16
ATOM     16  C   UNL     1       6.310   5.330  15.255  0.00  0.00    +0.000 C 
ATOM     17  S   UNL     1       6.154   4.121  14.131  0.00  0.00    +0.000 S 
BRANCH  16  18
ATOM     18  N   UNL     1       7.520   5.758  15.682  0.00  0.00    +0.000 N 
ATOM     19  H   UNL     1       7.538   6.355  16.498  0.00  0.00    +0.000 HD
ATOM     20  H   UNL     1       8.375   5.442  15.250  0.00  0.00    +0.000 HD
ENDBRANCH  16  18
ENDBRANCH  14  16
ENDBRANCH   8  14
TORSDOF 4
ENDMDL
MODEL 9
REMARK VINA RESULT:      -6.3      4.765      6.698
REMARK  Name = 
REMARK  5 active torsions:
REMARK  status: ('A' for Active; 'I' for Inactive)
REMARK    1  A    between atoms: C_1  and  O_2
REMARK    2  A    between atoms: O_2  and  C_3
REMARK    3  A    between atoms: N_10  and  N_11
REMARK    4  A    between atoms: N_11  and  C_12
REMARK    5  A    between atoms: C_12  and  N_13
REMARK                            x       y       z     vdW  Elec       q    Type
REMARK                         _______ _______ _______ _____ _____    ______ ____
ROOT
ATOM      1  C   UNL     1       2.445   3.829  18.088  0.00  0.00    +0.000 A 
ATOM      2  C   UNL     1       2.546   4.428  19.344  0.00  0.00    +0.000 A 
ATOM      3  C   UNL     1       3.766   4.962  19.764  0.00  0.00    +0.000 A 
ATOM      4  C   UNL     1       4.890   4.929  18.920  0.00  0.00    +0.000 A 
ATOM      5  C   UNL     1       4.769   4.359  17.646  0.00  0.00    +0.000 A 
ATOM      6  C   UNL     1       3.545   3.816  17.241  0.00  0.00    +0.000 A 
ATOM      7  C   UNL     1       5.926   4.320  16.699  0.00  0.00    +0.000 C 
ATOM      8  N   UNL     1       5.764   3.722  15.551  0.00  0.00    +0.000 NA
ATOM      9  C   UNL     1       7.230   4.946  17.173  0.00  0.00    +0.000 C 
ATOM     10  C   UNL     1       7.021   6.009  18.244  0.00  0.00    +0.000 C 
ATOM     11  C   UNL     1       6.204   5.467  19.405  0.00  0.00    +0.000 C 
ENDROOT
BRANCH   1  13
ATOM     12  C   UNL     1       0.601   2.564  18.812  0.00  0.00    +0.000 C 
ATOM     13  O   UNL     1       1.222   3.305  17.760  0.00  0.00    +0.000 OA
ENDBRANCH   1  13
BRANCH   8  14
ATOM     14  N   UNL     1       6.805   3.644  14.679  0.00  0.00    +0.000 N 
ATOM     15  H   UNL     1       7.690   3.230  14.946  0.00  0.00    +0.000 HD
BRANCH  14  16
ATOM     16  C   UNL     1       6.699   4.126  13.404  0.00  0.00    +0.000 C 
ATOM     17  S   UNL     1       5.785   3.367  12.246  0.00  0.00    +0.000 S 
BRANCH  16  18
ATOM     18  N   UNL     1       7.382   5.264  13.142  0.00  0.00    +0.000 N 
ATOM     19  H   UNL     1       6.889   6.139  13.267  0.00  0.00    +0.000 HD
ATOM     20  H   UNL     1       8.361   5.249  12.900  0.00  0.00    +0.000 HD
ENDBRANCH  16  18
ENDBRANCH  14  16
ENDBRANCH   8  14
TORSDOF 4
ENDMDL
