MODEL 1
REMARK VINA RESULT:      -8.7      0.000      0.000
REMARK  Name = 
REMARK  5 active torsions:
REMARK  status: ('A' for Active; 'I' for Inactive)
REMARK    1  A    between atoms: C_1  and  N_2
REMARK    2  A    between atoms: N_2  and  C_3
REMARK    3  A    between atoms: C_6  and  C_7
REMARK    4  A    between atoms: C_12  and  C_13
REMARK    5  A    between atoms: C_17  and  C_18
REMARK                            x       y       z     vdW  Elec       q    Type
REMARK                         _______ _______ _______ _____ _____    ______ ____
ROOT
ATOM      1  C   UNL     1       0.350   9.533  21.078  0.00  0.00    +0.000 C 
ATOM      2  O   UNL     1       0.746   8.635  21.817  0.00  0.00    +0.000 OA
ATOM      3  N   UNL     1       0.691   9.687  19.755  0.00  0.00    +0.000 N 
ATOM      4  C   UNL     1       1.533   8.799  19.140  0.00  0.00    +0.000 A 
ATOM      5  N   UNL     1       1.967   7.636  19.555  0.00  0.00    +0.000 NA
ATOM      6  C   UNL     1       2.843   7.099  18.624  0.00  0.00    +0.000 A 
ATOM      7  C   UNL     1       3.085   7.917  17.537  0.00  0.00    +0.000 A 
ATOM      8  S   UNL     1       2.104   9.322  17.622  0.00  0.00    +0.000 S 
ATOM      9  H   UNL     1       0.453  10.508  19.225  0.00  0.00    +0.000 HD
ENDROOT
BRANCH   6  10
ATOM     10  C   UNL     1       3.462   5.793  18.836  0.00  0.00    +0.000 A 
ATOM     11  C   UNL     1       4.773   5.710  19.325  0.00  0.00    +0.000 A 
ATOM     12  C   UNL     1       5.385   4.468  19.521  0.00  0.00    +0.000 A 
ATOM     13  C   UNL     1       4.689   3.292  19.236  0.00  0.00    +0.000 A 
ATOM     14  C   UNL     1       3.372   3.350  18.766  0.00  0.00    +0.000 A 
ATOM     15  C   UNL     1       2.777   4.598  18.579  0.00  0.00    +0.000 A 
ATOM     16  F   UNL     1       1.503   4.625  18.154  0.00  0.00    +0.000 F 
BRANCH  14  17
ATOM     17  C   UNL     1       2.576   2.120  18.459  0.00  0.00    +0.000 C 
ATOM     18  F   UNL     1       2.142   2.067  17.167  0.00  0.00    +0.000 F 
ATOM     19  F   UNL     1       3.279   0.972  18.656  0.00  0.00    +0.000 F 
ATOM     20  F   UNL     1       1.455   2.016  19.225  0.00  0.00    +0.000 F 
ENDBRANCH  14  17
ENDBRANCH   6  10
BRANCH   1  24
ATOM     21  C   UNL     1      -2.149  12.713  22.644  0.00  0.00    +0.000 A 
ATOM     22  C   UNL     1      -1.709  12.684  21.319  0.00  0.00    +0.000 A 
ATOM     23  C   UNL     1      -0.926  11.633  20.841  0.00  0.00    +0.000 A 
ATOM     24  C   UNL     1      -0.546  10.574  21.678  0.00  0.00    +0.000 A 
ATOM     25  C   UNL     1      -0.995  10.574  23.000  0.00  0.00    +0.000 A 
ATOM     26  C   UNL     1      -1.797  11.629  23.469  0.00  0.00    +0.000 A 
BRANCH  21  28
ATOM     27  C   UNL     1      -2.274  14.541  24.271  0.00  0.00    +0.000 C 
ATOM     28  N   UNL     1      -2.888  13.797  23.163  0.00  0.00    +0.000 N 
ATOM     29  C   UNL     1      -4.307  13.925  23.159  0.00  0.00    +0.000 A 
ATOM     30  C   UNL     1      -5.113  12.938  22.610  0.00  0.00    +0.000 A 
ATOM     31  C   UNL     1      -6.476  13.121  22.663  0.00  0.00    +0.000 A 
ATOM     32  N   UNL     1      -7.058  14.196  23.211  0.00  0.00    +0.000 NA
ATOM     33  C   UNL     1      -6.210  15.096  23.723  0.00  0.00    +0.000 A 
ATOM     34  N   UNL     1      -4.870  15.016  23.723  0.00  0.00    +0.000 NA
ENDBRANCH  21  28
ENDBRANCH   1  24
TORSDOF 4
ENDMDL
MODEL 2
REMARK VINA RESULT:      -8.5      2.724      3.450
REMARK  Name = 
REMARK  5 active torsions:
REMARK  status: ('A' for Active; 'I' for Inactive)
REMARK    1  A    between atoms: C_1  and  N_2
REMARK    2  A    between atoms: N_2  and  C_3
REMARK    3  A    between atoms: C_6  and  C_7
REMARK    4  A    between atoms: C_12  and  C_13
REMARK    5  A    between atoms: C_17  and  C_18
REMARK                            x       y       z     vdW  Elec       q    Type
REMARK                         _______ _______ _______ _____ _____    ______ ____
ROOT
ATOM      1  C   UNL     1       1.536   9.179  19.317  0.00  0.00    +0.000 C 
ATOM      2  O   UNL     1       2.341   9.378  18.409  0.00  0.00    +0.000 OA
ATOM      3  N   UNL     1       1.448   8.030  20.068  0.00  0.00    +0.000 N 
ATOM      4  C   UNL     1       2.300   6.981  19.847  0.00  0.00    +0.000 A 
ATOM      5  N   UNL     1       3.388   6.927  19.121  0.00  0.00    +0.000 NA
ATOM      6  C   UNL     1       3.910   5.644  19.147  0.00  0.00    +0.000 A 
ATOM      7  C   UNL     1       3.154   4.739  19.868  0.00  0.00    +0.000 A 
ATOM      8  S   UNL     1       1.839   5.538  20.627  0.00  0.00    +0.000 S 
ATOM      9  H   UNL     1       0.691   7.857  20.707  0.00  0.00    +0.000 HD
ENDROOT
BRANCH   6  10
ATOM     10  C   UNL     1       5.138   5.315  18.428  0.00  0.00    +0.000 A 
ATOM     11  C   UNL     1       6.363   5.281  19.110  0.00  0.00    +0.000 A 
ATOM     12  C   UNL     1       7.550   4.980  18.434  0.00  0.00    +0.000 A 
ATOM     13  C   UNL     1       7.524   4.703  17.067  0.00  0.00    +0.000 A 
ATOM     14  C   UNL     1       6.312   4.712  16.369  0.00  0.00    +0.000 A 
ATOM     15  C   UNL     1       5.137   5.011  17.060  0.00  0.00    +0.000 A 
ATOM     16  F   UNL     1       3.984   4.984  16.373  0.00  0.00    +0.000 F 
BRANCH  14  17
ATOM     17  C   UNL     1       6.227   4.406  14.906  0.00  0.00    +0.000 C 
ATOM     18  F   UNL     1       5.183   5.027  14.285  0.00  0.00    +0.000 F 
ATOM     19  F   UNL     1       7.339   4.788  14.221  0.00  0.00    +0.000 F 
ATOM     20  F   UNL     1       6.062   3.078  14.655  0.00  0.00    +0.000 F 
ENDBRANCH  14  17
ENDBRANCH   6  10
BRANCH   1  24
ATOM     21  C   UNL     1      -1.233  12.348  20.365  0.00  0.00    +0.000 A 
ATOM     22  C   UNL     1       0.081  12.309  20.837  0.00  0.00    +0.000 A 
ATOM     23  C   UNL     1       0.953  11.287  20.460  0.00  0.00    +0.000 A 
ATOM     24  C   UNL     1       0.538  10.259  19.602  0.00  0.00    +0.000 A 
ATOM     25  C   UNL     1      -0.766  10.294  19.102  0.00  0.00    +0.000 A 
ATOM     26  C   UNL     1      -1.633  11.336  19.473  0.00  0.00    +0.000 A 
BRANCH  21  28
ATOM     27  C   UNL     1      -1.874  14.714  20.352  0.00  0.00    +0.000 C 
ATOM     28  N   UNL     1      -2.149  13.336  20.783  0.00  0.00    +0.000 N 
ATOM     29  C   UNL     1      -2.944  13.299  21.965  0.00  0.00    +0.000 A 
ATOM     30  C   UNL     1      -2.874  12.224  22.840  0.00  0.00    +0.000 A 
ATOM     31  C   UNL     1      -3.654  12.268  23.973  0.00  0.00    +0.000 A 
ATOM     32  N   UNL     1      -4.473  13.287  24.268  0.00  0.00    +0.000 NA
ATOM     33  C   UNL     1      -4.476  14.285  23.376  0.00  0.00    +0.000 A 
ATOM     34  N   UNL     1      -3.758  14.340  22.243  0.00  0.00    +0.000 NA
ENDBRANCH  21  28
ENDBRANCH   1  24
TORSDOF 4
ENDMDL
MODEL 3
REMARK VINA RESULT:      -8.5      1.376      1.811
REMARK  Name = 
REMARK  5 active torsions:
REMARK  status: ('A' for Active; 'I' for Inactive)
REMARK    1  A    between atoms: C_1  and  N_2
REMARK    2  A    between atoms: N_2  and  C_3
REMARK    3  A    between atoms: C_6  and  C_7
REMARK    4  A    between atoms: C_12  and  C_13
REMARK    5  A    between atoms: C_17  and  C_18
REMARK                            x       y       z     vdW  Elec       q    Type
REMARK                         _______ _______ _______ _____ _____    ______ ____
ROOT
ATOM      1  C   UNL     1       0.379  10.255  21.482  0.00  0.00    +0.000 C 
ATOM      2  O   UNL     1       0.844   9.409  22.244  0.00  0.00    +0.000 OA
ATOM      3  N   UNL     1       0.538  10.272  20.116  0.00  0.00    +0.000 N 
ATOM      4  C   UNL     1       1.257   9.294  19.481  0.00  0.00    +0.000 A 
ATOM      5  N   UNL     1       1.705   8.155  19.943  0.00  0.00    +0.000 NA
ATOM      6  C   UNL     1       2.424   7.496  18.958  0.00  0.00    +0.000 A 
ATOM      7  C   UNL     1       2.541   8.200  17.775  0.00  0.00    +0.000 A 
ATOM      8  S   UNL     1       1.628   9.651  17.857  0.00  0.00    +0.000 S 
ATOM      9  H   UNL     1       0.257  11.052  19.547  0.00  0.00    +0.000 HD
ENDROOT
BRANCH   6  10
ATOM     10  C   UNL     1       3.022   6.187  19.209  0.00  0.00    +0.000 A 
ATOM     11  C   UNL     1       4.243   5.847  18.607  0.00  0.00    +0.000 A 
ATOM     12  C   UNL     1       4.823   4.593  18.827  0.00  0.00    +0.000 A 
ATOM     13  C   UNL     1       4.190   3.666  19.656  0.00  0.00    +0.000 A 
ATOM     14  C   UNL     1       2.982   3.990  20.282  0.00  0.00    +0.000 A 
ATOM     15  C   UNL     1       2.420   5.246  20.055  0.00  0.00    +0.000 A 
ATOM     16  F   UNL     1       1.274   5.543  20.690  0.00  0.00    +0.000 F 
BRANCH  14  17
ATOM     17  C   UNL     1       2.271   3.038  21.193  0.00  0.00    +0.000 C 
ATOM     18  F   UNL     1       2.009   3.564  22.424  0.00  0.00    +0.000 F 
ATOM     19  F   UNL     1       1.067   2.637  20.703  0.00  0.00    +0.000 F 
ATOM     20  F   UNL     1       2.985   1.903  21.427  0.00  0.00    +0.000 F 
ENDBRANCH  14  17
ENDBRANCH   6  10
BRANCH   1  24
ATOM     21  C   UNL     1      -2.041  13.368  23.288  0.00  0.00    +0.000 A 
ATOM     22  C   UNL     1      -2.210  12.013  23.586  0.00  0.00    +0.000 A 
ATOM     23  C   UNL     1      -1.397  11.040  23.006  0.00  0.00    +0.000 A 
ATOM     24  C   UNL     1      -0.389  11.386  22.095  0.00  0.00    +0.000 A 
ATOM     25  C   UNL     1      -0.190  12.737  21.801  0.00  0.00    +0.000 A 
ATOM     26  C   UNL     1      -1.003  13.713  22.403  0.00  0.00    +0.000 A 
BRANCH  21  28
ATOM     27  C   UNL     1      -2.590  14.834  25.173  0.00  0.00    +0.000 C 
ATOM     28  N   UNL     1      -2.892  14.361  23.815  0.00  0.00    +0.000 N 
ATOM     29  C   UNL     1      -4.261  14.562  23.475  0.00  0.00    +0.000 A 
ATOM     30  C   UNL     1      -4.893  13.749  22.545  0.00  0.00    +0.000 A 
ATOM     31  C   UNL     1      -6.224  13.988  22.285  0.00  0.00    +0.000 A 
ATOM     32  N   UNL     1      -6.930  14.960  22.878  0.00  0.00    +0.000 NA
ATOM     33  C   UNL     1      -6.248  15.692  23.766  0.00  0.00    +0.000 A 
ATOM     34  N   UNL     1      -4.954  15.544  24.091  0.00  0.00    +0.000 NA
ENDBRANCH  21  28
ENDBRANCH   1  24
TORSDOF 4
ENDMDL
MODEL 4
REMARK VINA RESULT:      -8.5      2.684      3.668
REMARK  Name = 
REMARK  5 active torsions:
REMARK  status: ('A' for Active; 'I' for Inactive)
REMARK    1  A    between atoms: C_1  and  N_2
REMARK    2  A    between atoms: N_2  and  C_3
REMARK    3  A    between atoms: C_6  and  C_7
REMARK    4  A    between atoms: C_12  and  C_13
REMARK    5  A    between atoms: C_17  and  C_18
REMARK                            x       y       z     vdW  Elec       q    Type
REMARK                         _______ _______ _______ _____ _____    ______ ____
ROOT
ATOM      1  C   UNL     1       1.422   8.549  20.394  0.00  0.00    +0.000 C 
ATOM      2  O   UNL     1       2.202   8.972  19.544  0.00  0.00    +0.000 OA
ATOM      3  N   UNL     1       1.380   7.257  20.865  0.00  0.00    +0.000 N 
ATOM      4  C   UNL     1       2.255   6.311  20.399  0.00  0.00    +0.000 A 
ATOM      5  N   UNL     1       3.327   6.457  19.664  0.00  0.00    +0.000 NA
ATOM      6  C   UNL     1       3.884   5.217  19.390  0.00  0.00    +0.000 A 
ATOM      7  C   UNL     1       3.167   4.150  19.897  0.00  0.00    +0.000 A 
ATOM      8  S   UNL     1       1.847   4.716  20.837  0.00  0.00    +0.000 S 
ATOM      9  H   UNL     1       0.642   6.920  21.459  0.00  0.00    +0.000 HD
ENDROOT
BRANCH   6  10
ATOM     10  C   UNL     1       5.105   5.097  18.597  0.00  0.00    +0.000 A 
ATOM     11  C   UNL     1       6.355   5.299  19.200  0.00  0.00    +0.000 A 
ATOM     12  C   UNL     1       7.533   5.200  18.452  0.00  0.00    +0.000 A 
ATOM     13  C   UNL     1       7.474   4.893  17.092  0.00  0.00    +0.000 A 
ATOM     14  C   UNL     1       6.239   4.668  16.474  0.00  0.00    +0.000 A 
ATOM     15  C   UNL     1       5.075   4.767  17.236  0.00  0.00    +0.000 A 
ATOM     16  F   UNL     1       3.905   4.519  16.625  0.00  0.00    +0.000 F 
BRANCH  14  17
ATOM     17  C   UNL     1       6.122   4.320  15.022  0.00  0.00    +0.000 C 
ATOM     18  F   UNL     1       7.273   4.533  14.322  0.00  0.00    +0.000 F 
ATOM     19  F   UNL     1       5.805   3.013  14.816  0.00  0.00    +0.000 F 
ATOM     20  F   UNL     1       5.167   5.050  14.383  0.00  0.00    +0.000 F 
ENDBRANCH  14  17
ENDBRANCH   6  10
BRANCH   1  24
ATOM     21  C   UNL     1      -1.472  11.477  21.758  0.00  0.00    +0.000 A 
ATOM     22  C   UNL     1      -1.094  11.358  20.419  0.00  0.00    +0.000 A 
ATOM     23  C   UNL     1      -0.179  10.388  20.010  0.00  0.00    +0.000 A 
ATOM     24  C   UNL     1       0.402   9.505  20.932  0.00  0.00    +0.000 A 
ATOM     25  C   UNL     1       0.020   9.594  22.272  0.00  0.00    +0.000 A 
ATOM     26  C   UNL     1      -0.916  10.563  22.673  0.00  0.00    +0.000 A 
BRANCH  21  28
ATOM     27  C   UNL     1      -3.692  12.503  21.611  0.00  0.00    +0.000 C 
ATOM     28  N   UNL     1      -2.347  12.490  22.202  0.00  0.00    +0.000 N 
ATOM     29  C   UNL     1      -1.968  13.775  22.687  0.00  0.00    +0.000 A 
ATOM     30  C   UNL     1      -0.632  14.144  22.765  0.00  0.00    +0.000 A 
ATOM     31  C   UNL     1      -0.344  15.410  23.222  0.00  0.00    +0.000 A 
ATOM     32  N   UNL     1      -1.279  16.294  23.593  0.00  0.00    +0.000 NA
ATOM     33  C   UNL     1      -2.540  15.861  23.480  0.00  0.00    +0.000 A 
ATOM     34  N   UNL     1      -2.930  14.651  23.049  0.00  0.00    +0.000 NA
ENDBRANCH  21  28
ENDBRANCH   1  24
TORSDOF 4
ENDMDL
MODEL 5
REMARK VINA RESULT:      -8.4      1.281      1.519
REMARK  Name = 
REMARK  5 active torsions:
REMARK  status: ('A' for Active; 'I' for Inactive)
REMARK    1  A    between atoms: C_1  and  N_2
REMARK    2  A    between atoms: N_2  and  C_3
REMARK    3  A    between atoms: C_6  and  C_7
REMARK    4  A    between atoms: C_12  and  C_13
REMARK    5  A    between atoms: C_17  and  C_18
REMARK                            x       y       z     vdW  Elec       q    Type
REMARK                         _______ _______ _______ _____ _____    ______ ____
ROOT
ATOM      1  C   UNL     1      -0.030   9.967  21.184  0.00  0.00    +0.000 C 
ATOM      2  O   UNL     1       0.316   9.073  21.954  0.00  0.00    +0.000 OA
ATOM      3  N   UNL     1       0.374  10.093  19.875  0.00  0.00    +0.000 N 
ATOM      4  C   UNL     1       1.227   9.181  19.313  0.00  0.00    +0.000 A 
ATOM      5  N   UNL     1       1.620   8.017  19.765  0.00  0.00    +0.000 NA
ATOM      6  C   UNL     1       2.527   7.450  18.884  0.00  0.00    +0.000 A 
ATOM      7  C   UNL     1       2.834   8.246  17.797  0.00  0.00    +0.000 A 
ATOM      8  S   UNL     1       1.876   9.670  17.815  0.00  0.00    +0.000 S 
ATOM      9  H   UNL     1       0.176  10.910  19.323  0.00  0.00    +0.000 HD
ENDROOT
BRANCH   6  10
ATOM     10  C   UNL     1       3.111   6.137  19.143  0.00  0.00    +0.000 A 
ATOM     11  C   UNL     1       4.316   5.771  18.527  0.00  0.00    +0.000 A 
ATOM     12  C   UNL     1       4.882   4.513  18.755  0.00  0.00    +0.000 A 
ATOM     13  C   UNL     1       4.251   3.606  19.608  0.00  0.00    +0.000 A 
ATOM     14  C   UNL     1       3.058   3.957  20.250  0.00  0.00    +0.000 A 
ATOM     15  C   UNL     1       2.510   5.217  20.013  0.00  0.00    +0.000 A 
ATOM     16  F   UNL     1       1.380   5.539  20.664  0.00  0.00    +0.000 F 
BRANCH  14  17
ATOM     17  C   UNL     1       2.350   3.028  21.187  0.00  0.00    +0.000 C 
ATOM     18  F   UNL     1       3.050   1.886  21.445  0.00  0.00    +0.000 F 
ATOM     19  F   UNL     1       2.102   3.588  22.401  0.00  0.00    +0.000 F 
ATOM     20  F   UNL     1       1.146   2.614  20.705  0.00  0.00    +0.000 F 
ENDBRANCH  14  17
ENDBRANCH   6  10
BRANCH   1  24
ATOM     21  C   UNL     1      -2.578  13.199  22.553  0.00  0.00    +0.000 A 
ATOM     22  C   UNL     1      -2.266  13.004  21.205  0.00  0.00    +0.000 A 
ATOM     23  C   UNL     1      -1.463  11.939  20.797  0.00  0.00    +0.000 A 
ATOM     24  C   UNL     1      -0.933  11.033  21.726  0.00  0.00    +0.000 A 
ATOM     25  C   UNL     1      -1.252  11.198  23.075  0.00  0.00    +0.000 A 
ATOM     26  C   UNL     1      -2.075  12.264  23.477  0.00  0.00    +0.000 A 
BRANCH  21  28
ATOM     27  C   UNL     1      -2.624  15.314  23.789  0.00  0.00    +0.000 C 
ATOM     28  N   UNL     1      -3.335  14.304  22.993  0.00  0.00    +0.000 N 
ATOM     29  C   UNL     1      -4.736  14.313  23.253  0.00  0.00    +0.000 A 
ATOM     30  C   UNL     1      -5.503  13.169  23.080  0.00  0.00    +0.000 A 
ATOM     31  C   UNL     1      -6.845  13.248  23.373  0.00  0.00    +0.000 A 
ATOM     32  N   UNL     1      -7.443  14.364  23.811  0.00  0.00    +0.000 NA
ATOM     33  C   UNL     1      -6.632  15.418  23.958  0.00  0.00    +0.000 A 
ATOM     34  N   UNL     1      -5.315  15.449  23.700  0.00  0.00    +0.000 NA
ENDBRANCH  21  28
ENDBRANCH   1  24
TORSDOF 4
ENDMDL
MODEL 6
REMARK VINA RESULT:      -8.4      0.923      2.160
REMARK  Name = 
REMARK  5 active torsions:
REMARK  status: ('A' for Active; 'I' for Inactive)
REMARK    1  A    between atoms: C_1  and  N_2
REMARK    2  A    between atoms: N_2  and  C_3
REMARK    3  A    between atoms: C_6  and  C_7
REMARK    4  A    between atoms: C_12  and  C_13
REMARK    5  A    between atoms: C_17  and  C_18
REMARK                            x       y       z     vdW  Elec       q    Type
REMARK                         _______ _______ _______ _____ _____    ______ ____
ROOT
ATOM      1  C   UNL     1       0.421   9.457  20.939  0.00  0.00    +0.000 C 
ATOM      2  O   UNL     1       0.790   8.562  21.697  0.00  0.00    +0.000 OA
ATOM      3  N   UNL     1       0.800   9.594  19.624  0.00  0.00    +0.000 N 
ATOM      4  C   UNL     1       1.652   8.693  19.041  0.00  0.00    +0.000 A 
ATOM      5  N   UNL     1       2.064   7.531  19.479  0.00  0.00    +0.000 NA
ATOM      6  C   UNL     1       2.960   6.978  18.578  0.00  0.00    +0.000 A 
ATOM      7  C   UNL     1       3.239   7.783  17.490  0.00  0.00    +0.000 A 
ATOM      8  S   UNL     1       2.268   9.197  17.534  0.00  0.00    +0.000 S 
ATOM      9  H   UNL     1       0.584  10.412  19.080  0.00  0.00    +0.000 HD
ENDROOT
BRANCH   6  10
ATOM     10  C   UNL     1       3.562   5.669  18.819  0.00  0.00    +0.000 A 
ATOM     11  C   UNL     1       4.877   5.579  19.298  0.00  0.00    +0.000 A 
ATOM     12  C   UNL     1       5.472   4.334  19.522  0.00  0.00    +0.000 A 
ATOM     13  C   UNL     1       4.755   3.161  19.275  0.00  0.00    +0.000 A 
ATOM     14  C   UNL     1       3.435   3.227  18.816  0.00  0.00    +0.000 A 
ATOM     15  C   UNL     1       2.857   4.478  18.601  0.00  0.00    +0.000 A 
ATOM     16  F   UNL     1       1.579   4.512  18.187  0.00  0.00    +0.000 F 
BRANCH  14  17
ATOM     17  C   UNL     1       2.618   2.001  18.551  0.00  0.00    +0.000 C 
ATOM     18  F   UNL     1       1.578   1.848  19.420  0.00  0.00    +0.000 F 
ATOM     19  F   UNL     1       2.062   1.994  17.309  0.00  0.00    +0.000 F 
ATOM     20  F   UNL     1       3.345   0.854  18.649  0.00  0.00    +0.000 F 
ENDBRANCH  14  17
ENDBRANCH   6  10
BRANCH   1  24
ATOM     21  C   UNL     1      -2.273  12.335  22.745  0.00  0.00    +0.000 A 
ATOM     22  C   UNL     1      -1.718  11.271  23.460  0.00  0.00    +0.000 A 
ATOM     23  C   UNL     1      -0.835  10.377  22.853  0.00  0.00    +0.000 A 
ATOM     24  C   UNL     1      -0.481  10.510  21.503  0.00  0.00    +0.000 A 
ATOM     25  C   UNL     1      -1.008  11.582  20.779  0.00  0.00    +0.000 A 
ATOM     26  C   UNL     1      -1.884  12.487  21.401  0.00  0.00    +0.000 A 
BRANCH  21  28
ATOM     27  C   UNL     1      -4.535  13.275  22.679  0.00  0.00    +0.000 C 
ATOM     28  N   UNL     1      -3.215  13.213  23.321  0.00  0.00    +0.000 N 
ATOM     29  C   UNL     1      -2.921  14.403  24.047  0.00  0.00    +0.000 A 
ATOM     30  C   UNL     1      -1.611  14.809  24.255  0.00  0.00    +0.000 A 
ATOM     31  C   UNL     1      -1.405  15.982  24.945  0.00  0.00    +0.000 A 
ATOM     32  N   UNL     1      -2.398  16.742  25.424  0.00  0.00    +0.000 NA
ATOM     33  C   UNL     1      -3.630  16.284  25.174  0.00  0.00    +0.000 A 
ATOM     34  N   UNL     1      -3.940  15.157  24.515  0.00  0.00    +0.000 NA
ENDBRANCH  21  28
ENDBRANCH   1  24
TORSDOF 4
ENDMDL
MODEL 7
REMARK VINA RESULT:      -8.4      2.614      3.641
REMARK  Name = 
REMARK  5 active torsions:
REMARK  status: ('A' for Active; 'I' for Inactive)
REMARK    1  A    between atoms: C_1  and  N_2
REMARK    2  A    between atoms: N_2  and  C_3
REMARK    3  A    between atoms: C_6  and  C_7
REMARK    4  A    between atoms: C_12  and  C_13
REMARK    5  A    between atoms: C_17  and  C_18
REMARK                            x       y       z     vdW  Elec       q    Type
REMARK                         _______ _______ _______ _____ _____    ______ ____
ROOT
ATOM      1  C   UNL     1       1.389   8.844  19.994  0.00  0.00    +0.000 C 
ATOM      2  O   UNL     1       2.203   9.194  19.141  0.00  0.00    +0.000 OA
ATOM      3  N   UNL     1       1.314   7.593  20.559  0.00  0.00    +0.000 N 
ATOM      4  C   UNL     1       2.189   6.604  20.194  0.00  0.00    +0.000 A 
ATOM      5  N   UNL     1       3.288   6.682  19.487  0.00  0.00    +0.000 NA
ATOM      6  C   UNL     1       3.835   5.418  19.326  0.00  0.00    +0.000 A 
ATOM      7  C   UNL     1       3.087   4.401  19.887  0.00  0.00    +0.000 A 
ATOM      8  S   UNL     1       1.745   5.051  20.736  0.00  0.00    +0.000 S 
ATOM      9  H   UNL     1       0.551   7.310  21.151  0.00  0.00    +0.000 HD
ENDROOT
BRANCH   6  10
ATOM     10  C   UNL     1       5.079   5.224  18.586  0.00  0.00    +0.000 A 
ATOM     11  C   UNL     1       6.312   5.364  19.238  0.00  0.00    +0.000 A 
ATOM     12  C   UNL     1       7.513   5.194  18.541  0.00  0.00    +0.000 A 
ATOM     13  C   UNL     1       7.494   4.877  17.182  0.00  0.00    +0.000 A 
ATOM     14  C   UNL     1       6.275   4.713  16.515  0.00  0.00    +0.000 A 
ATOM     15  C   UNL     1       5.088   4.883  17.227  0.00  0.00    +0.000 A 
ATOM     16  F   UNL     1       3.932   4.692  16.569  0.00  0.00    +0.000 F 
BRANCH  14  17
ATOM     17  C   UNL     1       6.199   4.357  15.062  0.00  0.00    +0.000 C 
ATOM     18  F   UNL     1       5.933   3.037  14.844  0.00  0.00    +0.000 F 
ATOM     19  F   UNL     1       5.227   5.040  14.401  0.00  0.00    +0.000 F 
ATOM     20  F   UNL     1       7.361   4.609  14.399  0.00  0.00    +0.000 F 
ENDBRANCH  14  17
ENDBRANCH   6  10
BRANCH   1  24
ATOM     21  C   UNL     1      -1.623  11.608  21.441  0.00  0.00    +0.000 A 
ATOM     22  C   UNL     1      -0.909  10.760  22.290  0.00  0.00    +0.000 A 
ATOM     23  C   UNL     1       0.071   9.900  21.793  0.00  0.00    +0.000 A 
ATOM     24  C   UNL     1       0.366   9.851  20.424  0.00  0.00    +0.000 A 
ATOM     25  C   UNL     1      -0.322  10.707  19.562  0.00  0.00    +0.000 A 
ATOM     26  C   UNL     1      -1.296  11.583  20.072  0.00  0.00    +0.000 A 
BRANCH  21  28
ATOM     27  C   UNL     1      -3.796  12.654  21.005  0.00  0.00    +0.000 C 
ATOM     28  N   UNL     1      -2.661  12.439  21.913  0.00  0.00    +0.000 N 
ATOM     29  C   UNL     1      -2.526  13.499  22.855  0.00  0.00    +0.000 A 
ATOM     30  C   UNL     1      -1.293  13.808  23.411  0.00  0.00    +0.000 A 
ATOM     31  C   UNL     1      -1.236  14.860  24.297  0.00  0.00    +0.000 A 
ATOM     32  N   UNL     1      -2.302  15.592  24.647  0.00  0.00    +0.000 NA
ATOM     33  C   UNL     1      -3.450  15.233  24.060  0.00  0.00    +0.000 A 
ATOM     34  N   UNL     1      -3.615  14.226  23.187  0.00  0.00    +0.000 NA
ENDBRANCH  21  28
ENDBRANCH   1  24
TORSDOF 4
ENDMDL
MODEL 8
REMARK VINA RESULT:      -8.4      1.011      2.139
REMARK  Name = 
REMARK  5 active torsions:
REMARK  status: ('A' for Active; 'I' for Inactive)
REMARK    1  A    between atoms: C_1  and  N_2
REMARK    2  A    between atoms: N_2  and  C_3
REMARK    3  A    between atoms: C_6  and  C_7
REMARK    4  A    between atoms: C_12  and  C_13
REMARK    5  A    between atoms: C_17  and  C_18
REMARK                            x       y       z     vdW  Elec       q    Type
REMARK                         _______ _______ _______ _____ _____    ______ ____
ROOT
ATOM      1  C   UNL     1       0.283   9.467  21.087  0.00  0.00    +0.000 C 
ATOM      2  O   UNL     1       0.687   8.559  21.811  0.00  0.00    +0.000 OA
ATOM      3  N   UNL     1       0.641   9.658  19.773  0.00  0.00    +0.000 N 
ATOM      4  C   UNL     1       1.512   8.801  19.151  0.00  0.00    +0.000 A 
ATOM      5  N   UNL     1       1.963   7.638  19.546  0.00  0.00    +0.000 NA
ATOM      6  C   UNL     1       2.864   7.141  18.617  0.00  0.00    +0.000 A 
ATOM      7  C   UNL     1       3.106   7.989  17.553  0.00  0.00    +0.000 A 
ATOM      8  S   UNL     1       2.094   9.372  17.655  0.00  0.00    +0.000 S 
ATOM      9  H   UNL     1       0.395  10.486  19.258  0.00  0.00    +0.000 HD
ENDROOT
BRANCH   6  10
ATOM     10  C   UNL     1       3.506   5.844  18.809  0.00  0.00    +0.000 A 
ATOM     11  C   UNL     1       4.836   5.777  19.247  0.00  0.00    +0.000 A 
ATOM     12  C   UNL     1       5.470   4.543  19.423  0.00  0.00    +0.000 A 
ATOM     13  C   UNL     1       4.777   3.359  19.169  0.00  0.00    +0.000 A 
ATOM     14  C   UNL     1       3.443   3.400  18.749  0.00  0.00    +0.000 A 
ATOM     15  C   UNL     1       2.826   4.639  18.582  0.00  0.00    +0.000 A 
ATOM     16  F   UNL     1       1.537   4.650  18.207  0.00  0.00    +0.000 F 
BRANCH  14  17
ATOM     17  C   UNL     1       2.651   2.159  18.478  0.00  0.00    +0.000 C 
ATOM     18  F   UNL     1       3.371   1.012  18.644  0.00  0.00    +0.000 F 
ATOM     19  F   UNL     1       1.570   2.032  19.293  0.00  0.00    +0.000 F 
ATOM     20  F   UNL     1       2.175   2.108  17.203  0.00  0.00    +0.000 F 
ENDBRANCH  14  17
ENDBRANCH   6  10
BRANCH   1  24
ATOM     21  C   UNL     1      -2.314  12.554  22.676  0.00  0.00    +0.000 A 
ATOM     22  C   UNL     1      -1.901  12.530  21.342  0.00  0.00    +0.000 A 
ATOM     23  C   UNL     1      -1.084  11.508  20.858  0.00  0.00    +0.000 A 
ATOM     24  C   UNL     1      -0.642  10.474  21.696  0.00  0.00    +0.000 A 
ATOM     25  C   UNL     1      -1.064  10.469  23.027  0.00  0.00    +0.000 A 
ATOM     26  C   UNL     1      -1.900  11.494  23.503  0.00  0.00    +0.000 A 
BRANCH  21  28
ATOM     27  C   UNL     1      -4.311  13.960  22.467  0.00  0.00    +0.000 C 
ATOM     28  N   UNL     1      -3.087  13.611  23.201  0.00  0.00    +0.000 N 
ATOM     29  C   UNL     1      -2.599  14.707  23.971  0.00  0.00    +0.000 A 
ATOM     30  C   UNL     1      -1.251  14.819  24.281  0.00  0.00    +0.000 A 
ATOM     31  C   UNL     1      -0.851  15.916  25.009  0.00  0.00    +0.000 A 
ATOM     32  N   UNL     1      -1.691  16.871  25.431  0.00  0.00    +0.000 NA
ATOM     33  C   UNL     1      -2.970  16.690  25.084  0.00  0.00    +0.000 A 
ATOM     34  N   UNL     1      -3.465  15.660  24.380  0.00  0.00    +0.000 NA
ENDBRANCH  21  28
ENDBRANCH   1  24
TORSDOF 4
ENDMDL
MODEL 9
REMARK VINA RESULT:      -8.4      3.291      3.981
REMARK  Name = 
REMARK  5 active torsions:
REMARK  status: ('A' for Active; 'I' for Inactive)
REMARK    1  A    between atoms: C_1  and  N_2
REMARK    2  A    between atoms: N_2  and  C_3
REMARK    3  A    between atoms: C_6  and  C_7
REMARK    4  A    between atoms: C_12  and  C_13
REMARK    5  A    between atoms: C_17  and  C_18
REMARK                            x       y       z     vdW  Elec       q    Type
REMARK                         _______ _______ _______ _____ _____    ______ ____
ROOT
ATOM      1  C   UNL     1       1.204   8.959  18.890  0.00  0.00    +0.000 C 
ATOM      2  O   UNL     1       1.991   9.111  17.958  0.00  0.00    +0.000 OA
ATOM      3  N   UNL     1       1.231   7.923  19.795  0.00  0.00    +0.000 N 
ATOM      4  C   UNL     1       2.189   6.947  19.717  0.00  0.00    +0.000 A 
ATOM      5  N   UNL     1       3.281   6.906  18.997  0.00  0.00    +0.000 NA
ATOM      6  C   UNL     1       3.934   5.700  19.199  0.00  0.00    +0.000 A 
ATOM      7  C   UNL     1       3.270   4.831  20.045  0.00  0.00    +0.000 A 
ATOM      8  S   UNL     1       1.873   5.587  20.694  0.00  0.00    +0.000 S 
ATOM      9  H   UNL     1       0.491   7.763  20.457  0.00  0.00    +0.000 HD
ENDROOT
BRANCH   6  10
ATOM     10  C   UNL     1       5.194   5.402  18.525  0.00  0.00    +0.000 A 
ATOM     11  C   UNL     1       6.397   5.418  19.246  0.00  0.00    +0.000 A 
ATOM     12  C   UNL     1       7.614   5.148  18.613  0.00  0.00    +0.000 A 
ATOM     13  C   UNL     1       7.642   4.853  17.249  0.00  0.00    +0.000 A 
ATOM     14  C   UNL     1       6.453   4.812  16.513  0.00  0.00    +0.000 A 
ATOM     15  C   UNL     1       5.248   5.081  17.162  0.00  0.00    +0.000 A 
ATOM     16  F   UNL     1       4.119   5.007  16.438  0.00  0.00    +0.000 F 
BRANCH  14  17
ATOM     17  C   UNL     1       6.426   4.486  15.052  0.00  0.00    +0.000 C 
ATOM     18  F   UNL     1       7.627   4.682  14.434  0.00  0.00    +0.000 F 
ATOM     19  F   UNL     1       6.095   3.190  14.805  0.00  0.00    +0.000 F 
ATOM     20  F   UNL     1       5.533   5.246  14.360  0.00  0.00    +0.000 F 
ENDBRANCH  14  17
ENDBRANCH   6  10
BRANCH   1  24
ATOM     21  C   UNL     1      -2.026  11.779  19.534  0.00  0.00    +0.000 A 
ATOM     22  C   UNL     1      -1.194  11.338  20.566  0.00  0.00    +0.000 A 
ATOM     23  C   UNL     1      -0.148  10.449  20.319  0.00  0.00    +0.000 A 
ATOM     24  C   UNL     1       0.098   9.959  19.028  0.00  0.00    +0.000 A 
ATOM     25  C   UNL     1      -0.709  10.406  17.981  0.00  0.00    +0.000 A 
ATOM     26  C   UNL     1      -1.751  11.315  18.235  0.00  0.00    +0.000 A 
BRANCH  21  28
ATOM     27  C   UNL     1      -3.065  13.464  20.979  0.00  0.00    +0.000 C 
ATOM     28  N   UNL     1      -3.127  12.628  19.773  0.00  0.00    +0.000 N 
ATOM     29  C   UNL     1      -4.470  12.401  19.353  0.00  0.00    +0.000 A 
ATOM     30  C   UNL     1      -4.812  11.263  18.635  0.00  0.00    +0.000 A 
ATOM     31  C   UNL     1      -6.133  11.100  18.284  0.00  0.00    +0.000 A 
ATOM     32  N   UNL     1      -7.095  11.979  18.596  0.00  0.00    +0.000 NA
ATOM     33  C   UNL     1      -6.682  13.043  19.294  0.00  0.00    +0.000 A 
ATOM     34  N   UNL     1      -5.424  13.298  19.684  0.00  0.00    +0.000 NA
ENDBRANCH  21  28
ENDBRANCH   1  24
TORSDOF 4
ENDMDL
