MODEL 1
REMARK VINA RESULT:      -8.6      0.000      0.000
REMARK  Name = 
REMARK  4 active torsions:
REMARK  status: ('A' for Active; 'I' for Inactive)
REMARK    1  A    between atoms: C_1  and  C_2
REMARK    2  A    between atoms: C_2  and  C_3
REMARK    3  A    between atoms: N_6  and  C_7
REMARK    4  A    between atoms: C_11  and  C_12
REMARK                            x       y       z     vdW  Elec       q    Type
REMARK                         _______ _______ _______ _____ _____    ______ ____
ROOT
ATOM      1  C   UNL     1       0.866   2.459  19.223  0.00  0.00    +0.000 C 
ATOM      2  C   UNL     1       2.112   3.052  19.880  0.00  0.00    +0.000 C 
ATOM      3  C   UNL     1       2.377   2.435  21.255  0.00  0.00    +0.000 C 
ATOM      4  C   UNL     1       3.338   2.816  18.984  0.00  0.00    +0.000 C 
ATOM      5  O   UNL     1       3.709   1.700  18.641  0.00  0.00    +0.000 OA
ATOM      6  N   UNL     1       3.875   4.074  18.644  0.00  0.00    +0.000 N 
ATOM      7  C   UNL     1       3.096   5.105  19.212  0.00  0.00    +0.000 A 
ATOM      8  N   UNL     1       3.300   6.429  19.141  0.00  0.00    +0.000 NA
ATOM      9  C   UNL     1       2.409   7.211  19.801  0.00  0.00    +0.000 A 
ATOM     10  C   UNL     1       1.328   6.731  20.533  0.00  0.00    +0.000 A 
ATOM     11  C   UNL     1       1.143   5.356  20.610  0.00  0.00    +0.000 A 
ATOM     12  C   UNL     1       2.050   4.548  19.942  0.00  0.00    +0.000 A 
ENDROOT
BRANCH   6  13
ATOM     13  C   UNL     1       5.019   4.281  17.822  0.00  0.00    +0.000 A 
ATOM     14  C   UNL     1       6.264   4.561  18.412  0.00  0.00    +0.000 A 
ATOM     15  C   UNL     1       7.430   4.698  17.656  0.00  0.00    +0.000 A 
ATOM     16  C   UNL     1       7.381   4.566  16.276  0.00  0.00    +0.000 A 
ATOM     17  C   UNL     1       6.160   4.319  15.641  0.00  0.00    +0.000 A 
ATOM     18  C   UNL     1       4.989   4.182  16.422  0.00  0.00    +0.000 A 
BRANCH  17  19
ATOM     19  C   UNL     1       6.087   4.183  14.140  0.00  0.00    +0.000 C 
ATOM     20  F   UNL     1       6.894   5.061  13.476  0.00  0.00    +0.000 F 
ATOM     21  F   UNL     1       6.455   2.946  13.706  0.00  0.00    +0.000 F 
ATOM     22  F   UNL     1       4.834   4.397  13.653  0.00  0.00    +0.000 F 
ENDBRANCH  17  19
ENDBRANCH   6  13
TORSDOF 2
ENDMDL
MODEL 2
REMARK VINA RESULT:      -8.2      4.501      6.723
REMARK  Name = 
REMARK  4 active torsions:
REMARK  status: ('A' for Active; 'I' for Inactive)
REMARK    1  A    between atoms: C_1  and  C_2
REMARK    2  A    between atoms: C_2  and  C_3
REMARK    3  A    between atoms: N_6  and  C_7
REMARK    4  A    between atoms: C_11  and  C_12
REMARK                            x       y       z     vdW  Elec       q    Type
REMARK                         _______ _______ _______ _____ _____    ______ ____
ROOT
ATOM      1  C   UNL     1       5.275   4.676  15.855  0.00  0.00    +0.000 C 
ATOM      2  C   UNL     1       4.938   4.832  17.338  0.00  0.00    +0.000 C 
ATOM      3  C   UNL     1       6.120   4.450  18.231  0.00  0.00    +0.000 C 
ATOM      4  C   UNL     1       4.541   6.288  17.633  0.00  0.00    +0.000 C 
ATOM      5  O   UNL     1       5.281   7.238  17.414  0.00  0.00    +0.000 OA
ATOM      6  N   UNL     1       3.225   6.283  18.139  0.00  0.00    +0.000 N 
ATOM      7  C   UNL     1       2.721   4.965  18.172  0.00  0.00    +0.000 A 
ATOM      8  N   UNL     1       1.524   4.550  18.614  0.00  0.00    +0.000 NA
ATOM      9  C   UNL     1       1.293   3.214  18.559  0.00  0.00    +0.000 A 
ATOM     10  C   UNL     1       2.205   2.275  18.089  0.00  0.00    +0.000 A 
ATOM     11  C   UNL     1       3.446   2.721  17.652  0.00  0.00    +0.000 A 
ATOM     12  C   UNL     1       3.694   4.085  17.708  0.00  0.00    +0.000 A 
ENDROOT
BRANCH   6  13
ATOM     13  C   UNL     1       2.495   7.441  18.531  0.00  0.00    +0.000 A 
ATOM     14  C   UNL     1       2.221   8.447  17.587  0.00  0.00    +0.000 A 
ATOM     15  C   UNL     1       1.445   9.566  17.900  0.00  0.00    +0.000 A 
ATOM     16  C   UNL     1       0.926   9.715  19.177  0.00  0.00    +0.000 A 
ATOM     17  C   UNL     1       1.198   8.756  20.158  0.00  0.00    +0.000 A 
ATOM     18  C   UNL     1       1.984   7.629  19.824  0.00  0.00    +0.000 A 
BRANCH  17  19
ATOM     19  C   UNL     1       0.650   8.907  21.556  0.00  0.00    +0.000 C 
ATOM     20  F   UNL     1       0.203  10.167  21.830  0.00  0.00    +0.000 F 
ATOM     21  F   UNL     1      -0.406   8.082  21.798  0.00  0.00    +0.000 F 
ATOM     22  F   UNL     1       1.575   8.629  22.516  0.00  0.00    +0.000 F 
ENDBRANCH  17  19
ENDBRANCH   6  13
TORSDOF 2
ENDMDL
MODEL 3
REMARK VINA RESULT:      -7.9      4.571      6.754
REMARK  Name = 
REMARK  4 active torsions:
REMARK  status: ('A' for Active; 'I' for Inactive)
REMARK    1  A    between atoms: C_1  and  C_2
REMARK    2  A    between atoms: C_2  and  C_3
REMARK    3  A    between atoms: N_6  and  C_7
REMARK    4  A    between atoms: C_11  and  C_12
REMARK                            x       y       z     vdW  Elec       q    Type
REMARK                         _______ _______ _______ _____ _____    ______ ____
ROOT
ATOM      1  C   UNL     1       4.711   4.204  16.386  0.00  0.00    +0.000 C 
ATOM      2  C   UNL     1       4.573   4.619  17.851  0.00  0.00    +0.000 C 
ATOM      3  C   UNL     1       5.868   4.387  18.630  0.00  0.00    +0.000 C 
ATOM      4  C   UNL     1       4.199   6.108  17.939  0.00  0.00    +0.000 C 
ATOM      5  O   UNL     1       4.891   6.998  17.461  0.00  0.00    +0.000 OA
ATOM      6  N   UNL     1       2.963   6.205  18.609  0.00  0.00    +0.000 N 
ATOM      7  C   UNL     1       2.486   4.918  18.938  0.00  0.00    +0.000 A 
ATOM      8  N   UNL     1       1.365   4.598  19.602  0.00  0.00    +0.000 NA
ATOM      9  C   UNL     1       1.146   3.275  19.812  0.00  0.00    +0.000 A 
ATOM     10  C   UNL     1       2.000   2.260  19.394  0.00  0.00    +0.000 A 
ATOM     11  C   UNL     1       3.165   2.610  18.725  0.00  0.00    +0.000 A 
ATOM     12  C   UNL     1       3.399   3.960  18.508  0.00  0.00    +0.000 A 
ENDROOT
BRANCH   6  13
ATOM     13  C   UNL     1       2.277   7.421  18.888  0.00  0.00    +0.000 A 
ATOM     14  C   UNL     1       1.958   8.300  17.838  0.00  0.00    +0.000 A 
ATOM     15  C   UNL     1       1.220   9.468  18.046  0.00  0.00    +0.000 A 
ATOM     16  C   UNL     1       0.785   9.795  19.322  0.00  0.00    +0.000 A 
ATOM     17  C   UNL     1       1.105   8.967  20.402  0.00  0.00    +0.000 A 
ATOM     18  C   UNL     1       1.851   7.788  20.174  0.00  0.00    +0.000 A 
BRANCH  17  19
ATOM     19  C   UNL     1       0.648   9.313  21.799  0.00  0.00    +0.000 C 
ATOM     20  F   UNL     1      -0.450   8.609  22.201  0.00  0.00    +0.000 F 
ATOM     21  F   UNL     1       1.604   9.073  22.739  0.00  0.00    +0.000 F 
ATOM     22  F   UNL     1       0.310  10.625  21.930  0.00  0.00    +0.000 F 
ENDBRANCH  17  19
ENDBRANCH   6  13
TORSDOF 2
ENDMDL
MODEL 4
REMARK VINA RESULT:      -7.8      1.175      1.634
REMARK  Name = 
REMARK  4 active torsions:
REMARK  status: ('A' for Active; 'I' for Inactive)
REMARK    1  A    between atoms: C_1  and  C_2
REMARK    2  A    between atoms: C_2  and  C_3
REMARK    3  A    between atoms: N_6  and  C_7
REMARK    4  A    between atoms: C_11  and  C_12
REMARK                            x       y       z     vdW  Elec       q    Type
REMARK                         _______ _______ _______ _____ _____    ______ ____
ROOT
ATOM      1  C   UNL     1       1.398   2.505  18.654  0.00  0.00    +0.000 C 
ATOM      2  C   UNL     1       2.734   3.145  19.032  0.00  0.00    +0.000 C 
ATOM      3  C   UNL     1       3.278   2.586  20.347  0.00  0.00    +0.000 C 
ATOM      4  C   UNL     1       3.766   2.896  17.919  0.00  0.00    +0.000 C 
ATOM      5  O   UNL     1       4.090   1.775  17.549  0.00  0.00    +0.000 OA
ATOM      6  N   UNL     1       4.194   4.150  17.438  0.00  0.00    +0.000 N 
ATOM      7  C   UNL     1       3.516   5.188  18.112  0.00  0.00    +0.000 A 
ATOM      8  N   UNL     1       3.669   6.512  17.957  0.00  0.00    +0.000 NA
ATOM      9  C   UNL     1       2.906   7.303  18.753  0.00  0.00    +0.000 A 
ATOM     10  C   UNL     1       2.002   6.832  19.699  0.00  0.00    +0.000 A 
ATOM     11  C   UNL     1       1.870   5.458  19.859  0.00  0.00    +0.000 A 
ATOM     12  C   UNL     1       2.648   4.641  19.053  0.00  0.00    +0.000 A 
ENDROOT
BRANCH   6  13
ATOM     13  C   UNL     1       5.149   4.345  16.400  0.00  0.00    +0.000 A 
ATOM     14  C   UNL     1       6.379   4.963  16.688  0.00  0.00    +0.000 A 
ATOM     15  C   UNL     1       7.379   5.110  15.724  0.00  0.00    +0.000 A 
ATOM     16  C   UNL     1       7.171   4.649  14.433  0.00  0.00    +0.000 A 
ATOM     17  C   UNL     1       5.951   4.056  14.091  0.00  0.00    +0.000 A 
ATOM     18  C   UNL     1       4.950   3.914  15.079  0.00  0.00    +0.000 A 
BRANCH  17  19
ATOM     19  C   UNL     1       5.704   3.558  12.688  0.00  0.00    +0.000 C 
ATOM     20  F   UNL     1       5.811   2.203  12.567  0.00  0.00    +0.000 F 
ATOM     21  F   UNL     1       4.460   3.871  12.231  0.00  0.00    +0.000 F 
ATOM     22  F   UNL     1       6.580   4.077  11.784  0.00  0.00    +0.000 F 
ENDBRANCH  17  19
ENDBRANCH   6  13
TORSDOF 2
ENDMDL
MODEL 5
REMARK VINA RESULT:      -7.8      4.763      6.873
REMARK  Name = 
REMARK  4 active torsions:
REMARK  status: ('A' for Active; 'I' for Inactive)
REMARK    1  A    between atoms: C_1  and  C_2
REMARK    2  A    between atoms: C_2  and  C_3
REMARK    3  A    between atoms: N_6  and  C_7
REMARK    4  A    between atoms: C_11  and  C_12
REMARK                            x       y       z     vdW  Elec       q    Type
REMARK                         _______ _______ _______ _____ _____    ______ ____
ROOT
ATOM      1  C   UNL     1       4.420   4.016  16.926  0.00  0.00    +0.000 C 
ATOM      2  C   UNL     1       4.575   4.768  18.247  0.00  0.00    +0.000 C 
ATOM      3  C   UNL     1       6.037   4.838  18.692  0.00  0.00    +0.000 C 
ATOM      4  C   UNL     1       4.030   6.198  18.101  0.00  0.00    +0.000 C 
ATOM      5  O   UNL     1       4.459   6.995  17.276  0.00  0.00    +0.000 OA
ATOM      6  N   UNL     1       2.985   6.360  19.034  0.00  0.00    +0.000 N 
ATOM      7  C   UNL     1       2.781   5.161  19.750  0.00  0.00    +0.000 A 
ATOM      8  N   UNL     1       1.904   4.928  20.737  0.00  0.00    +0.000 NA
ATOM      9  C   UNL     1       1.926   3.685  21.281  0.00  0.00    +0.000 A 
ATOM     10  C   UNL     1       2.790   2.668  20.888  0.00  0.00    +0.000 A 
ATOM     11  C   UNL     1       3.705   2.933  19.877  0.00  0.00    +0.000 A 
ATOM     12  C   UNL     1       3.692   4.202  19.317  0.00  0.00    +0.000 A 
ENDROOT
BRANCH   6  13
ATOM     13  C   UNL     1       2.221   7.549  19.209  0.00  0.00    +0.000 A 
ATOM     14  C   UNL     1       1.971   8.388  18.108  0.00  0.00    +0.000 A 
ATOM     15  C   UNL     1       1.165   9.525  18.210  0.00  0.00    +0.000 A 
ATOM     16  C   UNL     1       0.591   9.861  19.427  0.00  0.00    +0.000 A 
ATOM     17  C   UNL     1       0.838   9.075  20.556  0.00  0.00    +0.000 A 
ATOM     18  C   UNL     1       1.654   7.927  20.436  0.00  0.00    +0.000 A 
BRANCH  17  19
ATOM     19  C   UNL     1       0.229   9.432  21.890  0.00  0.00    +0.000 C 
ATOM     20  F   UNL     1      -0.327  10.679  21.917  0.00  0.00    +0.000 F 
ATOM     21  F   UNL     1      -0.766   8.579  22.260  0.00  0.00    +0.000 F 
ATOM     22  F   UNL     1       1.138   9.415  22.904  0.00  0.00    +0.000 F 
ENDBRANCH  17  19
ENDBRANCH   6  13
TORSDOF 2
ENDMDL
MODEL 6
REMARK VINA RESULT:      -7.8      4.503      6.700
REMARK  Name = 
REMARK  4 active torsions:
REMARK  status: ('A' for Active; 'I' for Inactive)
REMARK    1  A    between atoms: C_1  and  C_2
REMARK    2  A    between atoms: C_2  and  C_3
REMARK    3  A    between atoms: N_6  and  C_7
REMARK    4  A    between atoms: C_11  and  C_12
REMARK                            x       y       z     vdW  Elec       q    Type
REMARK                         _______ _______ _______ _____ _____    ______ ____
ROOT
ATOM      1  C   UNL     1       4.050   2.991  19.590  0.00  0.00    +0.000 C 
ATOM      2  C   UNL     1       3.514   3.799  18.408  0.00  0.00    +0.000 C 
ATOM      3  C   UNL     1       2.838   2.904  17.369  0.00  0.00    +0.000 C 
ATOM      4  C   UNL     1       2.499   4.842  18.905  0.00  0.00    +0.000 C 
ATOM      5  O   UNL     1       1.484   4.543  19.520  0.00  0.00    +0.000 OA
ATOM      6  N   UNL     1       2.981   6.118  18.551  0.00  0.00    +0.000 N 
ATOM      7  C   UNL     1       4.226   6.004  17.898  0.00  0.00    +0.000 A 
ATOM      8  N   UNL     1       4.983   6.987  17.386  0.00  0.00    +0.000 NA
ATOM      9  C   UNL     1       6.137   6.605  16.782  0.00  0.00    +0.000 A 
ATOM     10  C   UNL     1       6.565   5.287  16.661  0.00  0.00    +0.000 A 
ATOM     11  C   UNL     1       5.760   4.282  17.180  0.00  0.00    +0.000 A 
ATOM     12  C   UNL     1       4.576   4.661  17.796  0.00  0.00    +0.000 A 
ENDROOT
BRANCH   6  13
ATOM     13  C   UNL     1       2.324   7.349  18.837  0.00  0.00    +0.000 A 
ATOM     14  C   UNL     1       2.047   8.253  17.796  0.00  0.00    +0.000 A 
ATOM     15  C   UNL     1       1.340   9.438  18.010  0.00  0.00    +0.000 A 
ATOM     16  C   UNL     1       0.894   9.758  19.284  0.00  0.00    +0.000 A 
ATOM     17  C   UNL     1       1.173   8.906  20.357  0.00  0.00    +0.000 A 
ATOM     18  C   UNL     1       1.889   7.710  20.122  0.00  0.00    +0.000 A 
BRANCH  17  19
ATOM     19  C   UNL     1       0.705   9.245  21.751  0.00  0.00    +0.000 C 
ATOM     20  F   UNL     1       1.646   9.014  22.711  0.00  0.00    +0.000 F 
ATOM     21  F   UNL     1       0.357  10.555  21.884  0.00  0.00    +0.000 F 
ATOM     22  F   UNL     1      -0.387   8.524  22.127  0.00  0.00    +0.000 F 
ENDBRANCH  17  19
ENDBRANCH   6  13
TORSDOF 2
ENDMDL
MODEL 7
REMARK VINA RESULT:      -7.6      3.856      6.596
REMARK  Name = 
REMARK  4 active torsions:
REMARK  status: ('A' for Active; 'I' for Inactive)
REMARK    1  A    between atoms: C_1  and  C_2
REMARK    2  A    between atoms: C_2  and  C_3
REMARK    3  A    between atoms: N_6  and  C_7
REMARK    4  A    between atoms: C_11  and  C_12
REMARK                            x       y       z     vdW  Elec       q    Type
REMARK                         _______ _______ _______ _____ _____    ______ ____
ROOT
ATOM      1  C   UNL     1       7.559   6.994  17.641  0.00  0.00    +0.000 C 
ATOM      2  C   UNL     1       7.221   5.504  17.674  0.00  0.00    +0.000 C 
ATOM      3  C   UNL     1       8.405   4.664  18.157  0.00  0.00    +0.000 C 
ATOM      4  C   UNL     1       6.024   5.260  18.608  0.00  0.00    +0.000 C 
ATOM      5  O   UNL     1       6.028   5.571  19.792  0.00  0.00    +0.000 OA
ATOM      6  N   UNL     1       4.992   4.678  17.845  0.00  0.00    +0.000 N 
ATOM      7  C   UNL     1       5.395   4.547  16.499  0.00  0.00    +0.000 A 
ATOM      8  N   UNL     1       4.707   4.014  15.478  0.00  0.00    +0.000 NA
ATOM      9  C   UNL     1       5.337   3.987  14.277  0.00  0.00    +0.000 A 
ATOM     10  C   UNL     1       6.624   4.461  14.051  0.00  0.00    +0.000 A 
ATOM     11  C   UNL     1       7.329   4.993  15.123  0.00  0.00    +0.000 A 
ATOM     12  C   UNL     1       6.696   5.023  16.356  0.00  0.00    +0.000 A 
ENDROOT
BRANCH   6  13
ATOM     13  C   UNL     1       3.714   4.303  18.348  0.00  0.00    +0.000 A 
ATOM     14  C   UNL     1       2.598   4.301  17.493  0.00  0.00    +0.000 A 
ATOM     15  C   UNL     1       1.338   3.871  17.916  0.00  0.00    +0.000 A 
ATOM     16  C   UNL     1       1.157   3.435  19.220  0.00  0.00    +0.000 A 
ATOM     17  C   UNL     1       2.230   3.448  20.117  0.00  0.00    +0.000 A 
ATOM     18  C   UNL     1       3.499   3.886  19.672  0.00  0.00    +0.000 A 
BRANCH  17  19
ATOM     19  C   UNL     1       2.048   2.987  21.542  0.00  0.00    +0.000 C 
ATOM     20  F   UNL     1       0.781   2.562  21.817  0.00  0.00    +0.000 F 
ATOM     21  F   UNL     1       2.863   1.944  21.865  0.00  0.00    +0.000 F 
ATOM     22  F   UNL     1       2.311   3.967  22.449  0.00  0.00    +0.000 F 
ENDBRANCH  17  19
ENDBRANCH   6  13
TORSDOF 2
ENDMDL
MODEL 8
REMARK VINA RESULT:      -7.3      3.783      6.521
REMARK  Name = 
REMARK  4 active torsions:
REMARK  status: ('A' for Active; 'I' for Inactive)
REMARK    1  A    between atoms: C_1  and  C_2
REMARK    2  A    between atoms: C_2  and  C_3
REMARK    3  A    between atoms: N_6  and  C_7
REMARK    4  A    between atoms: C_11  and  C_12
REMARK                            x       y       z     vdW  Elec       q    Type
REMARK                         _______ _______ _______ _____ _____    ______ ____
ROOT
ATOM      1  C   UNL     1       7.446   6.800  17.932  0.00  0.00    +0.000 C 
ATOM      2  C   UNL     1       7.289   5.292  17.743  0.00  0.00    +0.000 C 
ATOM      3  C   UNL     1       8.559   4.535  18.135  0.00  0.00    +0.000 C 
ATOM      4  C   UNL     1       6.119   4.777  18.598  0.00  0.00    +0.000 C 
ATOM      5  O   UNL     1       6.072   4.911  19.814  0.00  0.00    +0.000 OA
ATOM      6  N   UNL     1       5.173   4.194  17.730  0.00  0.00    +0.000 N 
ATOM      7  C   UNL     1       5.605   4.308  16.391  0.00  0.00    +0.000 A 
ATOM      8  N   UNL     1       4.997   3.851  15.286  0.00  0.00    +0.000 NA
ATOM      9  C   UNL     1       5.640   4.073  14.111  0.00  0.00    +0.000 A 
ATOM     10  C   UNL     1       6.863   4.723  13.992  0.00  0.00    +0.000 A 
ATOM     11  C   UNL     1       7.487   5.173  15.149  0.00  0.00    +0.000 A 
ATOM     12  C   UNL     1       6.840   4.948  16.355  0.00  0.00    +0.000 A 
ENDROOT
BRANCH   6  13
ATOM     13  C   UNL     1       3.944   3.603  18.138  0.00  0.00    +0.000 A 
ATOM     14  C   UNL     1       3.396   2.543  17.394  0.00  0.00    +0.000 A 
ATOM     15  C   UNL     1       2.233   1.879  17.792  0.00  0.00    +0.000 A 
ATOM     16  C   UNL     1       1.576   2.267  18.951  0.00  0.00    +0.000 A 
ATOM     17  C   UNL     1       2.066   3.336  19.707  0.00  0.00    +0.000 A 
ATOM     18  C   UNL     1       3.244   3.996  19.290  0.00  0.00    +0.000 A 
BRANCH  17  19
ATOM     19  C   UNL     1       1.357   3.777  20.964  0.00  0.00    +0.000 C 
ATOM     20  F   UNL     1       2.160   4.469  21.825  0.00  0.00    +0.000 F 
ATOM     21  F   UNL     1       0.299   4.596  20.711  0.00  0.00    +0.000 F 
ATOM     22  F   UNL     1       0.864   2.732  21.683  0.00  0.00    +0.000 F 
ENDBRANCH  17  19
ENDBRANCH   6  13
TORSDOF 2
ENDMDL
MODEL 9
REMARK VINA RESULT:      -7.2      2.144      2.746
REMARK  Name = 
REMARK  4 active torsions:
REMARK  status: ('A' for Active; 'I' for Inactive)
REMARK    1  A    between atoms: C_1  and  C_2
REMARK    2  A    between atoms: C_2  and  C_3
REMARK    3  A    between atoms: N_6  and  C_7
REMARK    4  A    between atoms: C_11  and  C_12
REMARK                            x       y       z     vdW  Elec       q    Type
REMARK                         _______ _______ _______ _____ _____    ______ ____
ROOT
ATOM      1  C   UNL     1       1.048   2.487  19.305  0.00  0.00    +0.000 C 
ATOM      2  C   UNL     1       2.231   3.197  19.962  0.00  0.00    +0.000 C 
ATOM      3  C   UNL     1       2.587   2.574  21.313  0.00  0.00    +0.000 C 
ATOM      4  C   UNL     1       3.461   3.125  19.041  0.00  0.00    +0.000 C 
ATOM      5  O   UNL     1       3.947   2.068  18.660  0.00  0.00    +0.000 OA
ATOM      6  N   UNL     1       3.848   4.445  18.733  0.00  0.00    +0.000 N 
ATOM      7  C   UNL     1       2.969   5.365  19.342  0.00  0.00    +0.000 A 
ATOM      8  N   UNL     1       3.024   6.705  19.309  0.00  0.00    +0.000 NA
ATOM      9  C   UNL     1       2.062   7.364  20.005  0.00  0.00    +0.000 A 
ATOM     10  C   UNL     1       1.055   6.745  20.737  0.00  0.00    +0.000 A 
ATOM     11  C   UNL     1       1.025   5.357  20.776  0.00  0.00    +0.000 A 
ATOM     12  C   UNL     1       2.005   4.674  20.070  0.00  0.00    +0.000 A 
ENDROOT
BRANCH   6  13
ATOM     13  C   UNL     1       4.947   4.802  17.901  0.00  0.00    +0.000 A 
ATOM     14  C   UNL     1       5.205   4.067  16.730  0.00  0.00    +0.000 A 
ATOM     15  C   UNL     1       6.223   4.421  15.841  0.00  0.00    +0.000 A 
ATOM     16  C   UNL     1       7.022   5.523  16.106  0.00  0.00    +0.000 A 
ATOM     17  C   UNL     1       6.824   6.266  17.274  0.00  0.00    +0.000 A 
ATOM     18  C   UNL     1       5.789   5.894  18.162  0.00  0.00    +0.000 A 
BRANCH  17  19
ATOM     19  C   UNL     1       7.691   7.461  17.583  0.00  0.00    +0.000 C 
ATOM     20  F   UNL     1       8.549   7.786  16.571  0.00  0.00    +0.000 F 
ATOM     21  F   UNL     1       6.966   8.588  17.824  0.00  0.00    +0.000 F 
ATOM     22  F   UNL     1       8.474   7.273  18.681  0.00  0.00    +0.000 F 
ENDBRANCH  17  19
ENDBRANCH   6  13
TORSDOF 2
ENDMDL
