MODEL 1
REMARK VINA RESULT:      -8.0      0.000      0.000
REMARK  Name = 
REMARK  13 active torsions:
REMARK  status: ('A' for Active; 'I' for Inactive)
REMARK    1  A    between atoms: C_1  and  C_2
REMARK    2  A    between atoms: C_2  and  C_3
REMARK    3  A    between atoms: C_3  and  C_4
REMARK    4  A    between atoms: C_4  and  S_5
REMARK    5  A    between atoms: C_4  and  C_6
REMARK    6  A    between atoms: N_8  and  C_9
REMARK    7  A    between atoms: C_9  and  C_10
REMARK    8  A    between atoms: N_12  and  CA_13
REMARK    9  A    between atoms: CA_13  and  C_14
REMARK   10  A    between atoms: CA_13  and  C_27
REMARK   11  A    between atoms: C_14  and  C_15
REMARK   12  A    between atoms: C_18  and  C_19
REMARK   13  A    between atoms: C_27  and  OXT_29
REMARK                            x       y       z     vdW  Elec       q    Type
REMARK                         _______ _______ _______ _____ _____    ______ ____
ROOT
ATOM      1  C   UNL     1       2.135   5.214  18.766  0.00  0.00    +0.000 C 
ATOM      2  O   UNL     1       1.473   5.490  17.759  0.00  0.00    +0.000 OA
ATOM      3  N   UNL     1       2.344   6.147  19.744  0.00  0.00    +0.000 N 
ATOM      4  H   UNL     1       3.164   6.041  20.342  0.00  0.00    +0.000 HD
ENDROOT
BRANCH   1   5
ATOM      5  C   UNL     1       2.850   3.828  18.912  0.00  0.00    +0.000 C 
ATOM      6  C   UNL     1       1.924   2.769  18.272  0.00  0.00    +0.000 C 
ATOM      7  C   UNL     1       0.890   2.488  19.366  0.00  0.00    +0.000 C 
ATOM      8  C   UNL     1       1.642   2.620  20.682  0.00  0.00    +0.000 C 
ATOM      9  C   UNL     1       2.985   3.242  20.330  0.00  0.00    +0.000 C 
BRANCH   5  12
ATOM     10  C   UNL     1       5.176   4.681  18.639  0.00  0.00    +0.000 C 
ATOM     11  O   UNL     1       5.053   5.456  19.592  0.00  0.00    +0.000 OA
ATOM     12  N   UNL     1       4.142   3.872  18.211  0.00  0.00    +0.000 N 
ATOM     13  H   UNL     1       4.137   3.656  17.219  0.00  0.00    +0.000 HD
BRANCH  10  14
ATOM     14  C   UNL     1       6.496   4.517  17.873  0.00  0.00    +0.000 C 
BRANCH  14  15
ATOM     15  S   UNL     1       6.094   4.484  16.083  0.00  0.00    +0.000 S 
ATOM     16  H   UNL     1       4.826   4.069  16.224  0.00  0.00    +0.000 HD
ENDBRANCH  14  15
BRANCH  14  17
ATOM     17  C   UNL     1       7.513   5.638  18.162  0.00  0.00    +0.000 C 
BRANCH  17  19
ATOM     18  C   UNL     1       7.882   8.128  17.806  0.00  0.00    +0.000 C 
ATOM     19  C   UNL     1       7.360   6.830  17.204  0.00  0.00    +0.000 C 
ENDBRANCH  17  19
ENDBRANCH  14  17
ENDBRANCH  10  14
ENDBRANCH   5  12
ENDBRANCH   1   5
BRANCH   3  20
ATOM     20  CA  UNL     1       1.776   7.499  19.668  0.00  0.00    +0.000 C 
BRANCH  20  21
ATOM     21  C   UNL     1       2.259   8.197  18.390  0.00  0.00    +0.000 C 
ATOM     22  O   UNL     1       3.404   8.086  17.959  0.00  0.00    +0.000 OA
BRANCH  21  23
ATOM     23  OXT UNL     1       1.320   8.903  17.724  0.00  0.00    +0.000 OA
ATOM     24  HXT UNL     1       1.651   9.596  17.125  0.00  0.00    +0.000 HD
ENDBRANCH  21  23
ENDBRANCH  20  21
BRANCH  20  25
ATOM     25  C   UNL     1       2.019   8.357  20.924  0.00  0.00    +0.000 C 
BRANCH  25  26
ATOM     26  C   UNL     1       0.914   9.279  21.380  0.00  0.00    +0.000 A 
ATOM     27  C   UNL     1       0.107   8.982  22.480  0.00  0.00    +0.000 A 
ATOM     28  C   UNL     1      -0.762   9.950  23.002  0.00  0.00    +0.000 A 
ATOM     29  C   UNL     1      -0.852  11.243  22.454  0.00  0.00    +0.000 A 
ATOM     30  C   UNL     1      -0.096  11.492  21.297  0.00  0.00    +0.000 A 
ATOM     31  C   UNL     1       0.770  10.528  20.771  0.00  0.00    +0.000 A 
BRANCH  29  32
ATOM     32  C   UNL     1      -1.681  12.298  23.088  0.00  0.00    +0.000 A 
ATOM     33  C   UNL     1      -2.989  12.025  23.538  0.00  0.00    +0.000 A 
ATOM     34  C   UNL     1      -3.798  13.024  24.091  0.00  0.00    +0.000 A 
ATOM     35  C   UNL     1      -3.307  14.315  24.236  0.00  0.00    +0.000 A 
ATOM     36  C   UNL     1      -2.002  14.603  23.848  0.00  0.00    +0.000 A 
ATOM     37  C   UNL     1      -1.202  13.606  23.278  0.00  0.00    +0.000 A 
ENDBRANCH  29  32
ENDBRANCH  25  26
ENDBRANCH  20  25
ENDBRANCH   3  20
TORSDOF 12
ENDMDL
MODEL 2
REMARK VINA RESULT:      -7.8      1.278      1.705
REMARK  Name = 
REMARK  13 active torsions:
REMARK  status: ('A' for Active; 'I' for Inactive)
REMARK    1  A    between atoms: C_1  and  C_2
REMARK    2  A    between atoms: C_2  and  C_3
REMARK    3  A    between atoms: C_3  and  C_4
REMARK    4  A    between atoms: C_4  and  S_5
REMARK    5  A    between atoms: C_4  and  C_6
REMARK    6  A    between atoms: N_8  and  C_9
REMARK    7  A    between atoms: C_9  and  C_10
REMARK    8  A    between atoms: N_12  and  CA_13
REMARK    9  A    between atoms: CA_13  and  C_14
REMARK   10  A    between atoms: CA_13  and  C_27
REMARK   11  A    between atoms: C_14  and  C_15
REMARK   12  A    between atoms: C_18  and  C_19
REMARK   13  A    between atoms: C_27  and  OXT_29
REMARK                            x       y       z     vdW  Elec       q    Type
REMARK                         _______ _______ _______ _____ _____    ______ ____
ROOT
ATOM      1  C   UNL     1       2.126   5.233  18.585  0.00  0.00    +0.000 C 
ATOM      2  O   UNL     1       1.317   5.467  17.680  0.00  0.00    +0.000 OA
ATOM      3  N   UNL     1       2.380   6.162  19.555  0.00  0.00    +0.000 N 
ATOM      4  H   UNL     1       3.277   6.119  20.040  0.00  0.00    +0.000 HD
ENDROOT
BRANCH   1   5
ATOM      5  C   UNL     1       2.970   3.913  18.597  0.00  0.00    +0.000 C 
ATOM      6  C   UNL     1       2.017   2.760  18.210  0.00  0.00    +0.000 C 
ATOM      7  C   UNL     1       1.283   2.446  19.516  0.00  0.00    +0.000 C 
ATOM      8  C   UNL     1       2.297   2.691  20.623  0.00  0.00    +0.000 C 
ATOM      9  C   UNL     1       3.470   3.400  19.961  0.00  0.00    +0.000 C 
BRANCH   5  12
ATOM     10  C   UNL     1       5.036   5.001  17.725  0.00  0.00    +0.000 C 
ATOM     11  O   UNL     1       5.008   5.867  18.606  0.00  0.00    +0.000 OA
ATOM     12  N   UNL     1       4.063   4.027  17.620  0.00  0.00    +0.000 N 
ATOM     13  H   UNL     1       3.879   3.692  16.679  0.00  0.00    +0.000 HD
BRANCH  10  14
ATOM     14  C   UNL     1       6.172   4.906  16.698  0.00  0.00    +0.000 C 
BRANCH  14  15
ATOM     15  S   UNL     1       7.722   4.568  17.621  0.00  0.00    +0.000 S 
ATOM     16  H   UNL     1       8.342   3.906  16.631  0.00  0.00    +0.000 HD
ENDBRANCH  14  15
BRANCH  14  17
ATOM     17  C   UNL     1       5.946   3.813  15.636  0.00  0.00    +0.000 C 
BRANCH  17  19
ATOM     18  C   UNL     1       6.161   3.624  13.110  0.00  0.00    +0.000 C 
ATOM     19  C   UNL     1       5.545   4.394  14.271  0.00  0.00    +0.000 C 
ENDBRANCH  17  19
ENDBRANCH  14  17
ENDBRANCH  10  14
ENDBRANCH   5  12
ENDBRANCH   1   5
BRANCH   3  20
ATOM     20  CA  UNL     1       1.693   7.460  19.592  0.00  0.00    +0.000 C 
BRANCH  20  21
ATOM     21  C   UNL     1       2.035   8.269  18.334  0.00  0.00    +0.000 C 
ATOM     22  O   UNL     1       1.263   9.079  17.830  0.00  0.00    +0.000 OA
BRANCH  21  23
ATOM     23  OXT UNL     1       3.278   8.077  17.843  0.00  0.00    +0.000 OA
ATOM     24  HXT UNL     1       3.361   8.099  16.873  0.00  0.00    +0.000 HD
ENDBRANCH  21  23
ENDBRANCH  20  21
BRANCH  20  25
ATOM     25  C   UNL     1       1.936   8.265  20.884  0.00  0.00    +0.000 C 
BRANCH  25  26
ATOM     26  C   UNL     1       0.858   9.219  21.340  0.00  0.00    +0.000 A 
ATOM     27  C   UNL     1       0.015   8.926  22.413  0.00  0.00    +0.000 A 
ATOM     28  C   UNL     1      -0.826   9.915  22.942  0.00  0.00    +0.000 A 
ATOM     29  C   UNL     1      -0.852  11.224  22.427  0.00  0.00    +0.000 A 
ATOM     30  C   UNL     1      -0.061  11.472  21.294  0.00  0.00    +0.000 A 
ATOM     31  C   UNL     1       0.778  10.488  20.761  0.00  0.00    +0.000 A 
BRANCH  29  32
ATOM     32  C   UNL     1      -1.653  12.295  23.070  0.00  0.00    +0.000 A 
ATOM     33  C   UNL     1      -2.980  12.064  23.485  0.00  0.00    +0.000 A 
ATOM     34  C   UNL     1      -3.761  13.080  24.046  0.00  0.00    +0.000 A 
ATOM     35  C   UNL     1      -3.223  14.346  24.237  0.00  0.00    +0.000 A 
ATOM     36  C   UNL     1      -1.899  14.591  23.885  0.00  0.00    +0.000 A 
ATOM     37  C   UNL     1      -1.127  13.578  23.306  0.00  0.00    +0.000 A 
ENDBRANCH  29  32
ENDBRANCH  25  26
ENDBRANCH  20  25
ENDBRANCH   3  20
TORSDOF 12
ENDMDL
MODEL 3
REMARK VINA RESULT:      -7.5      0.677      1.074
REMARK  Name = 
REMARK  13 active torsions:
REMARK  status: ('A' for Active; 'I' for Inactive)
REMARK    1  A    between atoms: C_1  and  C_2
REMARK    2  A    between atoms: C_2  and  C_3
REMARK    3  A    between atoms: C_3  and  C_4
REMARK    4  A    between atoms: C_4  and  S_5
REMARK    5  A    between atoms: C_4  and  C_6
REMARK    6  A    between atoms: N_8  and  C_9
REMARK    7  A    between atoms: C_9  and  C_10
REMARK    8  A    between atoms: N_12  and  CA_13
REMARK    9  A    between atoms: CA_13  and  C_14
REMARK   10  A    between atoms: CA_13  and  C_27
REMARK   11  A    between atoms: C_14  and  C_15
REMARK   12  A    between atoms: C_18  and  C_19
REMARK   13  A    between atoms: C_27  and  OXT_29
REMARK                            x       y       z     vdW  Elec       q    Type
REMARK                         _______ _______ _______ _____ _____    ______ ____
ROOT
ATOM      1  C   UNL     1       2.248   5.279  19.016  0.00  0.00    +0.000 C 
ATOM      2  O   UNL     1       1.606   5.473  17.978  0.00  0.00    +0.000 OA
ATOM      3  N   UNL     1       2.413   6.277  19.936  0.00  0.00    +0.000 N 
ATOM      4  H   UNL     1       3.219   6.229  20.560  0.00  0.00    +0.000 HD
ENDROOT
BRANCH   1   5
ATOM      5  C   UNL     1       2.990   3.922  19.269  0.00  0.00    +0.000 C 
ATOM      6  C   UNL     1       2.409   2.894  18.271  0.00  0.00    +0.000 C 
ATOM      7  C   UNL     1       1.106   2.445  18.937  0.00  0.00    +0.000 C 
ATOM      8  C   UNL     1       1.381   2.471  20.433  0.00  0.00    +0.000 C 
ATOM      9  C   UNL     1       2.710   3.193  20.597  0.00  0.00    +0.000 C 
BRANCH   5  12
ATOM     10  C   UNL     1       4.942   4.319  17.771  0.00  0.00    +0.000 C 
ATOM     11  O   UNL     1       4.230   4.305  16.762  0.00  0.00    +0.000 OA
ATOM     12  N   UNL     1       4.430   4.106  19.036  0.00  0.00    +0.000 N 
ATOM     13  H   UNL     1       5.065   3.670  19.697  0.00  0.00    +0.000 HD
BRANCH  10  14
ATOM     14  C   UNL     1       6.447   4.617  17.715  0.00  0.00    +0.000 C 
BRANCH  14  15
ATOM     15  S   UNL     1       6.944   4.608  15.948  0.00  0.00    +0.000 S 
ATOM     16  H   UNL     1       8.136   4.018  16.134  0.00  0.00    +0.000 HD
ENDBRANCH  14  15
BRANCH  14  17
ATOM     17  C   UNL     1       6.827   5.964  18.359  0.00  0.00    +0.000 C 
BRANCH  17  19
ATOM     18  C   UNL     1       7.917   8.161  17.688  0.00  0.00    +0.000 C 
ATOM     19  C   UNL     1       6.868   7.113  17.338  0.00  0.00    +0.000 C 
ENDBRANCH  17  19
ENDBRANCH  14  17
ENDBRANCH  10  14
ENDBRANCH   5  12
ENDBRANCH   1   5
BRANCH   3  20
ATOM     20  CA  UNL     1       1.816   7.608  19.760  0.00  0.00    +0.000 C 
BRANCH  20  21
ATOM     21  C   UNL     1       2.254   8.201  18.414  0.00  0.00    +0.000 C 
ATOM     22  O   UNL     1       3.410   8.142  18.002  0.00  0.00    +0.000 OA
BRANCH  21  23
ATOM     23  OXT UNL     1       1.267   8.747  17.673  0.00  0.00    +0.000 OA
ATOM     24  HXT UNL     1       0.469   9.020  18.159  0.00  0.00    +0.000 HD
ENDBRANCH  21  23
ENDBRANCH  20  21
BRANCH  20  25
ATOM     25  C   UNL     1       2.074   8.574  20.931  0.00  0.00    +0.000 C 
BRANCH  25  26
ATOM     26  C   UNL     1       0.929   9.435  21.408  0.00  0.00    +0.000 A 
ATOM     27  C   UNL     1       0.211   9.136  22.567  0.00  0.00    +0.000 A 
ATOM     28  C   UNL     1      -0.700  10.064  23.094  0.00  0.00    +0.000 A 
ATOM     29  C   UNL     1      -0.920  11.316  22.490  0.00  0.00    +0.000 A 
ATOM     30  C   UNL     1      -0.252  11.559  21.280  0.00  0.00    +0.000 A 
ATOM     31  C   UNL     1       0.655  10.636  20.749  0.00  0.00    +0.000 A 
BRANCH  29  32
ATOM     32  C   UNL     1      -1.791  12.338  23.122  0.00  0.00    +0.000 A 
ATOM     33  C   UNL     1      -1.312  13.633  23.400  0.00  0.00    +0.000 A 
ATOM     34  C   UNL     1      -2.108  14.589  24.041  0.00  0.00    +0.000 A 
ATOM     35  C   UNL     1      -3.416  14.282  24.390  0.00  0.00    +0.000 A 
ATOM     36  C   UNL     1      -3.935  13.028  24.082  0.00  0.00    +0.000 A 
ATOM     37  C   UNL     1      -3.130  12.068  23.459  0.00  0.00    +0.000 A 
ENDBRANCH  29  32
ENDBRANCH  25  26
ENDBRANCH  20  25
ENDBRANCH   3  20
TORSDOF 12
ENDMDL
MODEL 4
REMARK VINA RESULT:      -7.5      3.711      8.186
REMARK  Name = 
REMARK  13 active torsions:
REMARK  status: ('A' for Active; 'I' for Inactive)
REMARK    1  A    between atoms: C_1  and  C_2
REMARK    2  A    between atoms: C_2  and  C_3
REMARK    3  A    between atoms: C_3  and  C_4
REMARK    4  A    between atoms: C_4  and  S_5
REMARK    5  A    between atoms: C_4  and  C_6
REMARK    6  A    between atoms: N_8  and  C_9
REMARK    7  A    between atoms: C_9  and  C_10
REMARK    8  A    between atoms: N_12  and  CA_13
REMARK    9  A    between atoms: CA_13  and  C_14
REMARK   10  A    between atoms: CA_13  and  C_27
REMARK   11  A    between atoms: C_14  and  C_15
REMARK   12  A    between atoms: C_18  and  C_19
REMARK   13  A    between atoms: C_27  and  OXT_29
REMARK                            x       y       z     vdW  Elec       q    Type
REMARK                         _______ _______ _______ _____ _____    ______ ____
ROOT
ATOM      1  C   UNL     1       4.474   6.262  17.754  0.00  0.00    +0.000 C 
ATOM      2  O   UNL     1       4.335   6.490  16.548  0.00  0.00    +0.000 OA
ATOM      3  N   UNL     1       5.700   6.369  18.351  0.00  0.00    +0.000 N 
ATOM      4  H   UNL     1       5.869   5.835  19.203  0.00  0.00    +0.000 HD
ENDROOT
BRANCH   1   5
ATOM      5  C   UNL     1       3.281   5.738  18.624  0.00  0.00    +0.000 C 
ATOM      6  C   UNL     1       3.808   4.535  19.439  0.00  0.00    +0.000 C 
ATOM      7  C   UNL     1       3.751   3.374  18.443  0.00  0.00    +0.000 C 
ATOM      8  C   UNL     1       2.536   3.644  17.569  0.00  0.00    +0.000 C 
ATOM      9  C   UNL     1       2.104   5.067  17.890  0.00  0.00    +0.000 C 
BRANCH   5  12
ATOM     10  C   UNL     1       2.125   7.902  19.059  0.00  0.00    +0.000 C 
ATOM     11  O   UNL     1       1.891   8.072  17.858  0.00  0.00    +0.000 OA
ATOM     12  N   UNL     1       2.829   6.809  19.524  0.00  0.00    +0.000 N 
ATOM     13  H   UNL     1       3.372   6.965  20.367  0.00  0.00    +0.000 HD
BRANCH  10  14
ATOM     14  C   UNL     1       1.618   8.865  20.142  0.00  0.00    +0.000 C 
BRANCH  14  15
ATOM     15  S   UNL     1       0.542  10.103  19.319  0.00  0.00    +0.000 S 
ATOM     16  H   UNL     1       0.297   9.375  18.217  0.00  0.00    +0.000 HD
ENDBRANCH  14  15
BRANCH  14  17
ATOM     17  C   UNL     1       0.839   8.160  21.269  0.00  0.00    +0.000 C 
BRANCH  17  19
ATOM     18  C   UNL     1       0.024   9.402  23.332  0.00  0.00    +0.000 C 
ATOM     19  C   UNL     1      -0.254   9.056  21.875  0.00  0.00    +0.000 C 
ENDBRANCH  17  19
ENDBRANCH  14  17
ENDBRANCH  10  14
ENDBRANCH   5  12
ENDBRANCH   1   5
BRANCH   3  20
ATOM     20  CA  UNL     1       6.896   6.786  17.607  0.00  0.00    +0.000 C 
BRANCH  20  21
ATOM     21  C   UNL     1       7.383   5.636  16.715  0.00  0.00    +0.000 C 
ATOM     22  O   UNL     1       7.868   4.600  17.165  0.00  0.00    +0.000 OA
BRANCH  21  23
ATOM     23  OXT UNL     1       7.188   5.807  15.390  0.00  0.00    +0.000 OA
ATOM     24  HXT UNL     1       7.279   6.718  15.059  0.00  0.00    +0.000 HD
ENDBRANCH  21  23
ENDBRANCH  20  21
BRANCH  20  25
ATOM     25  C   UNL     1       8.024   7.350  18.492  0.00  0.00    +0.000 C 
BRANCH  25  26
ATOM     26  C   UNL     1       8.402   8.802  18.321  0.00  0.00    +0.000 A 
ATOM     27  C   UNL     1       7.781   9.623  17.378  0.00  0.00    +0.000 A 
ATOM     28  C   UNL     1       8.004  11.007  17.390  0.00  0.00    +0.000 A 
ATOM     29  C   UNL     1       8.845  11.618  18.338  0.00  0.00    +0.000 A 
ATOM     30  C   UNL     1       9.526  10.764  19.220  0.00  0.00    +0.000 A 
ATOM     31  C   UNL     1       9.309   9.382  19.211  0.00  0.00    +0.000 A 
BRANCH  29  32
ATOM     32  C   UNL     1       8.978  13.094  18.420  0.00  0.00    +0.000 A 
ATOM     33  C   UNL     1       7.931  13.944  18.012  0.00  0.00    +0.000 A 
ATOM     34  C   UNL     1       8.064  15.337  18.036  0.00  0.00    +0.000 A 
ATOM     35  C   UNL     1       9.238  15.914  18.502  0.00  0.00    +0.000 A 
ATOM     36  C   UNL     1      10.270  15.102  18.960  0.00  0.00    +0.000 A 
ATOM     37  C   UNL     1      10.141  13.709  18.915  0.00  0.00    +0.000 A 
ENDBRANCH  29  32
ENDBRANCH  25  26
ENDBRANCH  20  25
ENDBRANCH   3  20
TORSDOF 12
ENDMDL
MODEL 5
REMARK VINA RESULT:      -7.4      1.021      1.326
REMARK  Name = 
REMARK  13 active torsions:
REMARK  status: ('A' for Active; 'I' for Inactive)
REMARK    1  A    between atoms: C_1  and  C_2
REMARK    2  A    between atoms: C_2  and  C_3
REMARK    3  A    between atoms: C_3  and  C_4
REMARK    4  A    between atoms: C_4  and  S_5
REMARK    5  A    between atoms: C_4  and  C_6
REMARK    6  A    between atoms: N_8  and  C_9
REMARK    7  A    between atoms: C_9  and  C_10
REMARK    8  A    between atoms: N_12  and  CA_13
REMARK    9  A    between atoms: CA_13  and  C_14
REMARK   10  A    between atoms: CA_13  and  C_27
REMARK   11  A    between atoms: C_14  and  C_15
REMARK   12  A    between atoms: C_18  and  C_19
REMARK   13  A    between atoms: C_27  and  OXT_29
REMARK                            x       y       z     vdW  Elec       q    Type
REMARK                         _______ _______ _______ _____ _____    ______ ____
ROOT
ATOM      1  C   UNL     1       1.988   5.874  19.842  0.00  0.00    +0.000 C 
ATOM      2  O   UNL     1       1.099   5.835  20.699  0.00  0.00    +0.000 OA
ATOM      3  N   UNL     1       2.202   7.005  19.104  0.00  0.00    +0.000 N 
ATOM      4  H   UNL     1       2.646   6.908  18.190  0.00  0.00    +0.000 HD
ENDROOT
BRANCH   1   5
ATOM      5  C   UNL     1       2.831   4.601  19.488  0.00  0.00    +0.000 C 
ATOM      6  C   UNL     1       1.940   3.698  18.606  0.00  0.00    +0.000 C 
ATOM      7  C   UNL     1       1.047   2.975  19.618  0.00  0.00    +0.000 C 
ATOM      8  C   UNL     1       1.911   2.773  20.854  0.00  0.00    +0.000 C 
ATOM      9  C   UNL     1       3.155   3.621  20.632  0.00  0.00    +0.000 C 
BRANCH   5  12
ATOM     10  C   UNL     1       5.165   4.209  18.707  0.00  0.00    +0.000 C 
ATOM     11  O   UNL     1       5.244   3.145  19.330  0.00  0.00    +0.000 OA
ATOM     12  N   UNL     1       4.038   5.007  18.754  0.00  0.00    +0.000 N 
ATOM     13  H   UNL     1       4.202   6.002  18.647  0.00  0.00    +0.000 HD
BRANCH  10  14
ATOM     14  C   UNL     1       6.291   4.718  17.797  0.00  0.00    +0.000 C 
BRANCH  14  15
ATOM     15  S   UNL     1       5.997   4.030  16.121  0.00  0.00    +0.000 S 
ATOM     16  H   UNL     1       6.107   2.739  16.471  0.00  0.00    +0.000 HD
ENDBRANCH  14  15
BRANCH  14  17
ATOM     17  C   UNL     1       6.371   6.255  17.725  0.00  0.00    +0.000 C 
BRANCH  17  19
ATOM     18  C   UNL     1       7.939   8.256  17.763  0.00  0.00    +0.000 C 
ATOM     19  C   UNL     1       7.753   6.790  18.134  0.00  0.00    +0.000 C 
ENDBRANCH  17  19
ENDBRANCH  14  17
ENDBRANCH  10  14
ENDBRANCH   5  12
ENDBRANCH   1   5
BRANCH   3  20
ATOM     20  CA  UNL     1       1.419   8.231  19.310  0.00  0.00    +0.000 C 
BRANCH  20  21
ATOM     21  C   UNL     1       1.571   9.157  18.096  0.00  0.00    +0.000 C 
ATOM     22  O   UNL     1       2.638   9.319  17.508  0.00  0.00    +0.000 OA
BRANCH  21  23
ATOM     23  OXT UNL     1       0.433   9.745  17.669  0.00  0.00    +0.000 OA
ATOM     24  HXT UNL     1       0.384  10.711  17.781  0.00  0.00    +0.000 HD
ENDBRANCH  21  23
ENDBRANCH  20  21
BRANCH  20  25
ATOM     25  C   UNL     1       1.719   8.957  20.635  0.00  0.00    +0.000 C 
BRANCH  25  26
ATOM     26  C   UNL     1       0.633   9.814  21.238  0.00  0.00    +0.000 A 
ATOM     27  C   UNL     1      -0.056   9.433  22.391  0.00  0.00    +0.000 A 
ATOM     28  C   UNL     1      -0.903  10.341  23.042  0.00  0.00    +0.000 A 
ATOM     29  C   UNL     1      -1.088  11.655  22.572  0.00  0.00    +0.000 A 
ATOM     30  C   UNL     1      -0.453  11.988  21.364  0.00  0.00    +0.000 A 
ATOM     31  C   UNL     1       0.390  11.084  20.710  0.00  0.00    +0.000 A 
BRANCH  29  32
ATOM     32  C   UNL     1      -1.888  12.646  23.334  0.00  0.00    +0.000 A 
ATOM     33  C   UNL     1      -1.352  13.902  23.683  0.00  0.00    +0.000 A 
ATOM     34  C   UNL     1      -2.079  14.823  24.445  0.00  0.00    +0.000 A 
ATOM     35  C   UNL     1      -3.373  14.524  24.849  0.00  0.00    +0.000 A 
ATOM     36  C   UNL     1      -3.948  13.313  24.476  0.00  0.00    +0.000 A 
ATOM     37  C   UNL     1      -3.211  12.385  23.731  0.00  0.00    +0.000 A 
ENDBRANCH  29  32
ENDBRANCH  25  26
ENDBRANCH  20  25
ENDBRANCH   3  20
TORSDOF 12
ENDMDL
MODEL 6
REMARK VINA RESULT:      -7.4      1.279      1.803
REMARK  Name = 
REMARK  13 active torsions:
REMARK  status: ('A' for Active; 'I' for Inactive)
REMARK    1  A    between atoms: C_1  and  C_2
REMARK    2  A    between atoms: C_2  and  C_3
REMARK    3  A    between atoms: C_3  and  C_4
REMARK    4  A    between atoms: C_4  and  S_5
REMARK    5  A    between atoms: C_4  and  C_6
REMARK    6  A    between atoms: N_8  and  C_9
REMARK    7  A    between atoms: C_9  and  C_10
REMARK    8  A    between atoms: N_12  and  CA_13
REMARK    9  A    between atoms: CA_13  and  C_14
REMARK   10  A    between atoms: CA_13  and  C_27
REMARK   11  A    between atoms: C_14  and  C_15
REMARK   12  A    between atoms: C_18  and  C_19
REMARK   13  A    between atoms: C_27  and  OXT_29
REMARK                            x       y       z     vdW  Elec       q    Type
REMARK                         _______ _______ _______ _____ _____    ______ ____
ROOT
ATOM      1  C   UNL     1       3.245   4.913  18.820  0.00  0.00    +0.000 C 
ATOM      2  O   UNL     1       3.978   5.405  19.685  0.00  0.00    +0.000 OA
ATOM      3  N   UNL     1       2.224   5.639  18.271  0.00  0.00    +0.000 N 
ATOM      4  H   UNL     1       1.433   5.132  17.873  0.00  0.00    +0.000 HD
ENDROOT
BRANCH   1   5
ATOM      5  C   UNL     1       3.382   3.410  18.399  0.00  0.00    +0.000 C 
ATOM      6  C   UNL     1       2.136   3.059  17.555  0.00  0.00    +0.000 C 
ATOM      7  C   UNL     1       1.054   2.792  18.605  0.00  0.00    +0.000 C 
ATOM      8  C   UNL     1       1.777   2.164  19.786  0.00  0.00    +0.000 C 
ATOM      9  C   UNL     1       3.262   2.346  19.507  0.00  0.00    +0.000 C 
BRANCH   5  12
ATOM     10  C   UNL     1       4.973   4.145  16.628  0.00  0.00    +0.000 C 
ATOM     11  O   UNL     1       4.265   5.111  16.327  0.00  0.00    +0.000 OA
ATOM     12  N   UNL     1       4.607   3.239  17.603  0.00  0.00    +0.000 N 
ATOM     13  H   UNL     1       4.942   2.291  17.468  0.00  0.00    +0.000 HD
BRANCH  10  14
ATOM     14  C   UNL     1       6.340   3.889  15.977  0.00  0.00    +0.000 C 
BRANCH  14  15
ATOM     15  S   UNL     1       6.126   4.060  14.162  0.00  0.00    +0.000 S 
ATOM     16  H   UNL     1       4.815   4.346  14.195  0.00  0.00    +0.000 HD
ENDBRANCH  14  15
BRANCH  14  17
ATOM     17  C   UNL     1       7.439   4.850  16.468  0.00  0.00    +0.000 C 
BRANCH  17  19
ATOM     18  C   UNL     1       7.588   6.080  18.688  0.00  0.00    +0.000 C 
ATOM     19  C   UNL     1       7.687   4.735  17.981  0.00  0.00    +0.000 C 
ENDBRANCH  17  19
ENDBRANCH  14  17
ENDBRANCH  10  14
ENDBRANCH   5  12
ENDBRANCH   1   5
BRANCH   3  20
ATOM     20  CA  UNL     1       1.967   7.035  18.650  0.00  0.00    +0.000 C 
BRANCH  20  21
ATOM     21  C   UNL     1       2.871   7.971  17.837  0.00  0.00    +0.000 C 
ATOM     22  O   UNL     1       2.472   9.020  17.338  0.00  0.00    +0.000 OA
BRANCH  21  23
ATOM     23  OXT UNL     1       4.166   7.597  17.753  0.00  0.00    +0.000 OA
ATOM     24  HXT UNL     1       4.649   7.906  16.966  0.00  0.00    +0.000 HD
ENDBRANCH  21  23
ENDBRANCH  20  21
BRANCH  20  25
ATOM     25  C   UNL     1       2.062   7.305  20.163  0.00  0.00    +0.000 C 
BRANCH  25  26
ATOM     26  C   UNL     1       1.428   8.564  20.702  0.00  0.00    +0.000 A 
ATOM     27  C   UNL     1       0.685   9.424  19.892  0.00  0.00    +0.000 A 
ATOM     28  C   UNL     1      -0.062  10.464  20.462  0.00  0.00    +0.000 A 
ATOM     29  C   UNL     1      -0.099  10.679  21.853  0.00  0.00    +0.000 A 
ATOM     30  C   UNL     1       0.723   9.858  22.640  0.00  0.00    +0.000 A 
ATOM     31  C   UNL     1       1.473   8.820  22.074  0.00  0.00    +0.000 A 
BRANCH  29  32
ATOM     32  C   UNL     1      -0.988  11.703  22.456  0.00  0.00    +0.000 A 
ATOM     33  C   UNL     1      -2.180  11.337  23.113  0.00  0.00    +0.000 A 
ATOM     34  C   UNL     1      -3.051  12.297  23.641  0.00  0.00    +0.000 A 
ATOM     35  C   UNL     1      -2.735  13.646  23.553  0.00  0.00    +0.000 A 
ATOM     36  C   UNL     1      -1.540  14.035  22.955  0.00  0.00    +0.000 A 
ATOM     37  C   UNL     1      -0.681  13.074  22.411  0.00  0.00    +0.000 A 
ENDBRANCH  29  32
ENDBRANCH  25  26
ENDBRANCH  20  25
ENDBRANCH   3  20
TORSDOF 12
ENDMDL
MODEL 7
REMARK VINA RESULT:      -7.3      1.301      1.739
REMARK  Name = 
REMARK  13 active torsions:
REMARK  status: ('A' for Active; 'I' for Inactive)
REMARK    1  A    between atoms: C_1  and  C_2
REMARK    2  A    between atoms: C_2  and  C_3
REMARK    3  A    between atoms: C_3  and  C_4
REMARK    4  A    between atoms: C_4  and  S_5
REMARK    5  A    between atoms: C_4  and  C_6
REMARK    6  A    between atoms: N_8  and  C_9
REMARK    7  A    between atoms: C_9  and  C_10
REMARK    8  A    between atoms: N_12  and  CA_13
REMARK    9  A    between atoms: CA_13  and  C_14
REMARK   10  A    between atoms: CA_13  and  C_27
REMARK   11  A    between atoms: C_14  and  C_15
REMARK   12  A    between atoms: C_18  and  C_19
REMARK   13  A    between atoms: C_27  and  OXT_29
REMARK                            x       y       z     vdW  Elec       q    Type
REMARK                         _______ _______ _______ _____ _____    ______ ____
ROOT
ATOM      1  C   UNL     1       2.223   5.657  19.311  0.00  0.00    +0.000 C 
ATOM      2  O   UNL     1       1.485   5.533  20.295  0.00  0.00    +0.000 OA
ATOM      3  N   UNL     1       2.261   6.829  18.607  0.00  0.00    +0.000 N 
ATOM      4  H   UNL     1       2.557   6.795  17.631  0.00  0.00    +0.000 HD
ENDROOT
BRANCH   1   5
ATOM      5  C   UNL     1       3.058   4.449  18.766  0.00  0.00    +0.000 C 
ATOM      6  C   UNL     1       2.103   3.584  17.913  0.00  0.00    +0.000 C 
ATOM      7  C   UNL     1       1.349   2.750  18.953  0.00  0.00    +0.000 C 
ATOM      8  C   UNL     1       2.349   2.486  20.068  0.00  0.00    +0.000 C 
ATOM      9  C   UNL     1       3.536   3.396  19.784  0.00  0.00    +0.000 C 
BRANCH   5  12
ATOM     10  C   UNL     1       5.366   5.350  18.496  0.00  0.00    +0.000 C 
ATOM     11  O   UNL     1       5.556   5.358  19.716  0.00  0.00    +0.000 OA
ATOM     12  N   UNL     1       4.165   4.957  17.941  0.00  0.00    +0.000 N 
ATOM     13  H   UNL     1       3.919   5.406  17.064  0.00  0.00    +0.000 HD
BRANCH  10  14
ATOM     14  C   UNL     1       6.458   5.736  17.489  0.00  0.00    +0.000 C 
BRANCH  14  15
ATOM     15  S   UNL     1       7.745   6.673  18.403  0.00  0.00    +0.000 S 
ATOM     16  H   UNL     1       7.133   6.635  19.598  0.00  0.00    +0.000 HD
ENDBRANCH  14  15
BRANCH  14  17
ATOM     17  C   UNL     1       7.095   4.523  16.784  0.00  0.00    +0.000 C 
BRANCH  17  19
ATOM     18  C   UNL     1       5.600   4.481  14.727  0.00  0.00    +0.000 C 
ATOM     19  C   UNL     1       7.023   4.630  15.252  0.00  0.00    +0.000 C 
ENDBRANCH  17  19
ENDBRANCH  14  17
ENDBRANCH  10  14
ENDBRANCH   5  12
ENDBRANCH   1   5
BRANCH   3  20
ATOM     20  CA  UNL     1       1.462   7.999  18.994  0.00  0.00    +0.000 C 
BRANCH  20  21
ATOM     21  C   UNL     1       1.630   9.113  17.953  0.00  0.00    +0.000 C 
ATOM     22  O   UNL     1       2.727   9.490  17.548  0.00  0.00    +0.000 OA
BRANCH  21  23
ATOM     23  OXT UNL     1       0.482   9.621  17.456  0.00  0.00    +0.000 OA
ATOM     24  HXT UNL     1       0.170  10.449  17.863  0.00  0.00    +0.000 HD
ENDBRANCH  21  23
ENDBRANCH  20  21
BRANCH  20  25
ATOM     25  C   UNL     1       1.730   8.498  20.427  0.00  0.00    +0.000 C 
BRANCH  25  26
ATOM     26  C   UNL     1       0.668   9.336  21.098  0.00  0.00    +0.000 A 
ATOM     27  C   UNL     1       0.327   9.164  22.440  0.00  0.00    +0.000 A 
ATOM     28  C   UNL     1      -0.504  10.092  23.084  0.00  0.00    +0.000 A 
ATOM     29  C   UNL     1      -1.017  11.220  22.418  0.00  0.00    +0.000 A 
ATOM     30  C   UNL     1      -0.732  11.326  21.047  0.00  0.00    +0.000 A 
ATOM     31  C   UNL     1       0.094  10.401  20.400  0.00  0.00    +0.000 A 
BRANCH  29  32
ATOM     32  C   UNL     1      -1.793  12.260  23.138  0.00  0.00    +0.000 A 
ATOM     33  C   UNL     1      -1.246  13.534  23.389  0.00  0.00    +0.000 A 
ATOM     34  C   UNL     1      -1.949  14.504  24.112  0.00  0.00    +0.000 A 
ATOM     35  C   UNL     1      -3.231  14.235  24.573  0.00  0.00    +0.000 A 
ATOM     36  C   UNL     1      -3.817  13.004  24.296  0.00  0.00    +0.000 A 
ATOM     37  C   UNL     1      -3.104  12.029  23.591  0.00  0.00    +0.000 A 
ENDBRANCH  29  32
ENDBRANCH  25  26
ENDBRANCH  20  25
ENDBRANCH   3  20
TORSDOF 12
ENDMDL
MODEL 8
REMARK VINA RESULT:      -7.3      3.701      8.527
REMARK  Name = 
REMARK  13 active torsions:
REMARK  status: ('A' for Active; 'I' for Inactive)
REMARK    1  A    between atoms: C_1  and  C_2
REMARK    2  A    between atoms: C_2  and  C_3
REMARK    3  A    between atoms: C_3  and  C_4
REMARK    4  A    between atoms: C_4  and  S_5
REMARK    5  A    between atoms: C_4  and  C_6
REMARK    6  A    between atoms: N_8  and  C_9
REMARK    7  A    between atoms: C_9  and  C_10
REMARK    8  A    between atoms: N_12  and  CA_13
REMARK    9  A    between atoms: CA_13  and  C_14
REMARK   10  A    between atoms: CA_13  and  C_27
REMARK   11  A    between atoms: C_14  and  C_15
REMARK   12  A    between atoms: C_18  and  C_19
REMARK   13  A    between atoms: C_27  and  OXT_29
REMARK                            x       y       z     vdW  Elec       q    Type
REMARK                         _______ _______ _______ _____ _____    ______ ____
ROOT
ATOM      1  C   UNL     1       4.603   6.050  17.604  0.00  0.00    +0.000 C 
ATOM      2  O   UNL     1       4.581   6.038  16.369  0.00  0.00    +0.000 OA
ATOM      3  N   UNL     1       5.746   6.372  18.282  0.00  0.00    +0.000 N 
ATOM      4  H   UNL     1       5.858   6.022  19.233  0.00  0.00    +0.000 HD
ENDROOT
BRANCH   1   5
ATOM      5  C   UNL     1       3.361   5.592  18.443  0.00  0.00    +0.000 C 
ATOM      6  C   UNL     1       3.817   4.402  19.316  0.00  0.00    +0.000 C 
ATOM      7  C   UNL     1       3.761   3.210  18.356  0.00  0.00    +0.000 C 
ATOM      8  C   UNL     1       2.590   3.489  17.427  0.00  0.00    +0.000 C 
ATOM      9  C   UNL     1       2.192   4.935  17.684  0.00  0.00    +0.000 C 
BRANCH   5  12
ATOM     10  C   UNL     1       2.285   7.818  18.758  0.00  0.00    +0.000 C 
ATOM     11  O   UNL     1       2.127   7.966  17.542  0.00  0.00    +0.000 OA
ATOM     12  N   UNL     1       2.909   6.707  19.289  0.00  0.00    +0.000 N 
ATOM     13  H   UNL     1       3.411   6.860  20.158  0.00  0.00    +0.000 HD
BRANCH  10  14
ATOM     14  C   UNL     1       1.764   8.831  19.787  0.00  0.00    +0.000 C 
BRANCH  14  15
ATOM     15  S   UNL     1       0.499   9.864  18.950  0.00  0.00    +0.000 S 
ATOM     16  H   UNL     1       0.706   9.379  17.716  0.00  0.00    +0.000 HD
ENDBRANCH  14  15
BRANCH  14  17
ATOM     17  C   UNL     1       1.157   8.171  21.040  0.00  0.00    +0.000 C 
BRANCH  17  19
ATOM     18  C   UNL     1      -0.266   9.336  22.796  0.00  0.00    +0.000 C 
ATOM     19  C   UNL     1       1.140   9.118  22.251  0.00  0.00    +0.000 C 
ENDBRANCH  17  19
ENDBRANCH  14  17
ENDBRANCH  10  14
ENDBRANCH   5  12
ENDBRANCH   1   5
BRANCH   3  20
ATOM     20  CA  UNL     1       6.986   6.748  17.587  0.00  0.00    +0.000 C 
BRANCH  20  21
ATOM     21  C   UNL     1       7.421   5.615  16.648  0.00  0.00    +0.000 C 
ATOM     22  O   UNL     1       7.832   4.531  17.054  0.00  0.00    +0.000 OA
BRANCH  21  23
ATOM     23  OXT UNL     1       7.266   5.863  15.330  0.00  0.00    +0.000 OA
ATOM     24  HXT UNL     1       6.348   5.938  15.015  0.00  0.00    +0.000 HD
ENDBRANCH  21  23
ENDBRANCH  20  21
BRANCH  20  25
ATOM     25  C   UNL     1       8.123   7.194  18.526  0.00  0.00    +0.000 C 
BRANCH  25  26
ATOM     26  C   UNL     1       8.421   8.670  18.630  0.00  0.00    +0.000 A 
ATOM     27  C   UNL     1       9.076   9.217  19.735  0.00  0.00    +0.000 A 
ATOM     28  C   UNL     1       9.524  10.545  19.706  0.00  0.00    +0.000 A 
ATOM     29  C   UNL     1       9.341  11.368  18.579  0.00  0.00    +0.000 A 
ATOM     30  C   UNL     1       8.604  10.825  17.515  0.00  0.00    +0.000 A 
ATOM     31  C   UNL     1       8.153   9.501  17.540  0.00  0.00    +0.000 A 
BRANCH  29  32
ATOM     32  C   UNL     1       9.925  12.730  18.511  0.00  0.00    +0.000 A 
ATOM     33  C   UNL     1      10.260  13.319  17.275  0.00  0.00    +0.000 A 
ATOM     34  C   UNL     1      10.858  14.582  17.201  0.00  0.00    +0.000 A 
ATOM     35  C   UNL     1      11.107  15.301  18.363  0.00  0.00    +0.000 A 
ATOM     36  C   UNL     1      10.742  14.768  19.594  0.00  0.00    +0.000 A 
ATOM     37  C   UNL     1      10.162  13.497  19.666  0.00  0.00    +0.000 A 
ENDBRANCH  29  32
ENDBRANCH  25  26
ENDBRANCH  20  25
ENDBRANCH   3  20
TORSDOF 12
ENDMDL
MODEL 9
REMARK VINA RESULT:      -7.3      3.190      5.309
REMARK  Name = 
REMARK  13 active torsions:
REMARK  status: ('A' for Active; 'I' for Inactive)
REMARK    1  A    between atoms: C_1  and  C_2
REMARK    2  A    between atoms: C_2  and  C_3
REMARK    3  A    between atoms: C_3  and  C_4
REMARK    4  A    between atoms: C_4  and  S_5
REMARK    5  A    between atoms: C_4  and  C_6
REMARK    6  A    between atoms: N_8  and  C_9
REMARK    7  A    between atoms: C_9  and  C_10
REMARK    8  A    between atoms: N_12  and  CA_13
REMARK    9  A    between atoms: CA_13  and  C_14
REMARK   10  A    between atoms: CA_13  and  C_27
REMARK   11  A    between atoms: C_14  and  C_15
REMARK   12  A    between atoms: C_18  and  C_19
REMARK   13  A    between atoms: C_27  and  OXT_29
REMARK                            x       y       z     vdW  Elec       q    Type
REMARK                         _______ _______ _______ _____ _____    ______ ____
ROOT
ATOM      1  C   UNL     1       5.214   4.478  18.236  0.00  0.00    +0.000 C 
ATOM      2  O   UNL     1       5.535   3.478  18.887  0.00  0.00    +0.000 OA
ATOM      3  N   UNL     1       3.936   4.961  18.276  0.00  0.00    +0.000 N 
ATOM      4  H   UNL     1       3.604   5.513  17.484  0.00  0.00    +0.000 HD
ENDROOT
BRANCH   1   5
ATOM      5  C   UNL     1       6.225   5.166  17.256  0.00  0.00    +0.000 C 
ATOM      6  C   UNL     1       7.611   4.532  17.514  0.00  0.00    +0.000 C 
ATOM      7  C   UNL     1       8.120   5.274  18.752  0.00  0.00    +0.000 C 
ATOM      8  C   UNL     1       7.579   6.691  18.632  0.00  0.00    +0.000 C 
ATOM      9  C   UNL     1       6.560   6.649  17.503  0.00  0.00    +0.000 C 
BRANCH   5  12
ATOM     10  C   UNL     1       6.649   5.125  14.800  0.00  0.00    +0.000 C 
ATOM     11  O   UNL     1       7.788   5.580  14.942  0.00  0.00    +0.000 OA
ATOM     12  N   UNL     1       5.799   4.922  15.870  0.00  0.00    +0.000 N 
ATOM     13  H   UNL     1       4.809   5.018  15.666  0.00  0.00    +0.000 HD
BRANCH  10  14
ATOM     14  C   UNL     1       6.092   4.705  13.433  0.00  0.00    +0.000 C 
BRANCH  14  15
ATOM     15  S   UNL     1       7.384   5.063  12.179  0.00  0.00    +0.000 S 
ATOM     16  H   UNL     1       7.271   6.400  12.229  0.00  0.00    +0.000 HD
ENDBRANCH  14  15
BRANCH  14  17
ATOM     17  C   UNL     1       5.695   3.218  13.366  0.00  0.00    +0.000 C 
BRANCH  17  19
ATOM     18  C   UNL     1       6.006   1.590  11.438  0.00  0.00    +0.000 C 
ATOM     19  C   UNL     1       5.236   2.796  11.960  0.00  0.00    +0.000 C 
ENDBRANCH  17  19
ENDBRANCH  14  17
ENDBRANCH  10  14
ENDBRANCH   5  12
ENDBRANCH   1   5
BRANCH   3  20
ATOM     20  CA  UNL     1       2.894   4.344  19.109  0.00  0.00    +0.000 C 
BRANCH  20  21
ATOM     21  C   UNL     1       1.758   3.819  18.221  0.00  0.00    +0.000 C 
ATOM     22  O   UNL     1       1.111   2.810  18.491  0.00  0.00    +0.000 OA
BRANCH  21  23
ATOM     23  OXT UNL     1       1.469   4.576  17.142  0.00  0.00    +0.000 OA
ATOM     24  HXT UNL     1       0.574   4.959  17.116  0.00  0.00    +0.000 HD
ENDBRANCH  21  23
ENDBRANCH  20  21
BRANCH  20  25
ATOM     25  C   UNL     1       2.374   5.251  20.241  0.00  0.00    +0.000 C 
BRANCH  25  26
ATOM     26  C   UNL     1       2.131   6.708  19.929  0.00  0.00    +0.000 A 
ATOM     27  C   UNL     1       2.387   7.249  18.668  0.00  0.00    +0.000 A 
ATOM     28  C   UNL     1       1.954   8.544  18.352  0.00  0.00    +0.000 A 
ATOM     29  C   UNL     1       1.250   9.339  19.275  0.00  0.00    +0.000 A 
ATOM     30  C   UNL     1       1.079   8.809  20.564  0.00  0.00    +0.000 A 
ATOM     31  C   UNL     1       1.512   7.518  20.884  0.00  0.00    +0.000 A 
BRANCH  29  32
ATOM     32  C   UNL     1       0.688  10.659  18.892  0.00  0.00    +0.000 A 
ATOM     33  C   UNL     1       1.497  11.812  18.854  0.00  0.00    +0.000 A 
ATOM     34  C   UNL     1       0.968  13.070  18.544  0.00  0.00    +0.000 A 
ATOM     35  C   UNL     1      -0.378  13.200  18.232  0.00  0.00    +0.000 A 
ATOM     36  C   UNL     1      -1.192  12.071  18.212  0.00  0.00    +0.000 A 
ATOM     37  C   UNL     1      -0.664  10.818  18.541  0.00  0.00    +0.000 A 
ENDBRANCH  29  32
ENDBRANCH  25  26
ENDBRANCH  20  25
ENDBRANCH   3  20
TORSDOF 12
ENDMDL
