MODEL 1
REMARK VINA RESULT:      -8.7      0.000      0.000
REMARK  Name = 
REMARK  6 active torsions:
REMARK  status: ('A' for Active; 'I' for Inactive)
REMARK    1  A    between atoms: N_1  and  C_2
REMARK    2  A    between atoms: C_6  and  C_8
REMARK    3  A    between atoms: C_11  and  C_12
REMARK    4  A    between atoms: C_14  and  N_15
REMARK    5  A    between atoms: N_15  and  C_16
REMARK    6  A    between atoms: C_22  and  C_23
REMARK                            x       y       z     vdW  Elec       q    Type
REMARK                         _______ _______ _______ _____ _____    ______ ____
ROOT
ATOM      1  C   UNL     1       0.776  10.251  19.207  0.00  0.00    +0.000 A 
ATOM      2  C   UNL     1      -0.365  10.415  18.254  0.00  0.00    +0.000 A 
ATOM      3  C   UNL     1      -0.870  11.650  18.088  0.00  0.00    +0.000 A 
ATOM      4  N   UNL     1      -0.277  12.714  18.817  0.00  0.00    +0.000 N 
ATOM      5  N   UNL     1      -0.604  14.038  18.763  0.00  0.00    +0.000 NA
ATOM      6  C   UNL     1       0.239  14.623  19.616  0.00  0.00    +0.000 A 
ATOM      7  C   UNL     1       1.107  13.710  20.250  0.00  0.00    +0.000 A 
ATOM      8  C   UNL     1       0.773  12.481  19.713  0.00  0.00    +0.000 A 
ATOM      9  N   UNL     1       1.278  11.226  19.916  0.00  0.00    +0.000 NA
ENDROOT
BRANCH   7  10
ATOM     10  C   UNL     1       2.100  14.017  21.237  0.00  0.00    +0.000 C 
ATOM     11  C   UNL     1       3.351  14.440  21.023  0.00  0.00    +0.000 C 
ATOM     12  N   UNL     1       3.948  14.708  19.826  0.00  0.00    +0.000 N 
ATOM     13  C   UNL     1       5.268  15.058  20.010  0.00  0.00    +0.000 C 
ATOM     14  O   UNL     1       6.058  15.363  19.136  0.00  0.00    +0.000 OA
ATOM     15  N   UNL     1       5.522  15.005  21.358  0.00  0.00    +0.000 N 
ATOM     16  C   UNL     1       4.401  14.663  22.063  0.00  0.00    +0.000 C 
ATOM     17  O   UNL     1       4.277  14.558  23.269  0.00  0.00    +0.000 OA
ATOM     18  H   UNL     1       3.460  14.716  18.938  0.00  0.00    +0.000 HD
ATOM     19  H   UNL     1       6.415  15.218  21.765  0.00  0.00    +0.000 HD
ENDBRANCH   7  10
BRANCH   1  23
ATOM     20  C   UNL     1       2.643   6.815  19.147  0.00  0.00    +0.000 A 
ATOM     21  C   UNL     1       2.129   6.987  20.417  0.00  0.00    +0.000 A 
ATOM     22  C   UNL     1       1.368   8.180  20.549  0.00  0.00    +0.000 A 
ATOM     23  C   UNL     1       1.366   8.935  19.394  0.00  0.00    +0.000 A 
ATOM     24  S   UNL     1       2.264   8.164  18.158  0.00  0.00    +0.000 S 
BRANCH  20  29
ATOM     25  C   UNL     1       1.660   2.483  18.796  0.00  0.00    +0.000 C 
ATOM     26  C   UNL     1       2.745   2.286  17.740  0.00  0.00    +0.000 C 
ATOM     27  C   UNL     1       3.775   3.344  18.114  0.00  0.00    +0.000 C 
ATOM     28  N   UNL     1       2.994   4.444  18.657  0.00  0.00    +0.000 N 
ATOM     29  C   UNL     1       3.468   5.748  18.584  0.00  0.00    +0.000 C 
ATOM     30  O   UNL     1       4.549   5.978  18.041  0.00  0.00    +0.000 OA
ATOM     31  C   UNL     1       1.646   4.004  18.993  0.00  0.00    +0.000 C 
BRANCH  25  32
ATOM     32  N   UNL     1       0.367   1.930  18.415  0.00  0.00    +0.000 NA
ATOM     33  H   UNL     1      -0.330   2.162  19.122  0.00  0.00    +0.000 HD
ATOM     34  H   UNL     1       0.414   0.911  18.391  0.00  0.00    +0.000 HD
ENDBRANCH  25  32
ENDBRANCH  20  29
ENDBRANCH   1  23
BRANCH   3  35
ATOM     35  N   UNL     1      -1.949  11.960  17.261  0.00  0.00    +0.000 N 
ATOM     36  H   UNL     1      -1.681  12.676  16.575  0.00  0.00    +0.000 HD
BRANCH  35  37
ATOM     37  C   UNL     1      -2.834  10.890  16.796  0.00  0.00    +0.000 C 
ATOM     38  C   UNL     1      -4.094  11.174  16.025  0.00  0.00    +0.000 C 
ATOM     39  C   UNL     1      -2.906  10.583  15.327  0.00  0.00    +0.000 C 
ENDBRANCH  35  37
ENDBRANCH   3  35
TORSDOF 6
ENDMDL
MODEL 2
REMARK VINA RESULT:      -8.5      1.183      1.386
REMARK  Name = 
REMARK  6 active torsions:
REMARK  status: ('A' for Active; 'I' for Inactive)
REMARK    1  A    between atoms: N_1  and  C_2
REMARK    2  A    between atoms: C_6  and  C_8
REMARK    3  A    between atoms: C_11  and  C_12
REMARK    4  A    between atoms: C_14  and  N_15
REMARK    5  A    between atoms: N_15  and  C_16
REMARK    6  A    between atoms: C_22  and  C_23
REMARK                            x       y       z     vdW  Elec       q    Type
REMARK                         _______ _______ _______ _____ _____    ______ ____
ROOT
ATOM      1  C   UNL     1       0.955   9.689  18.706  0.00  0.00    +0.000 A 
ATOM      2  C   UNL     1      -0.364   9.572  18.010  0.00  0.00    +0.000 A 
ATOM      3  C   UNL     1      -1.232  10.591  18.136  0.00  0.00    +0.000 A 
ATOM      4  N   UNL     1      -0.833  11.712  18.910  0.00  0.00    +0.000 N 
ATOM      5  N   UNL     1      -1.537  12.861  19.128  0.00  0.00    +0.000 NA
ATOM      6  C   UNL     1      -0.736  13.598  19.901  0.00  0.00    +0.000 A 
ATOM      7  C   UNL     1       0.477  12.954  20.216  0.00  0.00    +0.000 A 
ATOM      8  C   UNL     1       0.409  11.741  19.556  0.00  0.00    +0.000 A 
ATOM      9  N   UNL     1       1.291  10.699  19.461  0.00  0.00    +0.000 NA
ENDROOT
BRANCH   7  10
ATOM     10  C   UNL     1       1.527  13.464  21.047  0.00  0.00    +0.000 C 
ATOM     11  C   UNL     1       2.676  14.024  20.649  0.00  0.00    +0.000 C 
ATOM     12  N   UNL     1       3.087  14.266  19.372  0.00  0.00    +0.000 N 
ATOM     13  C   UNL     1       4.359  14.795  19.364  0.00  0.00    +0.000 C 
ATOM     14  O   UNL     1       4.993  15.125  18.378  0.00  0.00    +0.000 OA
ATOM     15  N   UNL     1       4.774  14.885  20.668  0.00  0.00    +0.000 N 
ATOM     16  C   UNL     1       3.799  14.463  21.531  0.00  0.00    +0.000 C 
ATOM     17  O   UNL     1       3.833  14.442  22.747  0.00  0.00    +0.000 OA
ATOM     18  H   UNL     1       2.502  14.139  18.553  0.00  0.00    +0.000 HD
ATOM     19  H   UNL     1       5.670  15.243  20.945  0.00  0.00    +0.000 HD
ENDBRANCH   7  10
BRANCH   1  23
ATOM     20  C   UNL     1       3.301   6.564  18.858  0.00  0.00    +0.000 A 
ATOM     21  C   UNL     1       3.515   7.186  17.643  0.00  0.00    +0.000 A 
ATOM     22  C   UNL     1       2.759   8.381  17.493  0.00  0.00    +0.000 A 
ATOM     23  C   UNL     1       1.930   8.620  18.571  0.00  0.00    +0.000 A 
ATOM     24  S   UNL     1       2.108   7.403  19.761  0.00  0.00    +0.000 S 
BRANCH  20  29
ATOM     25  C   UNL     1       1.304   2.610  19.336  0.00  0.00    +0.000 C 
ATOM     26  C   UNL     1       2.651   1.907  19.480  0.00  0.00    +0.000 C 
ATOM     27  C   UNL     1       3.529   2.986  20.099  0.00  0.00    +0.000 C 
ATOM     28  N   UNL     1       3.025   4.234  19.550  0.00  0.00    +0.000 N 
ATOM     29  C   UNL     1       3.862   5.335  19.416  0.00  0.00    +0.000 C 
ATOM     30  O   UNL     1       5.044   5.251  19.748  0.00  0.00    +0.000 OA
ATOM     31  C   UNL     1       1.703   4.044  18.965  0.00  0.00    +0.000 C 
BRANCH  25  32
ATOM     32  N   UNL     1       0.417   1.980  18.367  0.00  0.00    +0.000 NA
ATOM     33  H   UNL     1      -0.505   2.414  18.409  0.00  0.00    +0.000 HD
ATOM     34  H   UNL     1       0.276   0.998  18.606  0.00  0.00    +0.000 HD
ENDBRANCH  25  32
ENDBRANCH  20  29
ENDBRANCH   1  23
BRANCH   3  35
ATOM     35  N   UNL     1      -2.509  10.619  17.575  0.00  0.00    +0.000 N 
ATOM     36  H   UNL     1      -3.189  10.986  18.251  0.00  0.00    +0.000 HD
BRANCH  35  37
ATOM     37  C   UNL     1      -2.675  11.021  16.177  0.00  0.00    +0.000 C 
ATOM     38  C   UNL     1      -2.878  10.015  15.076  0.00  0.00    +0.000 C 
ATOM     39  C   UNL     1      -4.021  10.876  15.527  0.00  0.00    +0.000 C 
ENDBRANCH  35  37
ENDBRANCH   3  35
TORSDOF 6
ENDMDL
MODEL 3
REMARK VINA RESULT:      -8.5      3.188      9.850
REMARK  Name = 
REMARK  6 active torsions:
REMARK  status: ('A' for Active; 'I' for Inactive)
REMARK    1  A    between atoms: N_1  and  C_2
REMARK    2  A    between atoms: C_6  and  C_8
REMARK    3  A    between atoms: C_11  and  C_12
REMARK    4  A    between atoms: C_14  and  N_15
REMARK    5  A    between atoms: N_15  and  C_16
REMARK    6  A    between atoms: C_22  and  C_23
REMARK                            x       y       z     vdW  Elec       q    Type
REMARK                         _______ _______ _______ _____ _____    ______ ____
ROOT
ATOM      1  C   UNL     1       2.358   6.458  18.407  0.00  0.00    +0.000 A 
ATOM      2  C   UNL     1       1.487   5.472  19.118  0.00  0.00    +0.000 A 
ATOM      3  C   UNL     1       1.812   4.169  19.029  0.00  0.00    +0.000 A 
ATOM      4  N   UNL     1       2.966   3.822  18.279  0.00  0.00    +0.000 N 
ATOM      5  N   UNL     1       3.494   2.577  18.099  0.00  0.00    +0.000 NA
ATOM      6  C   UNL     1       4.569   2.779  17.335  0.00  0.00    +0.000 A 
ATOM      7  C   UNL     1       4.755   4.133  16.988  0.00  0.00    +0.000 A 
ATOM      8  C   UNL     1       3.720   4.799  17.617  0.00  0.00    +0.000 A 
ATOM      9  N   UNL     1       3.386   6.125  17.673  0.00  0.00    +0.000 NA
ENDROOT
BRANCH   7  10
ATOM     10  C   UNL     1       5.792   4.668  16.156  0.00  0.00    +0.000 C 
ATOM     11  C   UNL     1       6.001   4.417  14.859  0.00  0.00    +0.000 C 
ATOM     12  N   UNL     1       5.258   3.628  14.031  0.00  0.00    +0.000 N 
ATOM     13  C   UNL     1       5.829   3.564  12.779  0.00  0.00    +0.000 C 
ATOM     14  O   UNL     1       5.395   2.949  11.823  0.00  0.00    +0.000 OA
ATOM     15  N   UNL     1       6.971   4.325  12.810  0.00  0.00    +0.000 N 
ATOM     16  C   UNL     1       7.146   4.912  14.034  0.00  0.00    +0.000 C 
ATOM     17  O   UNL     1       8.034   5.666  14.383  0.00  0.00    +0.000 OA
ATOM     18  H   UNL     1       4.371   3.211  14.291  0.00  0.00    +0.000 HD
ATOM     19  H   UNL     1       7.578   4.451  12.021  0.00  0.00    +0.000 HD
ENDBRANCH   7  10
BRANCH   1  23
ATOM     20  C   UNL     1       1.372  10.144  19.262  0.00  0.00    +0.000 A 
ATOM     21  C   UNL     1       2.039  10.162  18.052  0.00  0.00    +0.000 A 
ATOM     22  C   UNL     1       2.396   8.863  17.599  0.00  0.00    +0.000 A 
ATOM     23  C   UNL     1       2.055   7.876  18.502  0.00  0.00    +0.000 A 
ATOM     24  S   UNL     1       1.276   8.544  19.872  0.00  0.00    +0.000 S 
BRANCH  20  29
ATOM     25  C   UNL     1      -2.572  12.178  18.860  0.00  0.00    +0.000 C 
ATOM     26  C   UNL     1      -2.475  12.725  20.281  0.00  0.00    +0.000 C 
ATOM     27  C   UNL     1      -0.973  12.865  20.487  0.00  0.00    +0.000 C 
ATOM     28  N   UNL     1      -0.391  11.779  19.714  0.00  0.00    +0.000 N 
ATOM     29  C   UNL     1       0.834  11.234  20.075  0.00  0.00    +0.000 C 
ATOM     30  O   UNL     1       1.427  11.660  21.066  0.00  0.00    +0.000 OA
ATOM     31  C   UNL     1      -1.362  11.239  18.770  0.00  0.00    +0.000 C 
BRANCH  25  32
ATOM     32  N   UNL     1      -3.843  11.526  18.571  0.00  0.00    +0.000 NA
ATOM     33  H   UNL     1      -3.794  11.061  17.664  0.00  0.00    +0.000 HD
ATOM     34  H   UNL     1      -4.585  12.221  18.490  0.00  0.00    +0.000 HD
ENDBRANCH  25  32
ENDBRANCH  20  29
ENDBRANCH   1  23
BRANCH   3  35
ATOM     35  N   UNL     1       1.085   3.130  19.607  0.00  0.00    +0.000 N 
ATOM     36  H   UNL     1       1.083   2.308  18.992  0.00  0.00    +0.000 HD
BRANCH  35  37
ATOM     37  C   UNL     1       1.196   2.884  21.047  0.00  0.00    +0.000 C 
ATOM     38  C   UNL     1       2.330   2.090  21.635  0.00  0.00    +0.000 C 
ATOM     39  C   UNL     1       2.276   3.577  21.828  0.00  0.00    +0.000 C 
ENDBRANCH  35  37
ENDBRANCH   3  35
TORSDOF 6
ENDMDL
MODEL 4
REMARK VINA RESULT:      -8.5      0.886      1.560
REMARK  Name = 
REMARK  6 active torsions:
REMARK  status: ('A' for Active; 'I' for Inactive)
REMARK    1  A    between atoms: N_1  and  C_2
REMARK    2  A    between atoms: C_6  and  C_8
REMARK    3  A    between atoms: C_11  and  C_12
REMARK    4  A    between atoms: C_14  and  N_15
REMARK    5  A    between atoms: N_15  and  C_16
REMARK    6  A    between atoms: C_22  and  C_23
REMARK                            x       y       z     vdW  Elec       q    Type
REMARK                         _______ _______ _______ _____ _____    ______ ____
ROOT
ATOM      1  C   UNL     1       0.807  10.558  19.003  0.00  0.00    +0.000 A 
ATOM      2  C   UNL     1      -0.675  10.716  18.875  0.00  0.00    +0.000 A 
ATOM      3  C   UNL     1      -1.165  11.963  18.757  0.00  0.00    +0.000 A 
ATOM      4  N   UNL     1      -0.241  13.041  18.749  0.00  0.00    +0.000 N 
ATOM      5  N   UNL     1      -0.519  14.369  18.598  0.00  0.00    +0.000 NA
ATOM      6  C   UNL     1       0.673  14.965  18.650  0.00  0.00    +0.000 A 
ATOM      7  C   UNL     1       1.736  14.062  18.854  0.00  0.00    +0.000 A 
ATOM      8  C   UNL     1       1.133  12.819  18.901  0.00  0.00    +0.000 A 
ATOM      9  N   UNL     1       1.644  11.559  19.051  0.00  0.00    +0.000 NA
ENDROOT
BRANCH   7  10
ATOM     10  C   UNL     1       3.125  14.390  18.987  0.00  0.00    +0.000 C 
ATOM     11  C   UNL     1       3.819  14.528  20.123  0.00  0.00    +0.000 C 
ATOM     12  N   UNL     1       3.373  14.353  21.400  0.00  0.00    +0.000 N 
ATOM     13  C   UNL     1       4.367  14.652  22.306  0.00  0.00    +0.000 C 
ATOM     14  O   UNL     1       4.278  14.582  23.518  0.00  0.00    +0.000 OA
ATOM     15  N   UNL     1       5.473  15.036  21.589  0.00  0.00    +0.000 N 
ATOM     16  C   UNL     1       5.244  14.964  20.242  0.00  0.00    +0.000 C 
ATOM     17  O   UNL     1       6.019  15.204  19.336  0.00  0.00    +0.000 OA
ATOM     18  H   UNL     1       2.459  13.984  21.636  0.00  0.00    +0.000 HD
ATOM     19  H   UNL     1       6.344  15.305  22.011  0.00  0.00    +0.000 HD
ENDBRANCH   7  10
BRANCH   1  23
ATOM     20  C   UNL     1       2.587   7.089  18.705  0.00  0.00    +0.000 A 
ATOM     21  C   UNL     1       2.147   7.219  20.008  0.00  0.00    +0.000 A 
ATOM     22  C   UNL     1       1.421   8.423  20.228  0.00  0.00    +0.000 A 
ATOM     23  C   UNL     1       1.375   9.224  19.105  0.00  0.00    +0.000 A 
ATOM     24  S   UNL     1       2.187   8.485  17.792  0.00  0.00    +0.000 S 
BRANCH  20  29
ATOM     25  C   UNL     1       1.730   2.717  18.655  0.00  0.00    +0.000 C 
ATOM     26  C   UNL     1       2.646   2.515  17.451  0.00  0.00    +0.000 C 
ATOM     27  C   UNL     1       3.679   3.619  17.625  0.00  0.00    +0.000 C 
ATOM     28  N   UNL     1       2.950   4.713  18.246  0.00  0.00    +0.000 N 
ATOM     29  C   UNL     1       3.357   6.028  18.056  0.00  0.00    +0.000 C 
ATOM     30  O   UNL     1       4.331   6.273  17.344  0.00  0.00    +0.000 OA
ATOM     31  C   UNL     1       1.688   4.243  18.802  0.00  0.00    +0.000 C 
BRANCH  25  32
ATOM     32  N   UNL     1       0.416   2.107  18.499  0.00  0.00    +0.000 NA
ATOM     33  H   UNL     1       0.494   1.093  18.580  0.00  0.00    +0.000 HD
ATOM     34  H   UNL     1       0.054   2.286  17.562  0.00  0.00    +0.000 HD
ENDBRANCH  25  32
ENDBRANCH  20  29
ENDBRANCH   1  23
BRANCH   3  35
ATOM     35  N   UNL     1      -2.520  12.277  18.660  0.00  0.00    +0.000 N 
ATOM     36  H   UNL     1      -2.642  13.250  18.355  0.00  0.00    +0.000 HD
BRANCH  35  37
ATOM     37  C   UNL     1      -3.454  11.286  18.120  0.00  0.00    +0.000 C 
ATOM     38  C   UNL     1      -4.751  11.684  17.470  0.00  0.00    +0.000 C 
ATOM     39  C   UNL     1      -3.619  11.169  16.632  0.00  0.00    +0.000 C 
ENDBRANCH  35  37
ENDBRANCH   3  35
TORSDOF 6
ENDMDL
MODEL 5
REMARK VINA RESULT:      -8.2      1.602      1.836
REMARK  Name = 
REMARK  6 active torsions:
REMARK  status: ('A' for Active; 'I' for Inactive)
REMARK    1  A    between atoms: N_1  and  C_2
REMARK    2  A    between atoms: C_6  and  C_8
REMARK    3  A    between atoms: C_11  and  C_12
REMARK    4  A    between atoms: C_14  and  N_15
REMARK    5  A    between atoms: N_15  and  C_16
REMARK    6  A    between atoms: C_22  and  C_23
REMARK                            x       y       z     vdW  Elec       q    Type
REMARK                         _______ _______ _______ _____ _____    ______ ____
ROOT
ATOM      1  C   UNL     1       0.952   9.792  18.701  0.00  0.00    +0.000 A 
ATOM      2  C   UNL     1      -0.493   9.585  18.376  0.00  0.00    +0.000 A 
ATOM      3  C   UNL     1      -1.317  10.643  18.481  0.00  0.00    +0.000 A 
ATOM      4  N   UNL     1      -0.757  11.884  18.880  0.00  0.00    +0.000 N 
ATOM      5  N   UNL     1      -1.401  13.081  19.007  0.00  0.00    +0.000 NA
ATOM      6  C   UNL     1      -0.447  13.931  19.393  0.00  0.00    +0.000 A 
ATOM      7  C   UNL     1       0.813  13.318  19.545  0.00  0.00    +0.000 A 
ATOM      8  C   UNL     1       0.602  11.998  19.195  0.00  0.00    +0.000 A 
ATOM      9  N   UNL     1       1.448  10.924  19.121  0.00  0.00    +0.000 NA
ENDROOT
BRANCH   7  10
ATOM     10  C   UNL     1       2.026  13.949  19.976  0.00  0.00    +0.000 C 
ATOM     11  C   UNL     1       2.640  14.995  19.411  0.00  0.00    +0.000 C 
ATOM     12  N   UNL     1       2.235  15.714  18.326  0.00  0.00    +0.000 N 
ATOM     13  C   UNL     1       3.169  16.675  18.005  0.00  0.00    +0.000 C 
ATOM     14  O   UNL     1       3.087  17.479  17.095  0.00  0.00    +0.000 OA
ATOM     15  N   UNL     1       4.200  16.560  18.902  0.00  0.00    +0.000 N 
ATOM     16  C   UNL     1       3.955  15.577  19.821  0.00  0.00    +0.000 C 
ATOM     17  O   UNL     1       4.647  15.241  20.763  0.00  0.00    +0.000 OA
ATOM     18  H   UNL     1       1.336  15.598  17.872  0.00  0.00    +0.000 HD
ATOM     19  H   UNL     1       5.015  17.148  18.893  0.00  0.00    +0.000 HD
ENDBRANCH   7  10
BRANCH   1  23
ATOM     20  C   UNL     1       3.185   6.588  18.898  0.00  0.00    +0.000 A 
ATOM     21  C   UNL     1       3.358   7.138  17.642  0.00  0.00    +0.000 A 
ATOM     22  C   UNL     1       2.640   8.353  17.469  0.00  0.00    +0.000 A 
ATOM     23  C   UNL     1       1.878   8.679  18.573  0.00  0.00    +0.000 A 
ATOM     24  S   UNL     1       2.073   7.518  19.814  0.00  0.00    +0.000 S 
BRANCH  20  29
ATOM     25  C   UNL     1       1.197   2.622  19.313  0.00  0.00    +0.000 C 
ATOM     26  C   UNL     1       2.541   1.931  19.525  0.00  0.00    +0.000 C 
ATOM     27  C   UNL     1       3.382   3.020  20.175  0.00  0.00    +0.000 C 
ATOM     28  N   UNL     1       2.894   4.260  19.594  0.00  0.00    +0.000 N 
ATOM     29  C   UNL     1       3.728   5.366  19.490  0.00  0.00    +0.000 C 
ATOM     30  O   UNL     1       4.895   5.294  19.877  0.00  0.00    +0.000 OA
ATOM     31  C   UNL     1       1.602   4.056  18.950  0.00  0.00    +0.000 C 
BRANCH  25  32
ATOM     32  N   UNL     1       0.360   1.978  18.309  0.00  0.00    +0.000 NA
ATOM     33  H   UNL     1      -0.264   2.666  17.887  0.00  0.00    +0.000 HD
ATOM     34  H   UNL     1      -0.245   1.284  18.748  0.00  0.00    +0.000 HD
ENDBRANCH  25  32
ENDBRANCH  20  29
ENDBRANCH   1  23
BRANCH   3  35
ATOM     35  N   UNL     1      -2.691  10.604  18.243  0.00  0.00    +0.000 N 
ATOM     36  H   UNL     1      -3.150  11.424  18.658  0.00  0.00    +0.000 HD
BRANCH  35  37
ATOM     37  C   UNL     1      -3.186  10.149  16.942  0.00  0.00    +0.000 C 
ATOM     38  C   UNL     1      -4.179  10.948  16.143  0.00  0.00    +0.000 C 
ATOM     39  C   UNL     1      -2.749  10.869  15.698  0.00  0.00    +0.000 C 
ENDBRANCH  35  37
ENDBRANCH   3  35
TORSDOF 6
ENDMDL
MODEL 6
REMARK VINA RESULT:      -8.2      1.291      1.923
REMARK  Name = 
REMARK  6 active torsions:
REMARK  status: ('A' for Active; 'I' for Inactive)
REMARK    1  A    between atoms: N_1  and  C_2
REMARK    2  A    between atoms: C_6  and  C_8
REMARK    3  A    between atoms: C_11  and  C_12
REMARK    4  A    between atoms: C_14  and  N_15
REMARK    5  A    between atoms: N_15  and  C_16
REMARK    6  A    between atoms: C_22  and  C_23
REMARK                            x       y       z     vdW  Elec       q    Type
REMARK                         _______ _______ _______ _____ _____    ______ ____
ROOT
ATOM      1  C   UNL     1       1.261   9.822  18.458  0.00  0.00    +0.000 A 
ATOM      2  C   UNL     1      -0.224   9.641  18.468  0.00  0.00    +0.000 A 
ATOM      3  C   UNL     1      -0.990  10.746  18.506  0.00  0.00    +0.000 A 
ATOM      4  N   UNL     1      -0.337  12.007  18.520  0.00  0.00    +0.000 N 
ATOM      5  N   UNL     1      -0.919  13.241  18.514  0.00  0.00    +0.000 NA
ATOM      6  C   UNL     1       0.108  14.092  18.522  0.00  0.00    +0.000 A 
ATOM      7  C   UNL     1       1.362  13.448  18.553  0.00  0.00    +0.000 A 
ATOM      8  C   UNL     1       1.060  12.099  18.536  0.00  0.00    +0.000 A 
ATOM      9  N   UNL     1       1.852  10.983  18.528  0.00  0.00    +0.000 NA
ENDROOT
BRANCH   7  10
ATOM     10  C   UNL     1       2.648  14.078  18.601  0.00  0.00    +0.000 C 
ATOM     11  C   UNL     1       3.400  14.304  19.684  0.00  0.00    +0.000 C 
ATOM     12  N   UNL     1       3.130  13.954  20.974  0.00  0.00    +0.000 N 
ATOM     13  C   UNL     1       4.115  14.419  21.819  0.00  0.00    +0.000 C 
ATOM     14  O   UNL     1       4.162  14.257  23.024  0.00  0.00    +0.000 OA
ATOM     15  N   UNL     1       5.032  15.090  21.049  0.00  0.00    +0.000 N 
ATOM     16  C   UNL     1       4.695  15.049  19.723  0.00  0.00    +0.000 C 
ATOM     17  O   UNL     1       5.305  15.515  18.780  0.00  0.00    +0.000 OA
ATOM     18  H   UNL     1       2.349  13.370  21.253  0.00  0.00    +0.000 HD
ATOM     19  H   UNL     1       5.856  15.527  21.419  0.00  0.00    +0.000 HD
ENDBRANCH   7  10
BRANCH   1  23
ATOM     20  C   UNL     1       3.303   6.507  18.826  0.00  0.00    +0.000 A 
ATOM     21  C   UNL     1       3.510   6.983  17.546  0.00  0.00    +0.000 A 
ATOM     22  C   UNL     1       2.865   8.228  17.308  0.00  0.00    +0.000 A 
ATOM     23  C   UNL     1       2.121   8.652  18.390  0.00  0.00    +0.000 A 
ATOM     24  S   UNL     1       2.245   7.545  19.689  0.00  0.00    +0.000 S 
BRANCH  20  29
ATOM     25  C   UNL     1       1.130   2.649  19.318  0.00  0.00    +0.000 C 
ATOM     26  C   UNL     1       2.435   1.909  19.601  0.00  0.00    +0.000 C 
ATOM     27  C   UNL     1       3.301   2.986  20.240  0.00  0.00    +0.000 C 
ATOM     28  N   UNL     1       2.887   4.223  19.597  0.00  0.00    +0.000 N 
ATOM     29  C   UNL     1       3.772   5.287  19.481  0.00  0.00    +0.000 C 
ATOM     30  O   UNL     1       4.921   5.180  19.911  0.00  0.00    +0.000 OA
ATOM     31  C   UNL     1       1.610   4.049  18.917  0.00  0.00    +0.000 C 
BRANCH  25  32
ATOM     32  N   UNL     1       0.299   2.003  18.310  0.00  0.00    +0.000 NA
ATOM     33  H   UNL     1       0.348   0.990  18.419  0.00  0.00    +0.000 HD
ATOM     34  H   UNL     1       0.659   2.202  17.377  0.00  0.00    +0.000 HD
ENDBRANCH  25  32
ENDBRANCH  20  29
ENDBRANCH   1  23
BRANCH   3  35
ATOM     35  N   UNL     1      -2.384  10.743  18.551  0.00  0.00    +0.000 N 
ATOM     36  H   UNL     1      -2.728  11.575  19.045  0.00  0.00    +0.000 HD
BRANCH  35  37
ATOM     37  C   UNL     1      -3.143  10.303  17.379  0.00  0.00    +0.000 C 
ATOM     38  C   UNL     1      -4.061  11.229  16.628  0.00  0.00    +0.000 C 
ATOM     39  C   UNL     1      -2.755  10.811  16.019  0.00  0.00    +0.000 C 
ENDBRANCH  35  37
ENDBRANCH   3  35
TORSDOF 6
ENDMDL
MODEL 7
REMARK VINA RESULT:      -8.0      3.076      9.231
REMARK  Name = 
REMARK  6 active torsions:
REMARK  status: ('A' for Active; 'I' for Inactive)
REMARK    1  A    between atoms: N_1  and  C_2
REMARK    2  A    between atoms: C_6  and  C_8
REMARK    3  A    between atoms: C_11  and  C_12
REMARK    4  A    between atoms: C_14  and  N_15
REMARK    5  A    between atoms: N_15  and  C_16
REMARK    6  A    between atoms: C_22  and  C_23
REMARK                            x       y       z     vdW  Elec       q    Type
REMARK                         _______ _______ _______ _____ _____    ______ ____
ROOT
ATOM      1  C   UNL     1       2.054   6.286  18.654  0.00  0.00    +0.000 A 
ATOM      2  C   UNL     1       1.185   5.403  19.491  0.00  0.00    +0.000 A 
ATOM      3  C   UNL     1       1.407   4.077  19.443  0.00  0.00    +0.000 A 
ATOM      4  N   UNL     1       2.458   3.609  18.612  0.00  0.00    +0.000 N 
ATOM      5  N   UNL     1       2.876   2.320  18.452  0.00  0.00    +0.000 NA
ATOM      6  C   UNL     1       3.887   2.404  17.585  0.00  0.00    +0.000 A 
ATOM      7  C   UNL     1       4.136   3.722  17.151  0.00  0.00    +0.000 A 
ATOM      8  C   UNL     1       3.215   4.493  17.834  0.00  0.00    +0.000 A 
ATOM      9  N   UNL     1       2.982   5.842  17.849  0.00  0.00    +0.000 NA
ENDROOT
BRANCH   7  10
ATOM     10  C   UNL     1       5.126   4.138  16.202  0.00  0.00    +0.000 C 
ATOM     11  C   UNL     1       6.088   5.049  16.383  0.00  0.00    +0.000 C 
ATOM     12  N   UNL     1       6.365   5.757  17.515  0.00  0.00    +0.000 N 
ATOM     13  C   UNL     1       7.391   6.650  17.290  0.00  0.00    +0.000 C 
ATOM     14  O   UNL     1       7.870   7.412  18.109  0.00  0.00    +0.000 OA
ATOM     15  N   UNL     1       7.772   6.514  15.979  0.00  0.00    +0.000 N 
ATOM     16  C   UNL     1       7.051   5.537  15.349  0.00  0.00    +0.000 C 
ATOM     17  O   UNL     1       7.160   5.149  14.201  0.00  0.00    +0.000 OA
ATOM     18  H   UNL     1       5.922   5.589  18.411  0.00  0.00    +0.000 HD
ATOM     19  H   UNL     1       8.508   7.050  15.555  0.00  0.00    +0.000 HD
ENDBRANCH   7  10
BRANCH   1  23
ATOM     20  C   UNL     1       1.380  10.067  19.386  0.00  0.00    +0.000 A 
ATOM     21  C   UNL     1       2.007   9.988  18.158  0.00  0.00    +0.000 A 
ATOM     22  C   UNL     1       2.250   8.648  17.748  0.00  0.00    +0.000 A 
ATOM     23  C   UNL     1       1.863   7.726  18.700  0.00  0.00    +0.000 A 
ATOM     24  S   UNL     1       1.182   8.504  20.063  0.00  0.00    +0.000 S 
BRANCH  20  29
ATOM     25  C   UNL     1      -2.365  12.443  18.952  0.00  0.00    +0.000 C 
ATOM     26  C   UNL     1      -2.203  13.021  20.355  0.00  0.00    +0.000 C 
ATOM     27  C   UNL     1      -0.692  13.028  20.545  0.00  0.00    +0.000 C 
ATOM     28  N   UNL     1      -0.221  11.870  19.801  0.00  0.00    +0.000 N 
ATOM     29  C   UNL     1       0.953  11.226  20.170  0.00  0.00    +0.000 C 
ATOM     30  O   UNL     1       1.593  11.625  21.142  0.00  0.00    +0.000 OA
ATOM     31  C   UNL     1      -1.248  11.394  18.882  0.00  0.00    +0.000 C 
BRANCH  25  32
ATOM     32  N   UNL     1      -3.693  11.902  18.693  0.00  0.00    +0.000 NA
ATOM     33  H   UNL     1      -4.387  12.416  19.235  0.00  0.00    +0.000 HD
ATOM     34  H   UNL     1      -3.748  10.935  19.013  0.00  0.00    +0.000 HD
ENDBRANCH  25  32
ENDBRANCH  20  29
ENDBRANCH   1  23
BRANCH   3  35
ATOM     35  N   UNL     1       0.664   3.124  20.139  0.00  0.00    +0.000 N 
ATOM     36  H   UNL     1       0.369   2.369  19.509  0.00  0.00    +0.000 HD
BRANCH  35  37
ATOM     37  C   UNL     1       1.069   2.740  21.494  0.00  0.00    +0.000 C 
ATOM     38  C   UNL     1       2.301   1.917  21.755  0.00  0.00    +0.000 C 
ATOM     39  C   UNL     1       2.286   3.376  22.103  0.00  0.00    +0.000 C 
ENDBRANCH  35  37
ENDBRANCH   3  35
TORSDOF 6
ENDMDL
MODEL 8
REMARK VINA RESULT:      -8.0      1.527      2.338
REMARK  Name = 
REMARK  6 active torsions:
REMARK  status: ('A' for Active; 'I' for Inactive)
REMARK    1  A    between atoms: N_1  and  C_2
REMARK    2  A    between atoms: C_6  and  C_8
REMARK    3  A    between atoms: C_11  and  C_12
REMARK    4  A    between atoms: C_14  and  N_15
REMARK    5  A    between atoms: N_15  and  C_16
REMARK    6  A    between atoms: C_22  and  C_23
REMARK                            x       y       z     vdW  Elec       q    Type
REMARK                         _______ _______ _______ _____ _____    ______ ____
ROOT
ATOM      1  C   UNL     1       0.819  10.143  19.069  0.00  0.00    +0.000 A 
ATOM      2  C   UNL     1      -0.350  10.368  18.163  0.00  0.00    +0.000 A 
ATOM      3  C   UNL     1      -0.843  11.617  18.074  0.00  0.00    +0.000 A 
ATOM      4  N   UNL     1      -0.212  12.636  18.834  0.00  0.00    +0.000 N 
ATOM      5  N   UNL     1      -0.522  13.965  18.856  0.00  0.00    +0.000 NA
ATOM      6  C   UNL     1       0.356  14.496  19.708  0.00  0.00    +0.000 A 
ATOM      7  C   UNL     1       1.231  13.543  20.268  0.00  0.00    +0.000 A 
ATOM      8  C   UNL     1       0.863  12.346  19.683  0.00  0.00    +0.000 A 
ATOM      9  N   UNL     1       1.357  11.076  19.807  0.00  0.00    +0.000 NA
ENDROOT
BRANCH   7  10
ATOM     10  C   UNL     1       2.260  13.789  21.236  0.00  0.00    +0.000 C 
ATOM     11  C   UNL     1       3.485  14.275  21.009  0.00  0.00    +0.000 C 
ATOM     12  N   UNL     1       4.016  14.678  19.819  0.00  0.00    +0.000 N 
ATOM     13  C   UNL     1       5.332  15.057  19.978  0.00  0.00    +0.000 C 
ATOM     14  O   UNL     1       6.069  15.473  19.104  0.00  0.00    +0.000 OA
ATOM     15  N   UNL     1       5.651  14.882  21.301  0.00  0.00    +0.000 N 
ATOM     16  C   UNL     1       4.576  14.434  22.019  0.00  0.00    +0.000 C 
ATOM     17  O   UNL     1       4.513  14.209  23.213  0.00  0.00    +0.000 OA
ATOM     18  H   UNL     1       3.486  14.755  18.958  0.00  0.00    +0.000 HD
ATOM     19  H   UNL     1       6.555  15.088  21.688  0.00  0.00    +0.000 HD
ENDBRANCH   7  10
BRANCH   1  23
ATOM     20  C   UNL     1       2.473   6.617  18.718  0.00  0.00    +0.000 A 
ATOM     21  C   UNL     1       2.372   6.896  20.067  0.00  0.00    +0.000 A 
ATOM     22  C   UNL     1       1.724   8.135  20.328  0.00  0.00    +0.000 A 
ATOM     23  C   UNL     1       1.397   8.813  19.171  0.00  0.00    +0.000 A 
ATOM     24  S   UNL     1       1.855   7.918  17.787  0.00  0.00    +0.000 S 
BRANCH  20  29
ATOM     25  C   UNL     1       6.353   6.427  16.535  0.00  0.00    +0.000 C 
ATOM     26  C   UNL     1       6.354   4.902  16.599  0.00  0.00    +0.000 C 
ATOM     27  C   UNL     1       4.870   4.563  16.612  0.00  0.00    +0.000 C 
ATOM     28  N   UNL     1       4.246   5.665  17.326  0.00  0.00    +0.000 N 
ATOM     29  C   UNL     1       3.056   5.474  18.018  0.00  0.00    +0.000 C 
ATOM     30  O   UNL     1       2.534   4.360  18.042  0.00  0.00    +0.000 OA
ATOM     31  C   UNL     1       5.151   6.805  17.410  0.00  0.00    +0.000 C 
BRANCH  25  32
ATOM     32  N   UNL     1       7.606   7.031  16.969  0.00  0.00    +0.000 NA
ATOM     33  H   UNL     1       8.391   6.548  16.534  0.00  0.00    +0.000 HD
ATOM     34  H   UNL     1       7.725   6.911  17.975  0.00  0.00    +0.000 HD
ENDBRANCH  25  32
ENDBRANCH  20  29
ENDBRANCH   1  23
BRANCH   3  35
ATOM     35  N   UNL     1      -1.944  11.980  17.299  0.00  0.00    +0.000 N 
ATOM     36  H   UNL     1      -1.689  12.726  16.642  0.00  0.00    +0.000 HD
BRANCH  35  37
ATOM     37  C   UNL     1      -2.857  10.944  16.811  0.00  0.00    +0.000 C 
ATOM     38  C   UNL     1      -4.121  11.281  16.069  0.00  0.00    +0.000 C 
ATOM     39  C   UNL     1      -2.955  10.691  15.333  0.00  0.00    +0.000 C 
ENDBRANCH  35  37
ENDBRANCH   3  35
TORSDOF 6
ENDMDL
MODEL 9
REMARK VINA RESULT:      -8.0      3.410      5.667
REMARK  Name = 
REMARK  6 active torsions:
REMARK  status: ('A' for Active; 'I' for Inactive)
REMARK    1  A    between atoms: N_1  and  C_2
REMARK    2  A    between atoms: C_6  and  C_8
REMARK    3  A    between atoms: C_11  and  C_12
REMARK    4  A    between atoms: C_14  and  N_15
REMARK    5  A    between atoms: N_15  and  C_16
REMARK    6  A    between atoms: C_22  and  C_23
REMARK                            x       y       z     vdW  Elec       q    Type
REMARK                         _______ _______ _______ _____ _____    ______ ____
ROOT
ATOM      1  C   UNL     1       1.107  10.905  19.291  0.00  0.00    +0.000 A 
ATOM      2  C   UNL     1       2.108  11.742  18.560  0.00  0.00    +0.000 A 
ATOM      3  C   UNL     1       1.836  13.051  18.404  0.00  0.00    +0.000 A 
ATOM      4  N   UNL     1       0.626  13.548  18.954  0.00  0.00    +0.000 N 
ATOM      5  N   UNL     1       0.182  14.839  18.947  0.00  0.00    +0.000 NA
ATOM      6  C   UNL     1      -0.986  14.791  19.590  0.00  0.00    +0.000 A 
ATOM      7  C   UNL     1      -1.336  13.491  20.007  0.00  0.00    +0.000 A 
ATOM      8  C   UNL     1      -0.278  12.699  19.603  0.00  0.00    +0.000 A 
ATOM      9  N   UNL     1      -0.030  11.360  19.744  0.00  0.00    +0.000 NA
ENDROOT
BRANCH   7  10
ATOM     10  C   UNL     1      -2.536  13.104  20.690  0.00  0.00    +0.000 C 
ATOM     11  C   UNL     1      -3.667  12.645  20.142  0.00  0.00    +0.000 C 
ATOM     12  N   UNL     1      -3.919  12.407  18.824  0.00  0.00    +0.000 N 
ATOM     13  C   UNL     1      -5.223  12.000  18.645  0.00  0.00    +0.000 C 
ATOM     14  O   UNL     1      -5.744  11.704  17.585  0.00  0.00    +0.000 OA
ATOM     15  N   UNL     1      -5.821  11.986  19.880  0.00  0.00    +0.000 N 
ATOM     16  C   UNL     1      -4.939  12.338  20.865  0.00  0.00    +0.000 C 
ATOM     17  O   UNL     1      -5.138  12.396  22.064  0.00  0.00    +0.000 OA
ATOM     18  H   UNL     1      -3.217  12.455  18.094  0.00  0.00    +0.000 HD
ATOM     19  H   UNL     1      -6.778  11.722  20.033  0.00  0.00    +0.000 HD
ENDBRANCH   7  10
BRANCH   1  23
ATOM     20  C   UNL     1       2.170   7.142  19.323  0.00  0.00    +0.000 A 
ATOM     21  C   UNL     1       1.617   7.428  20.556  0.00  0.00    +0.000 A 
ATOM     22  C   UNL     1       1.129   8.761  20.647  0.00  0.00    +0.000 A 
ATOM     23  C   UNL     1       1.378   9.493  19.503  0.00  0.00    +0.000 A 
ATOM     24  S   UNL     1       2.171   8.538  18.326  0.00  0.00    +0.000 S 
BRANCH  20  29
ATOM     25  C   UNL     1       2.483   3.180  21.337  0.00  0.00    +0.000 C 
ATOM     26  C   UNL     1       2.748   2.484  20.004  0.00  0.00    +0.000 C 
ATOM     27  C   UNL     1       3.438   3.568  19.189  0.00  0.00    +0.000 C 
ATOM     28  N   UNL     1       2.843   4.812  19.649  0.00  0.00    +0.000 N 
ATOM     29  C   UNL     1       2.779   5.917  18.808  0.00  0.00    +0.000 C 
ATOM     30  O   UNL     1       3.215   5.839  17.660  0.00  0.00    +0.000 OA
ATOM     31  C   UNL     1       2.144   4.614  20.913  0.00  0.00    +0.000 C 
BRANCH  25  32
ATOM     32  N   UNL     1       1.442   2.542  22.132  0.00  0.00    +0.000 NA
ATOM     33  H   UNL     1       0.667   3.191  22.270  0.00  0.00    +0.000 HD
ATOM     34  H   UNL     1       1.795   2.325  23.065  0.00  0.00    +0.000 HD
ENDBRANCH  25  32
ENDBRANCH  20  29
ENDBRANCH   1  23
BRANCH   3  35
ATOM     35  N   UNL     1       2.652  13.953  17.722  0.00  0.00    +0.000 N 
ATOM     36  H   UNL     1       2.095  14.516  17.068  0.00  0.00    +0.000 HD
BRANCH  35  37
ATOM     37  C   UNL     1       3.730  14.637  18.439  0.00  0.00    +0.000 C 
ATOM     38  C   UNL     1       5.063  14.915  17.798  0.00  0.00    +0.000 C 
ATOM     39  C   UNL     1       4.100  16.039  18.046  0.00  0.00    +0.000 C 
ENDBRANCH  35  37
ENDBRANCH   3  35
TORSDOF 6
ENDMDL
