MODEL 1
REMARK VINA RESULT:      -7.0      0.000      0.000
REMARK  Name = 
REMARK  8 active torsions:
REMARK  status: ('A' for Active; 'I' for Inactive)
REMARK    1  A    between atoms: C_1  and  C_2
REMARK    2  A    between atoms: C_2  and  O_3
REMARK    3  A    between atoms: O_3  and  C_4
REMARK    4  A    between atoms: C_7  and  N_8
REMARK    5  A    between atoms: N_11  and  C_12
REMARK    6  A    between atoms: C_15  and  N_16
REMARK    7  A    between atoms: N_16  and  C_17
REMARK    8  A    between atoms: C_18  and  C_19
REMARK                            x       y       z     vdW  Elec       q    Type
REMARK                         _______ _______ _______ _____ _____    ______ ____
ROOT
ATOM      1  N   UNL     1       8.542   7.723  18.972  0.00  0.00    +0.000 N 
ATOM      2  C   UNL     1       8.547   9.065  18.615  0.00  0.00    +0.000 C 
ATOM      3  O   UNL     1       7.724   9.594  17.877  0.00  0.00    +0.000 OA
ATOM      4  N   UNL     1       9.629   9.730  19.168  0.00  0.00    +0.000 N 
ATOM      5  H   UNL     1       8.914   7.519  19.888  0.00  0.00    +0.000 HD
ATOM      6  H   UNL     1      10.456   9.161  19.274  0.00  0.00    +0.000 HD
ENDROOT
BRANCH   1  10
ATOM      7  C   UNL     1       6.005   4.812  17.257  0.00  0.00    +0.000 A 
ATOM      8  C   UNL     1       6.481   5.865  16.482  0.00  0.00    +0.000 A 
ATOM      9  C   UNL     1       7.336   6.820  17.030  0.00  0.00    +0.000 A 
ATOM     10  C   UNL     1       7.705   6.753  18.376  0.00  0.00    +0.000 A 
ATOM     11  C   UNL     1       7.241   5.688  19.154  0.00  0.00    +0.000 A 
ATOM     12  C   UNL     1       6.380   4.726  18.598  0.00  0.00    +0.000 A 
BRANCH   7  13
ATOM     13  O   UNL     1       5.172   3.956  16.596  0.00  0.00    +0.000 OA
BRANCH  13  15
ATOM     14  C   UNL     1       3.004   4.353  17.474  0.00  0.00    +0.000 C 
ATOM     15  C   UNL     1       4.136   3.346  17.359  0.00  0.00    +0.000 C 
ENDBRANCH  13  15
ENDBRANCH   7  13
ENDBRANCH   1  10
BRANCH   4  16
ATOM     16  C   UNL     1       9.840  11.106  18.937  0.00  0.00    +0.000 A 
ATOM     17  C   UNL     1      10.437  11.586  17.775  0.00  0.00    +0.000 A 
ATOM     18  C   UNL     1      10.631  12.967  17.582  0.00  0.00    +0.000 A 
ATOM     19  C   UNL     1      10.251  13.925  18.536  0.00  0.00    +0.000 A 
ATOM     20  C   UNL     1       9.668  13.403  19.708  0.00  0.00    +0.000 A 
ATOM     21  C   UNL     1       9.437  12.025  19.895  0.00  0.00    +0.000 A 
BRANCH  19  22
ATOM     22  N   UNL     1      10.434  15.358  18.334  0.00  0.00    +0.000 N 
ATOM     23  C   UNL     1      11.728  15.966  18.641  0.00  0.00    +0.000 C 
ATOM     24  C   UNL     1       9.387  16.211  17.910  0.00  0.00    +0.000 C 
ATOM     25  C   UNL     1       9.699  17.695  17.803  0.00  0.00    +0.000 C 
ATOM     26  O   UNL     1       8.244  15.868  17.607  0.00  0.00    +0.000 OA
ENDBRANCH  19  22
ENDBRANCH   4  16
TORSDOF 5
ENDMDL
MODEL 2
REMARK VINA RESULT:      -7.0      1.850      2.206
REMARK  Name = 
REMARK  8 active torsions:
REMARK  status: ('A' for Active; 'I' for Inactive)
REMARK    1  A    between atoms: C_1  and  C_2
REMARK    2  A    between atoms: C_2  and  O_3
REMARK    3  A    between atoms: O_3  and  C_4
REMARK    4  A    between atoms: C_7  and  N_8
REMARK    5  A    between atoms: N_11  and  C_12
REMARK    6  A    between atoms: C_15  and  N_16
REMARK    7  A    between atoms: N_16  and  C_17
REMARK    8  A    between atoms: C_18  and  C_19
REMARK                            x       y       z     vdW  Elec       q    Type
REMARK                         _______ _______ _______ _____ _____    ______ ____
ROOT
ATOM      1  N   UNL     1       7.818   7.063  18.299  0.00  0.00    +0.000 N 
ATOM      2  C   UNL     1       8.085   8.417  18.144  0.00  0.00    +0.000 C 
ATOM      3  O   UNL     1       7.638   9.118  17.244  0.00  0.00    +0.000 OA
ATOM      4  N   UNL     1       8.958   8.873  19.119  0.00  0.00    +0.000 N 
ATOM      5  H   UNL     1       7.815   6.730  19.252  0.00  0.00    +0.000 HD
ATOM      6  H   UNL     1       9.631   8.187  19.428  0.00  0.00    +0.000 HD
ENDROOT
BRANCH   1  10
ATOM      7  C   UNL     1       5.815   4.771  15.369  0.00  0.00    +0.000 A 
ATOM      8  C   UNL     1       6.992   4.296  15.941  0.00  0.00    +0.000 A 
ATOM      9  C   UNL     1       7.651   5.034  16.924  0.00  0.00    +0.000 A 
ATOM     10  C   UNL     1       7.157   6.275  17.330  0.00  0.00    +0.000 A 
ATOM     11  C   UNL     1       5.966   6.748  16.770  0.00  0.00    +0.000 A 
ATOM     12  C   UNL     1       5.304   6.003  15.779  0.00  0.00    +0.000 A 
BRANCH   7  13
ATOM     13  O   UNL     1       5.280   3.953  14.416  0.00  0.00    +0.000 OA
BRANCH  13  15
ATOM     14  C   UNL     1       5.114   3.376  12.120  0.00  0.00    +0.000 C 
ATOM     15  C   UNL     1       6.068   3.718  13.252  0.00  0.00    +0.000 C 
ENDBRANCH  13  15
ENDBRANCH   7  13
ENDBRANCH   1  10
BRANCH   4  16
ATOM     16  C   UNL     1       9.375  10.221  19.156  0.00  0.00    +0.000 A 
ATOM     17  C   UNL     1       9.832  10.894  18.027  0.00  0.00    +0.000 A 
ATOM     18  C   UNL     1      10.241  12.239  18.105  0.00  0.00    +0.000 A 
ATOM     19  C   UNL     1      10.222  12.966  19.307  0.00  0.00    +0.000 A 
ATOM     20  C   UNL     1       9.772  12.249  20.433  0.00  0.00    +0.000 A 
ATOM     21  C   UNL     1       9.328  10.913  20.357  0.00  0.00    +0.000 A 
BRANCH  19  22
ATOM     22  N   UNL     1      10.627  14.365  19.390  0.00  0.00    +0.000 N 
ATOM     23  C   UNL     1      12.043  14.693  19.552  0.00  0.00    +0.000 C 
ATOM     24  C   UNL     1       9.698  15.433  19.387  0.00  0.00    +0.000 C 
ATOM     25  C   UNL     1      10.254  16.839  19.546  0.00  0.00    +0.000 C 
ATOM     26  O   UNL     1       8.478  15.338  19.256  0.00  0.00    +0.000 OA
ENDBRANCH  19  22
ENDBRANCH   4  16
TORSDOF 5
ENDMDL
MODEL 3
REMARK VINA RESULT:      -7.0      7.326      8.361
REMARK  Name = 
REMARK  8 active torsions:
REMARK  status: ('A' for Active; 'I' for Inactive)
REMARK    1  A    between atoms: C_1  and  C_2
REMARK    2  A    between atoms: C_2  and  O_3
REMARK    3  A    between atoms: O_3  and  C_4
REMARK    4  A    between atoms: C_7  and  N_8
REMARK    5  A    between atoms: N_11  and  C_12
REMARK    6  A    between atoms: C_15  and  N_16
REMARK    7  A    between atoms: N_16  and  C_17
REMARK    8  A    between atoms: C_18  and  C_19
REMARK                            x       y       z     vdW  Elec       q    Type
REMARK                         _______ _______ _______ _____ _____    ______ ____
ROOT
ATOM      1  N   UNL     1       2.873   5.901  20.143  0.00  0.00    +0.000 N 
ATOM      2  C   UNL     1       2.212   7.113  19.997  0.00  0.00    +0.000 C 
ATOM      3  O   UNL     1       2.087   7.716  18.938  0.00  0.00    +0.000 OA
ATOM      4  N   UNL     1       1.742   7.580  21.214  0.00  0.00    +0.000 N 
ATOM      5  H   UNL     1       2.518   5.300  20.872  0.00  0.00    +0.000 HD
ATOM      6  H   UNL     1       2.318   7.332  22.004  0.00  0.00    +0.000 HD
ENDROOT
BRANCH   1  10
ATOM      7  C   UNL     1       5.154   4.124  17.062  0.00  0.00    +0.000 A 
ATOM      8  C   UNL     1       5.788   4.840  18.074  0.00  0.00    +0.000 A 
ATOM      9  C   UNL     1       5.048   5.413  19.107  0.00  0.00    +0.000 A 
ATOM     10  C   UNL     1       3.656   5.304  19.129  0.00  0.00    +0.000 A 
ATOM     11  C   UNL     1       3.017   4.571  18.123  0.00  0.00    +0.000 A 
ATOM     12  C   UNL     1       3.765   3.994  17.083  0.00  0.00    +0.000 A 
BRANCH   7  13
ATOM     13  O   UNL     1       5.997   3.624  16.112  0.00  0.00    +0.000 OA
BRANCH  13  15
ATOM     14  C   UNL     1       6.106   3.954  13.764  0.00  0.00    +0.000 C 
ATOM     15  C   UNL     1       6.465   4.535  15.122  0.00  0.00    +0.000 C 
ENDBRANCH  13  15
ENDBRANCH   7  13
ENDBRANCH   1  10
BRANCH   4  16
ATOM     16  C   UNL     1       1.039   8.801  21.307  0.00  0.00    +0.000 A 
ATOM     17  C   UNL     1       0.978   9.712  20.257  0.00  0.00    +0.000 A 
ATOM     18  C   UNL     1       0.268  10.920  20.391  0.00  0.00    +0.000 A 
ATOM     19  C   UNL     1      -0.401  11.277  21.573  0.00  0.00    +0.000 A 
ATOM     20  C   UNL     1      -0.303  10.341  22.622  0.00  0.00    +0.000 A 
ATOM     21  C   UNL     1       0.376   9.113  22.486  0.00  0.00    +0.000 A 
BRANCH  19  22
ATOM     22  N   UNL     1      -1.153  12.519  21.711  0.00  0.00    +0.000 N 
ATOM     23  C   UNL     1      -2.584  12.527  21.411  0.00  0.00    +0.000 C 
ATOM     24  C   UNL     1      -0.545  13.748  22.063  0.00  0.00    +0.000 C 
ATOM     25  C   UNL     1      -1.437  14.978  22.106  0.00  0.00    +0.000 C 
ATOM     26  O   UNL     1       0.640  13.919  22.350  0.00  0.00    +0.000 OA
ENDBRANCH  19  22
ENDBRANCH   4  16
TORSDOF 5
ENDMDL
MODEL 4
REMARK VINA RESULT:      -6.9      8.733     10.192
REMARK  Name = 
REMARK  8 active torsions:
REMARK  status: ('A' for Active; 'I' for Inactive)
REMARK    1  A    between atoms: C_1  and  C_2
REMARK    2  A    between atoms: C_2  and  O_3
REMARK    3  A    between atoms: O_3  and  C_4
REMARK    4  A    between atoms: C_7  and  N_8
REMARK    5  A    between atoms: N_11  and  C_12
REMARK    6  A    between atoms: C_15  and  N_16
REMARK    7  A    between atoms: N_16  and  C_17
REMARK    8  A    between atoms: C_18  and  C_19
REMARK                            x       y       z     vdW  Elec       q    Type
REMARK                         _______ _______ _______ _____ _____    ______ ____
ROOT
ATOM      1  N   UNL     1       1.820   8.071  21.058  0.00  0.00    +0.000 N 
ATOM      2  C   UNL     1       0.648   8.810  21.146  0.00  0.00    +0.000 C 
ATOM      3  O   UNL     1      -0.426   8.476  20.659  0.00  0.00    +0.000 OA
ATOM      4  N   UNL     1       0.853  10.001  21.823  0.00  0.00    +0.000 N 
ATOM      5  H   UNL     1       2.450   8.167  21.841  0.00  0.00    +0.000 HD
ATOM      6  H   UNL     1       1.773  10.396  21.699  0.00  0.00    +0.000 HD
ENDROOT
BRANCH   1  10
ATOM      7  C   UNL     1       2.224   4.645  18.619  0.00  0.00    +0.000 A 
ATOM      8  C   UNL     1       2.590   5.895  18.130  0.00  0.00    +0.000 A 
ATOM      9  C   UNL     1       2.481   7.030  18.932  0.00  0.00    +0.000 A 
ATOM     10  C   UNL     1       1.975   6.936  20.230  0.00  0.00    +0.000 A 
ATOM     11  C   UNL     1       1.621   5.679  20.731  0.00  0.00    +0.000 A 
ATOM     12  C   UNL     1       1.733   4.536  19.920  0.00  0.00    +0.000 A 
BRANCH   7  13
ATOM     13  O   UNL     1       2.374   3.623  17.725  0.00  0.00    +0.000 OA
BRANCH  13  15
ATOM     14  C   UNL     1       3.481   1.620  18.351  0.00  0.00    +0.000 C 
ATOM     15  C   UNL     1       3.643   2.979  17.690  0.00  0.00    +0.000 C 
ENDBRANCH  13  15
ENDBRANCH   7  13
ENDBRANCH   1  10
BRANCH   4  16
ATOM     16  C   UNL     1      -0.201  10.917  22.030  0.00  0.00    +0.000 A 
ATOM     17  C   UNL     1      -0.414  12.012  21.198  0.00  0.00    +0.000 A 
ATOM     18  C   UNL     1      -1.476  12.905  21.438  0.00  0.00    +0.000 A 
ATOM     19  C   UNL     1      -2.362  12.752  22.517  0.00  0.00    +0.000 A 
ATOM     20  C   UNL     1      -2.106  11.644  23.350  0.00  0.00    +0.000 A 
ATOM     21  C   UNL     1      -1.067  10.726  23.097  0.00  0.00    +0.000 A 
BRANCH  19  22
ATOM     22  N   UNL     1      -3.475  13.663  22.761  0.00  0.00    +0.000 N 
ATOM     23  C   UNL     1      -3.215  14.965  23.373  0.00  0.00    +0.000 C 
ATOM     24  C   UNL     1      -4.821  13.319  22.488  0.00  0.00    +0.000 C 
ATOM     25  C   UNL     1      -5.887  14.339  22.852  0.00  0.00    +0.000 C 
ATOM     26  O   UNL     1      -5.216  12.273  21.974  0.00  0.00    +0.000 OA
ENDBRANCH  19  22
ENDBRANCH   4  16
TORSDOF 5
ENDMDL
MODEL 5
REMARK VINA RESULT:      -6.9      7.328      8.587
REMARK  Name = 
REMARK  8 active torsions:
REMARK  status: ('A' for Active; 'I' for Inactive)
REMARK    1  A    between atoms: C_1  and  C_2
REMARK    2  A    between atoms: C_2  and  O_3
REMARK    3  A    between atoms: O_3  and  C_4
REMARK    4  A    between atoms: C_7  and  N_8
REMARK    5  A    between atoms: N_11  and  C_12
REMARK    6  A    between atoms: C_15  and  N_16
REMARK    7  A    between atoms: N_16  and  C_17
REMARK    8  A    between atoms: C_18  and  C_19
REMARK                            x       y       z     vdW  Elec       q    Type
REMARK                         _______ _______ _______ _____ _____    ______ ____
ROOT
ATOM      1  N   UNL     1       2.894   5.945  20.004  0.00  0.00    +0.000 N 
ATOM      2  C   UNL     1       2.234   7.160  19.879  0.00  0.00    +0.000 C 
ATOM      3  O   UNL     1       2.179   7.821  18.849  0.00  0.00    +0.000 OA
ATOM      4  N   UNL     1       1.674   7.555  21.083  0.00  0.00    +0.000 N 
ATOM      5  H   UNL     1       2.492   5.302  20.671  0.00  0.00    +0.000 HD
ATOM      6  H   UNL     1       2.194   7.266  21.898  0.00  0.00    +0.000 HD
ENDROOT
BRANCH   1  10
ATOM      7  C   UNL     1       5.510   4.330  17.106  0.00  0.00    +0.000 A 
ATOM      8  C   UNL     1       4.133   4.263  16.916  0.00  0.00    +0.000 A 
ATOM      9  C   UNL     1       3.260   4.810  17.855  0.00  0.00    +0.000 A 
ATOM     10  C   UNL     1       3.752   5.410  19.017  0.00  0.00    +0.000 A 
ATOM     11  C   UNL     1       5.135   5.495  19.203  0.00  0.00    +0.000 A 
ATOM     12  C   UNL     1       6.013   4.942  18.254  0.00  0.00    +0.000 A 
BRANCH   7  13
ATOM     13  O   UNL     1       6.246   3.748  16.114  0.00  0.00    +0.000 OA
BRANCH  13  15
ATOM     14  C   UNL     1       6.163   3.953  13.751  0.00  0.00    +0.000 C 
ATOM     15  C   UNL     1       6.659   4.588  15.040  0.00  0.00    +0.000 C 
ENDBRANCH  13  15
ENDBRANCH   7  13
ENDBRANCH   1  10
BRANCH   4  16
ATOM     16  C   UNL     1       0.956   8.765  21.195  0.00  0.00    +0.000 A 
ATOM     17  C   UNL     1       0.875   9.686  20.155  0.00  0.00    +0.000 A 
ATOM     18  C   UNL     1       0.150  10.883  20.306  0.00  0.00    +0.000 A 
ATOM     19  C   UNL     1      -0.516  11.219  21.497  0.00  0.00    +0.000 A 
ATOM     20  C   UNL     1      -0.398  10.273  22.535  0.00  0.00    +0.000 A 
ATOM     21  C   UNL     1       0.297   9.056  22.381  0.00  0.00    +0.000 A 
BRANCH  19  22
ATOM     22  N   UNL     1      -1.284  12.449  21.653  0.00  0.00    +0.000 N 
ATOM     23  C   UNL     1      -0.973  13.353  22.759  0.00  0.00    +0.000 C 
ATOM     24  C   UNL     1      -2.372  12.784  20.812  0.00  0.00    +0.000 C 
ATOM     25  C   UNL     1      -3.127  14.065  21.129  0.00  0.00    +0.000 C 
ATOM     26  O   UNL     1      -2.766  12.143  19.838  0.00  0.00    +0.000 OA
ENDBRANCH  19  22
ENDBRANCH   4  16
TORSDOF 5
ENDMDL
MODEL 6
REMARK VINA RESULT:      -6.9      8.474     10.055
REMARK  Name = 
REMARK  8 active torsions:
REMARK  status: ('A' for Active; 'I' for Inactive)
REMARK    1  A    between atoms: C_1  and  C_2
REMARK    2  A    between atoms: C_2  and  O_3
REMARK    3  A    between atoms: O_3  and  C_4
REMARK    4  A    between atoms: C_7  and  N_8
REMARK    5  A    between atoms: N_11  and  C_12
REMARK    6  A    between atoms: C_15  and  N_16
REMARK    7  A    between atoms: N_16  and  C_17
REMARK    8  A    between atoms: C_18  and  C_19
REMARK                            x       y       z     vdW  Elec       q    Type
REMARK                         _______ _______ _______ _____ _____    ______ ____
ROOT
ATOM      1  N   UNL     1       1.870   7.575  20.975  0.00  0.00    +0.000 N 
ATOM      2  C   UNL     1       0.727   8.340  21.161  0.00  0.00    +0.000 C 
ATOM      3  O   UNL     1      -0.407   7.985  20.862  0.00  0.00    +0.000 OA
ATOM      4  N   UNL     1       1.033   9.583  21.693  0.00  0.00    +0.000 N 
ATOM      5  H   UNL     1       2.606   7.728  21.649  0.00  0.00    +0.000 HD
ATOM      6  H   UNL     1       1.928   9.948  21.405  0.00  0.00    +0.000 HD
ENDROOT
BRANCH   1  10
ATOM      7  C   UNL     1       1.898   3.944  18.815  0.00  0.00    +0.000 A 
ATOM      8  C   UNL     1       2.309   5.123  18.201  0.00  0.00    +0.000 A 
ATOM      9  C   UNL     1       2.324   6.324  18.909  0.00  0.00    +0.000 A 
ATOM     10  C   UNL     1       1.899   6.369  20.238  0.00  0.00    +0.000 A 
ATOM     11  C   UNL     1       1.501   5.183  20.864  0.00  0.00    +0.000 A 
ATOM     12  C   UNL     1       1.488   3.974  20.148  0.00  0.00    +0.000 A 
BRANCH   7  13
ATOM     13  O   UNL     1       1.926   2.846  18.004  0.00  0.00    +0.000 OA
BRANCH  13  15
ATOM     14  C   UNL     1       3.715   1.416  18.621  0.00  0.00    +0.000 C 
ATOM     15  C   UNL     1       3.206   2.392  17.575  0.00  0.00    +0.000 C 
ENDBRANCH  13  15
ENDBRANCH   7  13
ENDBRANCH   1  10
BRANCH   4  16
ATOM     16  C   UNL     1       0.024  10.532  21.963  0.00  0.00    +0.000 A 
ATOM     17  C   UNL     1      -0.754  10.491  23.116  0.00  0.00    +0.000 A 
ATOM     18  C   UNL     1      -1.752  11.456  23.348  0.00  0.00    +0.000 A 
ATOM     19  C   UNL     1      -2.024  12.495  22.443  0.00  0.00    +0.000 A 
ATOM     20  C   UNL     1      -1.230  12.496  21.278  0.00  0.00    +0.000 A 
ATOM     21  C   UNL     1      -0.206  11.555  21.054  0.00  0.00    +0.000 A 
BRANCH  19  22
ATOM     22  N   UNL     1      -3.044  13.508  22.687  0.00  0.00    +0.000 N 
ATOM     23  C   UNL     1      -2.656  14.786  23.283  0.00  0.00    +0.000 C 
ATOM     24  C   UNL     1      -4.419  13.289  22.432  0.00  0.00    +0.000 C 
ATOM     25  C   UNL     1      -5.381  14.408  22.795  0.00  0.00    +0.000 C 
ATOM     26  O   UNL     1      -4.915  12.279  21.933  0.00  0.00    +0.000 OA
ENDBRANCH  19  22
ENDBRANCH   4  16
TORSDOF 5
ENDMDL
MODEL 7
REMARK VINA RESULT:      -6.8      7.298      8.391
REMARK  Name = 
REMARK  8 active torsions:
REMARK  status: ('A' for Active; 'I' for Inactive)
REMARK    1  A    between atoms: C_1  and  C_2
REMARK    2  A    between atoms: C_2  and  O_3
REMARK    3  A    between atoms: O_3  and  C_4
REMARK    4  A    between atoms: C_7  and  N_8
REMARK    5  A    between atoms: N_11  and  C_12
REMARK    6  A    between atoms: C_15  and  N_16
REMARK    7  A    between atoms: N_16  and  C_17
REMARK    8  A    between atoms: C_18  and  C_19
REMARK                            x       y       z     vdW  Elec       q    Type
REMARK                         _______ _______ _______ _____ _____    ______ ____
ROOT
ATOM      1  N   UNL     1       2.682   5.919  20.129  0.00  0.00    +0.000 N 
ATOM      2  C   UNL     1       2.090   7.172  20.045  0.00  0.00    +0.000 C 
ATOM      3  O   UNL     1       2.077   7.873  19.040  0.00  0.00    +0.000 OA
ATOM      4  N   UNL     1       1.546   7.555  21.261  0.00  0.00    +0.000 N 
ATOM      5  H   UNL     1       2.242   5.276  20.770  0.00  0.00    +0.000 HD
ATOM      6  H   UNL     1       2.045   7.207  22.066  0.00  0.00    +0.000 HD
ENDROOT
BRANCH   1  10
ATOM      7  C   UNL     1       5.227   4.279  17.182  0.00  0.00    +0.000 A 
ATOM      8  C   UNL     1       3.847   4.133  17.071  0.00  0.00    +0.000 A 
ATOM      9  C   UNL     1       2.996   4.687  18.025  0.00  0.00    +0.000 A 
ATOM     10  C   UNL     1       3.515   5.374  19.125  0.00  0.00    +0.000 A 
ATOM     11  C   UNL     1       4.899   5.537  19.232  0.00  0.00    +0.000 A 
ATOM     12  C   UNL     1       5.756   4.978  18.267  0.00  0.00    +0.000 A 
BRANCH   7  13
ATOM     13  O   UNL     1       5.940   3.681  16.183  0.00  0.00    +0.000 OA
BRANCH  13  15
ATOM     14  C   UNL     1       6.199   4.107  13.863  0.00  0.00    +0.000 C 
ATOM     15  C   UNL     1       6.606   4.539  15.262  0.00  0.00    +0.000 C 
ENDBRANCH  13  15
ENDBRANCH   7  13
ENDBRANCH   1  10
BRANCH   4  16
ATOM     16  C   UNL     1       0.894   8.797  21.414  0.00  0.00    +0.000 A 
ATOM     17  C   UNL     1       0.253   9.166  22.592  0.00  0.00    +0.000 A 
ATOM     18  C   UNL     1      -0.387  10.415  22.704  0.00  0.00    +0.000 A 
ATOM     19  C   UNL     1      -0.425  11.343  21.650  0.00  0.00    +0.000 A 
ATOM     20  C   UNL     1       0.218  10.929  20.466  0.00  0.00    +0.000 A 
ATOM     21  C   UNL     1       0.891   9.696  20.356  0.00  0.00    +0.000 A 
BRANCH  19  22
ATOM     22  N   UNL     1      -1.071  12.645  21.767  0.00  0.00    +0.000 N 
ATOM     23  C   UNL     1      -2.515  12.750  21.565  0.00  0.00    +0.000 C 
ATOM     24  C   UNL     1      -0.349  13.839  22.007  0.00  0.00    +0.000 C 
ATOM     25  C   UNL     1      -1.142  15.136  22.039  0.00  0.00    +0.000 C 
ATOM     26  O   UNL     1       0.862  13.933  22.203  0.00  0.00    +0.000 OA
ENDBRANCH  19  22
ENDBRANCH   4  16
TORSDOF 5
ENDMDL
MODEL 8
REMARK VINA RESULT:      -6.8      8.573     10.130
REMARK  Name = 
REMARK  8 active torsions:
REMARK  status: ('A' for Active; 'I' for Inactive)
REMARK    1  A    between atoms: C_1  and  C_2
REMARK    2  A    between atoms: C_2  and  O_3
REMARK    3  A    between atoms: O_3  and  C_4
REMARK    4  A    between atoms: C_7  and  N_8
REMARK    5  A    between atoms: N_11  and  C_12
REMARK    6  A    between atoms: C_15  and  N_16
REMARK    7  A    between atoms: N_16  and  C_17
REMARK    8  A    between atoms: C_18  and  C_19
REMARK                            x       y       z     vdW  Elec       q    Type
REMARK                         _______ _______ _______ _____ _____    ______ ____
ROOT
ATOM      1  N   UNL     1       1.928   7.799  20.919  0.00  0.00    +0.000 N 
ATOM      2  C   UNL     1       0.769   8.519  21.176  0.00  0.00    +0.000 C 
ATOM      3  O   UNL     1      -0.365   8.133  20.917  0.00  0.00    +0.000 OA
ATOM      4  N   UNL     1       1.057   9.756  21.730  0.00  0.00    +0.000 N 
ATOM      5  H   UNL     1       2.687   7.958  21.564  0.00  0.00    +0.000 HD
ATOM      6  H   UNL     1       1.926  10.160  21.414  0.00  0.00    +0.000 HD
ENDROOT
BRANCH   1  10
ATOM      7  C   UNL     1       2.093   4.289  18.571  0.00  0.00    +0.000 A 
ATOM      8  C   UNL     1       1.674   4.222  19.897  0.00  0.00    +0.000 A 
ATOM      9  C   UNL     1       1.595   5.376  20.676  0.00  0.00    +0.000 A 
ATOM     10  C   UNL     1       1.964   6.615  20.147  0.00  0.00    +0.000 A 
ATOM     11  C   UNL     1       2.370   6.689  18.811  0.00  0.00    +0.000 A 
ATOM     12  C   UNL     1       2.448   5.524  18.028  0.00  0.00    +0.000 A 
BRANCH   7  13
ATOM     13  O   UNL     1       2.131   3.085  17.930  0.00  0.00    +0.000 OA
BRANCH  13  15
ATOM     14  C   UNL     1       3.747   1.446  18.506  0.00  0.00    +0.000 C 
ATOM     15  C   UNL     1       2.325   1.929  18.738  0.00  0.00    +0.000 C 
ENDBRANCH  13  15
ENDBRANCH   7  13
ENDBRANCH   1  10
BRANCH   4  16
ATOM     16  C   UNL     1       0.030  10.663  22.071  0.00  0.00    +0.000 A 
ATOM     17  C   UNL     1      -0.876  10.416  23.098  0.00  0.00    +0.000 A 
ATOM     18  C   UNL     1      -1.887  11.345  23.407  0.00  0.00    +0.000 A 
ATOM     19  C   UNL     1      -2.046  12.550  22.703  0.00  0.00    +0.000 A 
ATOM     20  C   UNL     1      -1.124  12.760  21.658  0.00  0.00    +0.000 A 
ATOM     21  C   UNL     1      -0.087  11.851  21.365  0.00  0.00    +0.000 A 
BRANCH  19  22
ATOM     22  N   UNL     1      -3.081  13.525  23.031  0.00  0.00    +0.000 N 
ATOM     23  C   UNL     1      -2.728  14.711  23.810  0.00  0.00    +0.000 C 
ATOM     24  C   UNL     1      -4.441  13.345  22.682  0.00  0.00    +0.000 C 
ATOM     25  C   UNL     1      -5.424  14.408  23.144  0.00  0.00    +0.000 C 
ATOM     26  O   UNL     1      -4.909  12.412  22.029  0.00  0.00    +0.000 OA
ENDBRANCH  19  22
ENDBRANCH   4  16
TORSDOF 5
ENDMDL
MODEL 9
REMARK VINA RESULT:      -6.8      7.308      8.529
REMARK  Name = 
REMARK  8 active torsions:
REMARK  status: ('A' for Active; 'I' for Inactive)
REMARK    1  A    between atoms: C_1  and  C_2
REMARK    2  A    between atoms: C_2  and  O_3
REMARK    3  A    between atoms: O_3  and  C_4
REMARK    4  A    between atoms: C_7  and  N_8
REMARK    5  A    between atoms: N_11  and  C_12
REMARK    6  A    between atoms: C_15  and  N_16
REMARK    7  A    between atoms: N_16  and  C_17
REMARK    8  A    between atoms: C_18  and  C_19
REMARK                            x       y       z     vdW  Elec       q    Type
REMARK                         _______ _______ _______ _____ _____    ______ ____
ROOT
ATOM      1  N   UNL     1       3.034   5.888  19.977  0.00  0.00    +0.000 N 
ATOM      2  C   UNL     1       2.258   7.029  19.826  0.00  0.00    +0.000 C 
ATOM      3  O   UNL     1       1.996   7.558  18.752  0.00  0.00    +0.000 OA
ATOM      4  N   UNL     1       1.848   7.526  21.053  0.00  0.00    +0.000 N 
ATOM      5  H   UNL     1       2.792   5.303  20.763  0.00  0.00    +0.000 HD
ATOM      6  H   UNL     1       2.505   7.373  21.803  0.00  0.00    +0.000 HD
ENDROOT
BRANCH   1  10
ATOM      7  C   UNL     1       5.206   4.126  16.810  0.00  0.00    +0.000 A 
ATOM      8  C   UNL     1       5.833   5.021  17.672  0.00  0.00    +0.000 A 
ATOM      9  C   UNL     1       5.133   5.593  18.733  0.00  0.00    +0.000 A 
ATOM     10  C   UNL     1       3.782   5.300  18.932  0.00  0.00    +0.000 A 
ATOM     11  C   UNL     1       3.153   4.388  18.078  0.00  0.00    +0.000 A 
ATOM     12  C   UNL     1       3.861   3.813  17.009  0.00  0.00    +0.000 A 
BRANCH   7  13
ATOM     13  O   UNL     1       6.006   3.649  15.812  0.00  0.00    +0.000 OA
BRANCH  13  15
ATOM     14  C   UNL     1       6.176   3.835  13.453  0.00  0.00    +0.000 C 
ATOM     15  C   UNL     1       6.357   4.560  14.775  0.00  0.00    +0.000 C 
ENDBRANCH  13  15
ENDBRANCH   7  13
ENDBRANCH   1  10
BRANCH   4  16
ATOM     16  C   UNL     1       1.050   8.687  21.143  0.00  0.00    +0.000 A 
ATOM     17  C   UNL     1       0.236   8.952  22.240  0.00  0.00    +0.000 A 
ATOM     18  C   UNL     1      -0.546  10.121  22.292  0.00  0.00    +0.000 A 
ATOM     19  C   UNL     1      -0.559  11.068  21.255  0.00  0.00    +0.000 A 
ATOM     20  C   UNL     1       0.262  10.760  20.152  0.00  0.00    +0.000 A 
ATOM     21  C   UNL     1       1.075   9.609  20.107  0.00  0.00    +0.000 A 
BRANCH  19  22
ATOM     22  N   UNL     1      -1.354  12.291  21.312  0.00  0.00    +0.000 N 
ATOM     23  C   UNL     1      -2.455  12.474  20.368  0.00  0.00    +0.000 C 
ATOM     24  C   UNL     1      -1.066  13.350  22.206  0.00  0.00    +0.000 C 
ATOM     25  C   UNL     1      -1.936  14.594  22.112  0.00  0.00    +0.000 C 
ATOM     26  O   UNL     1      -0.184  13.362  23.064  0.00  0.00    +0.000 OA
ENDBRANCH  19  22
ENDBRANCH   4  16
TORSDOF 5
ENDMDL
