MODEL 1
REMARK VINA RESULT:      -7.5      0.000      0.000
REMARK  Name = 
REMARK  3 active torsions:
REMARK  status: ('A' for Active; 'I' for Inactive)
REMARK    1  A    between atoms: O_1  and  C_2
REMARK    2  A    between atoms: C_12  and  N_13
REMARK    3  A    between atoms: C_16  and  C_17
REMARK                            x       y       z     vdW  Elec       q    Type
REMARK                         _______ _______ _______ _____ _____    ______ ____
ROOT
ATOM      1  C   UNL     1       2.945   8.041  18.048  0.00  0.00    +0.000 C 
ATOM      2  C   UNL     1       2.078   9.286  17.818  0.00  0.00    +0.000 C 
ATOM      3  C   UNL     1       1.378   9.801  19.037  0.00  0.00    +0.000 A 
ATOM      4  C   UNL     1       0.897  11.120  19.048  0.00  0.00    +0.000 A 
ATOM      5  C   UNL     1       0.238  11.628  20.169  0.00  0.00    +0.000 A 
ATOM      6  C   UNL     1       0.047  10.817  21.282  0.00  0.00    +0.000 A 
ATOM      7  C   UNL     1       0.505   9.504  21.261  0.00  0.00    +0.000 A 
ATOM      8  F   UNL     1       0.335   8.747  22.354  0.00  0.00    +0.000 F 
ATOM      9  C   UNL     1       1.158   8.971  20.142  0.00  0.00    +0.000 A 
ATOM     10  C   UNL     1       1.701   7.566  20.204  0.00  0.00    +0.000 C 
ATOM     11  C   UNL     1       2.157   6.949  18.847  0.00  0.00    +0.000 C 
ENDROOT
BRANCH  11  12
ATOM     12  N   UNL     1       2.818   5.610  19.065  0.00  0.00    +0.000 NA
ATOM     13  C   UNL     1       2.493   4.645  18.002  0.00  0.00    +0.000 C 
ATOM     14  C   UNL     1       3.221   3.301  18.111  0.00  0.00    +0.000 C 
ATOM     15  C   UNL     1       4.748   3.497  18.196  0.00  0.00    +0.000 C 
ATOM     16  C   UNL     1       4.955   4.333  19.466  0.00  0.00    +0.000 C 
ATOM     17  C   UNL     1       4.253   5.692  19.368  0.00  0.00    +0.000 C 
BRANCH  15  18
ATOM     18  C   UNL     1       5.433   4.053  16.937  0.00  0.00    +0.000 A 
ATOM     19  C   UNL     1       6.716   4.628  16.990  0.00  0.00    +0.000 A 
ATOM     20  C   UNL     1       7.348   5.124  15.845  0.00  0.00    +0.000 A 
ATOM     21  C   UNL     1       6.720   5.036  14.610  0.00  0.00    +0.000 A 
ATOM     22  C   UNL     1       5.465   4.441  14.519  0.00  0.00    +0.000 A 
ATOM     23  C   UNL     1       4.835   3.948  15.670  0.00  0.00    +0.000 A 
ENDBRANCH  15  18
ENDBRANCH  11  12
BRANCH   1  24
ATOM     24  O   UNL     1       3.319   7.613  16.734  0.00  0.00    +0.000 OA
ATOM     25  H   UNL     1       3.525   6.663  16.788  0.00  0.00    +0.000 HD
ENDBRANCH   1  24
TORSDOF 3
ENDMDL
MODEL 2
REMARK VINA RESULT:      -7.4      2.907      7.801
REMARK  Name = 
REMARK  3 active torsions:
REMARK  status: ('A' for Active; 'I' for Inactive)
REMARK    1  A    between atoms: O_1  and  C_2
REMARK    2  A    between atoms: C_12  and  N_13
REMARK    3  A    between atoms: C_16  and  C_17
REMARK                            x       y       z     vdW  Elec       q    Type
REMARK                         _______ _______ _______ _____ _____    ______ ____
ROOT
ATOM      1  C   UNL     1       2.530   6.534  19.965  0.00  0.00    +0.000 C 
ATOM      2  C   UNL     1       2.658   5.131  19.358  0.00  0.00    +0.000 C 
ATOM      3  C   UNL     1       3.550   5.041  18.160  0.00  0.00    +0.000 A 
ATOM      4  C   UNL     1       4.054   3.791  17.769  0.00  0.00    +0.000 A 
ATOM      5  C   UNL     1       4.886   3.674  16.655  0.00  0.00    +0.000 A 
ATOM      6  C   UNL     1       5.211   4.807  15.916  0.00  0.00    +0.000 A 
ATOM      7  C   UNL     1       4.694   6.042  16.291  0.00  0.00    +0.000 A 
ATOM      8  F   UNL     1       5.040   7.126  15.583  0.00  0.00    +0.000 F 
ATOM      9  C   UNL     1       3.847   6.179  17.399  0.00  0.00    +0.000 A 
ATOM     10  C   UNL     1       3.378   7.552  17.804  0.00  0.00    +0.000 C 
ATOM     11  C   UNL     1       2.229   7.600  18.857  0.00  0.00    +0.000 C 
ENDROOT
BRANCH  11  12
ATOM     12  N   UNL     1       1.958   9.020  19.290  0.00  0.00    +0.000 NA
ATOM     13  C   UNL     1       1.874   9.947  18.149  0.00  0.00    +0.000 C 
ATOM     14  C   UNL     1       1.495  11.385  18.517  0.00  0.00    +0.000 C 
ATOM     15  C   UNL     1       0.185  11.428  19.330  0.00  0.00    +0.000 C 
ATOM     16  C   UNL     1       0.490  10.605  20.589  0.00  0.00    +0.000 C 
ATOM     17  C   UNL     1       0.851   9.156  20.244  0.00  0.00    +0.000 C 
BRANCH  15  18
ATOM     18  C   UNL     1      -1.093  11.014  18.582  0.00  0.00    +0.000 A 
ATOM     19  C   UNL     1      -2.339  11.601  18.873  0.00  0.00    +0.000 A 
ATOM     20  C   UNL     1      -3.502  11.236  18.186  0.00  0.00    +0.000 A 
ATOM     21  C   UNL     1      -3.444  10.289  17.172  0.00  0.00    +0.000 A 
ATOM     22  C   UNL     1      -2.220   9.717  16.837  0.00  0.00    +0.000 A 
ATOM     23  C   UNL     1      -1.058  10.083  17.530  0.00  0.00    +0.000 A 
ENDBRANCH  15  18
ENDBRANCH  11  12
BRANCH   1  24
ATOM     24  O   UNL     1       1.479   6.417  20.930  0.00  0.00    +0.000 OA
ATOM     25  H   UNL     1       1.809   6.796  21.764  0.00  0.00    +0.000 HD
ENDBRANCH   1  24
TORSDOF 3
ENDMDL
MODEL 3
REMARK VINA RESULT:      -7.3      3.214      7.553
REMARK  Name = 
REMARK  3 active torsions:
REMARK  status: ('A' for Active; 'I' for Inactive)
REMARK    1  A    between atoms: O_1  and  C_2
REMARK    2  A    between atoms: C_12  and  N_13
REMARK    3  A    between atoms: C_16  and  C_17
REMARK                            x       y       z     vdW  Elec       q    Type
REMARK                         _______ _______ _______ _____ _____    ______ ____
ROOT
ATOM      1  C   UNL     1       5.866   5.268  16.778  0.00  0.00    +0.000 C 
ATOM      2  C   UNL     1       7.108   5.546  15.921  0.00  0.00    +0.000 C 
ATOM      3  C   UNL     1       7.035   5.028  14.518  0.00  0.00    +0.000 A 
ATOM      4  C   UNL     1       7.902   5.549  13.546  0.00  0.00    +0.000 A 
ATOM      5  C   UNL     1       7.860   5.085  12.231  0.00  0.00    +0.000 A 
ATOM      6  C   UNL     1       6.956   4.088  11.881  0.00  0.00    +0.000 A 
ATOM      7  C   UNL     1       6.112   3.557  12.850  0.00  0.00    +0.000 A 
ATOM      8  F   UNL     1       5.229   2.616  12.487  0.00  0.00    +0.000 F 
ATOM      9  C   UNL     1       6.147   4.000  14.178  0.00  0.00    +0.000 A 
ATOM     10  C   UNL     1       5.157   3.443  15.169  0.00  0.00    +0.000 C 
ATOM     11  C   UNL     1       5.433   3.766  16.669  0.00  0.00    +0.000 C 
ENDROOT
BRANCH  11  12
ATOM     12  N   UNL     1       4.296   3.288  17.537  0.00  0.00    +0.000 NA
ATOM     13  C   UNL     1       4.533   3.550  18.966  0.00  0.00    +0.000 C 
ATOM     14  C   UNL     1       3.366   3.183  19.888  0.00  0.00    +0.000 C 
ATOM     15  C   UNL     1       2.059   3.866  19.436  0.00  0.00    +0.000 C 
ATOM     16  C   UNL     1       1.821   3.333  18.017  0.00  0.00    +0.000 C 
ATOM     17  C   UNL     1       2.968   3.708  17.073  0.00  0.00    +0.000 C 
BRANCH  15  18
ATOM     18  C   UNL     1       2.012   5.397  19.567  0.00  0.00    +0.000 A 
ATOM     19  C   UNL     1       2.360   6.240  18.494  0.00  0.00    +0.000 A 
ATOM     20  C   UNL     1       2.307   7.633  18.606  0.00  0.00    +0.000 A 
ATOM     21  C   UNL     1       1.881   8.222  19.789  0.00  0.00    +0.000 A 
ATOM     22  C   UNL     1       1.497   7.415  20.856  0.00  0.00    +0.000 A 
ATOM     23  C   UNL     1       1.555   6.020  20.742  0.00  0.00    +0.000 A 
ENDBRANCH  15  18
ENDBRANCH  11  12
BRANCH   1  24
ATOM     24  O   UNL     1       6.251   5.644  18.105  0.00  0.00    +0.000 OA
ATOM     25  H   UNL     1       6.337   6.613  18.117  0.00  0.00    +0.000 HD
ENDBRANCH   1  24
TORSDOF 3
ENDMDL
MODEL 4
REMARK VINA RESULT:      -7.1      2.877      8.667
REMARK  Name = 
REMARK  3 active torsions:
REMARK  status: ('A' for Active; 'I' for Inactive)
REMARK    1  A    between atoms: O_1  and  C_2
REMARK    2  A    between atoms: C_12  and  N_13
REMARK    3  A    between atoms: C_16  and  C_17
REMARK                            x       y       z     vdW  Elec       q    Type
REMARK                         _______ _______ _______ _____ _____    ______ ____
ROOT
ATOM      1  C   UNL     1       1.238   8.737  20.404  0.00  0.00    +0.000 C 
ATOM      2  C   UNL     1       1.531   7.241  20.581  0.00  0.00    +0.000 C 
ATOM      3  C   UNL     1       2.547   6.681  19.635  0.00  0.00    +0.000 A 
ATOM      4  C   UNL     1       3.180   5.467  19.944  0.00  0.00    +0.000 A 
ATOM      5  C   UNL     1       4.129   4.918  19.081  0.00  0.00    +0.000 A 
ATOM      6  C   UNL     1       4.444   5.575  17.896  0.00  0.00    +0.000 A 
ATOM      7  C   UNL     1       3.800   6.766  17.580  0.00  0.00    +0.000 A 
ATOM      8  F   UNL     1       4.137   7.397  16.447  0.00  0.00    +0.000 F 
ATOM      9  C   UNL     1       2.836   7.327  18.427  0.00  0.00    +0.000 A 
ATOM     10  C   UNL     1       2.226   8.659  18.071  0.00  0.00    +0.000 C 
ATOM     11  C   UNL     1       0.975   9.082  18.899  0.00  0.00    +0.000 C 
ENDROOT
BRANCH  11  12
ATOM     12  N   UNL     1       0.557  10.491  18.554  0.00  0.00    +0.000 NA
ATOM     13  C   UNL     1      -0.895  10.608  18.341  0.00  0.00    +0.000 C 
ATOM     14  C   UNL     1      -1.394  12.035  18.093  0.00  0.00    +0.000 C 
ATOM     15  C   UNL     1      -0.948  12.988  19.220  0.00  0.00    +0.000 C 
ATOM     16  C   UNL     1       0.586  12.932  19.182  0.00  0.00    +0.000 C 
ATOM     17  C   UNL     1       1.106  11.516  19.450  0.00  0.00    +0.000 C 
BRANCH  15  18
ATOM     18  C   UNL     1      -1.569  12.741  20.604  0.00  0.00    +0.000 A 
ATOM     19  C   UNL     1      -0.773  12.449  21.728  0.00  0.00    +0.000 A 
ATOM     20  C   UNL     1      -1.333  12.236  22.991  0.00  0.00    +0.000 A 
ATOM     21  C   UNL     1      -2.707  12.332  23.169  0.00  0.00    +0.000 A 
ATOM     22  C   UNL     1      -3.518  12.654  22.085  0.00  0.00    +0.000 A 
ATOM     23  C   UNL     1      -2.953  12.864  20.820  0.00  0.00    +0.000 A 
ENDBRANCH  15  18
ENDBRANCH  11  12
BRANCH   1  24
ATOM     24  O   UNL     1       0.104   8.986  21.242  0.00  0.00    +0.000 OA
ATOM     25  H   UNL     1      -0.676   8.624  20.787  0.00  0.00    +0.000 HD
ENDBRANCH   1  24
TORSDOF 3
ENDMDL
MODEL 5
REMARK VINA RESULT:      -6.8      4.149      9.772
REMARK  Name = 
REMARK  3 active torsions:
REMARK  status: ('A' for Active; 'I' for Inactive)
REMARK    1  A    between atoms: O_1  and  C_2
REMARK    2  A    between atoms: C_12  and  N_13
REMARK    3  A    between atoms: C_16  and  C_17
REMARK                            x       y       z     vdW  Elec       q    Type
REMARK                         _______ _______ _______ _____ _____    ______ ____
ROOT
ATOM      1  C   UNL     1       0.663   9.665  22.494  0.00  0.00    +0.000 C 
ATOM      2  C   UNL     1       1.018   8.281  21.935  0.00  0.00    +0.000 C 
ATOM      3  C   UNL     1       1.439   8.269  20.499  0.00  0.00    +0.000 A 
ATOM      4  C   UNL     1       2.153   7.169  19.999  0.00  0.00    +0.000 A 
ATOM      5  C   UNL     1       2.556   7.128  18.664  0.00  0.00    +0.000 A 
ATOM      6  C   UNL     1       2.239   8.184  17.815  0.00  0.00    +0.000 A 
ATOM      7  C   UNL     1       1.513   9.263  18.306  0.00  0.00    +0.000 A 
ATOM      8  F   UNL     1       1.240  10.282  17.480  0.00  0.00    +0.000 F 
ATOM      9  C   UNL     1       1.087   9.318  19.640  0.00  0.00    +0.000 A 
ATOM     10  C   UNL     1       0.370  10.547  20.136  0.00  0.00    +0.000 C 
ATOM     11  C   UNL     1      -0.313  10.425  21.532  0.00  0.00    +0.000 C 
ENDROOT
BRANCH  11  12
ATOM     12  N   UNL     1      -0.859  11.758  21.979  0.00  0.00    +0.000 NA
ATOM     13  C   UNL     1      -1.127  12.661  20.848  0.00  0.00    +0.000 C 
ATOM     14  C   UNL     1      -1.784  13.992  21.231  0.00  0.00    +0.000 C 
ATOM     15  C   UNL     1      -3.075  13.766  22.043  0.00  0.00    +0.000 C 
ATOM     16  C   UNL     1      -2.611  13.006  23.294  0.00  0.00    +0.000 C 
ATOM     17  C   UNL     1      -1.970  11.662  22.933  0.00  0.00    +0.000 C 
BRANCH  15  18
ATOM     18  C   UNL     1      -4.246  13.115  21.290  0.00  0.00    +0.000 A 
ATOM     19  C   UNL     1      -4.127  12.717  19.945  0.00  0.00    +0.000 A 
ATOM     20  C   UNL     1      -5.186  12.113  19.260  0.00  0.00    +0.000 A 
ATOM     21  C   UNL     1      -6.388  11.869  19.911  0.00  0.00    +0.000 A 
ATOM     22  C   UNL     1      -6.525  12.220  21.251  0.00  0.00    +0.000 A 
ATOM     23  C   UNL     1      -5.463  12.827  21.933  0.00  0.00    +0.000 A 
ENDBRANCH  15  18
ENDBRANCH  11  12
BRANCH   1  24
ATOM     24  O   UNL     1       0.089   9.401  23.779  0.00  0.00    +0.000 OA
ATOM     25  H   UNL     1      -0.747   8.925  23.629  0.00  0.00    +0.000 HD
ENDBRANCH   1  24
TORSDOF 3
ENDMDL
MODEL 6
REMARK VINA RESULT:      -6.8      2.630      7.653
REMARK  Name = 
REMARK  3 active torsions:
REMARK  status: ('A' for Active; 'I' for Inactive)
REMARK    1  A    between atoms: O_1  and  C_2
REMARK    2  A    between atoms: C_12  and  N_13
REMARK    3  A    between atoms: C_16  and  C_17
REMARK                            x       y       z     vdW  Elec       q    Type
REMARK                         _______ _______ _______ _____ _____    ______ ____
ROOT
ATOM      1  C   UNL     1       1.835   8.731  17.980  0.00  0.00    +0.000 C 
ATOM      2  C   UNL     1       2.864   7.711  17.475  0.00  0.00    +0.000 C 
ATOM      3  C   UNL     1       2.929   6.439  18.261  0.00  0.00    +0.000 A 
ATOM      4  C   UNL     1       3.517   5.302  17.685  0.00  0.00    +0.000 A 
ATOM      5  C   UNL     1       3.594   4.103  18.394  0.00  0.00    +0.000 A 
ATOM      6  C   UNL     1       3.093   4.034  19.689  0.00  0.00    +0.000 A 
ATOM      7  C   UNL     1       2.530   5.166  20.267  0.00  0.00    +0.000 A 
ATOM      8  F   UNL     1       2.028   5.073  21.506  0.00  0.00    +0.000 F 
ATOM      9  C   UNL     1       2.453   6.383  19.577  0.00  0.00    +0.000 A 
ATOM     10  C   UNL     1       1.763   7.557  20.225  0.00  0.00    +0.000 C 
ATOM     11  C   UNL     1       1.962   8.937  19.528  0.00  0.00    +0.000 C 
ENDROOT
BRANCH  11  12
ATOM     12  N   UNL     1       1.102   9.993  20.178  0.00  0.00    +0.000 NA
ATOM     13  C   UNL     1       1.030  11.227  19.379  0.00  0.00    +0.000 C 
ATOM     14  C   UNL     1       0.085  12.298  19.936  0.00  0.00    +0.000 C 
ATOM     15  C   UNL     1      -1.331  11.731  20.161  0.00  0.00    +0.000 C 
ATOM     16  C   UNL     1      -1.132  10.598  21.177  0.00  0.00    +0.000 C 
ATOM     17  C   UNL     1      -0.207   9.506  20.631  0.00  0.00    +0.000 C 
BRANCH  15  18
ATOM     18  C   UNL     1      -2.114  11.337  18.899  0.00  0.00    +0.000 A 
ATOM     19  C   UNL     1      -1.567  10.470  17.934  0.00  0.00    +0.000 A 
ATOM     20  C   UNL     1      -2.281  10.099  16.790  0.00  0.00    +0.000 A 
ATOM     21  C   UNL     1      -3.573  10.567  16.592  0.00  0.00    +0.000 A 
ATOM     22  C   UNL     1      -4.154  11.398  17.546  0.00  0.00    +0.000 A 
ATOM     23  C   UNL     1      -3.435  11.770  18.689  0.00  0.00    +0.000 A 
ENDBRANCH  15  18
ENDBRANCH  11  12
BRANCH   1  24
ATOM     24  O   UNL     1       2.109   9.921  17.232  0.00  0.00    +0.000 OA
ATOM     25  H   UNL     1       3.036  10.162  17.402  0.00  0.00    +0.000 HD
ENDBRANCH   1  24
TORSDOF 3
ENDMDL
MODEL 7
REMARK VINA RESULT:      -6.7      2.404      7.989
REMARK  Name = 
REMARK  3 active torsions:
REMARK  status: ('A' for Active; 'I' for Inactive)
REMARK    1  A    between atoms: O_1  and  C_2
REMARK    2  A    between atoms: C_12  and  N_13
REMARK    3  A    between atoms: C_16  and  C_17
REMARK                            x       y       z     vdW  Elec       q    Type
REMARK                         _______ _______ _______ _____ _____    ______ ____
ROOT
ATOM      1  C   UNL     1       1.689   8.834  18.032  0.00  0.00    +0.000 C 
ATOM      2  C   UNL     1       2.977   8.100  17.635  0.00  0.00    +0.000 C 
ATOM      3  C   UNL     1       3.191   6.786  18.317  0.00  0.00    +0.000 A 
ATOM      4  C   UNL     1       4.090   5.861  17.763  0.00  0.00    +0.000 A 
ATOM      5  C   UNL     1       4.312   4.628  18.377  0.00  0.00    +0.000 A 
ATOM      6  C   UNL     1       3.644   4.315  19.556  0.00  0.00    +0.000 A 
ATOM      7  C   UNL     1       2.771   5.240  20.116  0.00  0.00    +0.000 A 
ATOM      8  F   UNL     1       2.116   4.910  21.238  0.00  0.00    +0.000 F 
ATOM      9  C   UNL     1       2.542   6.489  19.522  0.00  0.00    +0.000 A 
ATOM     10  C   UNL     1       1.527   7.421  20.130  0.00  0.00    +0.000 C 
ATOM     11  C   UNL     1       1.530   8.884  19.590  0.00  0.00    +0.000 C 
ENDROOT
BRANCH  11  12
ATOM     12  N   UNL     1       0.376   9.668  20.163  0.00  0.00    +0.000 NA
ATOM     13  C   UNL     1       0.748  10.402  21.384  0.00  0.00    +0.000 C 
ATOM     14  C   UNL     1      -0.354  11.302  21.953  0.00  0.00    +0.000 C 
ATOM     15  C   UNL     1      -0.879  12.284  20.887  0.00  0.00    +0.000 C 
ATOM     16  C   UNL     1      -1.433  11.382  19.775  0.00  0.00    +0.000 C 
ATOM     17  C   UNL     1      -0.341  10.488  19.178  0.00  0.00    +0.000 C 
BRANCH  15  18
ATOM     18  C   UNL     1       0.107  13.363  20.411  0.00  0.00    +0.000 A 
ATOM     19  C   UNL     1      -0.066  14.030  19.184  0.00  0.00    +0.000 A 
ATOM     20  C   UNL     1       0.823  15.021  18.753  0.00  0.00    +0.000 A 
ATOM     21  C   UNL     1       1.898  15.388  19.552  0.00  0.00    +0.000 A 
ATOM     22  C   UNL     1       2.076  14.771  20.787  0.00  0.00    +0.000 A 
ATOM     23  C   UNL     1       1.185  13.777  21.213  0.00  0.00    +0.000 A 
ENDBRANCH  15  18
ENDBRANCH  11  12
BRANCH   1  24
ATOM     24  O   UNL     1       1.813  10.131  17.440  0.00  0.00    +0.000 OA
ATOM     25  H   UNL     1       1.061  10.664  17.752  0.00  0.00    +0.000 HD
ENDBRANCH   1  24
TORSDOF 3
ENDMDL
MODEL 8
REMARK VINA RESULT:      -6.7      6.679     10.963
REMARK  Name = 
REMARK  3 active torsions:
REMARK  status: ('A' for Active; 'I' for Inactive)
REMARK    1  A    between atoms: O_1  and  C_2
REMARK    2  A    between atoms: C_12  and  N_13
REMARK    3  A    between atoms: C_16  and  C_17
REMARK                            x       y       z     vdW  Elec       q    Type
REMARK                         _______ _______ _______ _____ _____    ______ ____
ROOT
ATOM      1  C   UNL     1      -0.250  11.524  19.320  0.00  0.00    +0.000 C 
ATOM      2  C   UNL     1      -0.535  10.339  18.388  0.00  0.00    +0.000 C 
ATOM      3  C   UNL     1      -1.771  10.474  17.555  0.00  0.00    +0.000 A 
ATOM      4  C   UNL     1      -1.921   9.675  16.410  0.00  0.00    +0.000 A 
ATOM      5  C   UNL     1      -3.063   9.776  15.615  0.00  0.00    +0.000 A 
ATOM      6  C   UNL     1      -4.069  10.671  15.964  0.00  0.00    +0.000 A 
ATOM      7  C   UNL     1      -3.929  11.446  17.110  0.00  0.00    +0.000 A 
ATOM      8  F   UNL     1      -4.897  12.321  17.415  0.00  0.00    +0.000 F 
ATOM      9  C   UNL     1      -2.796  11.351  17.929  0.00  0.00    +0.000 A 
ATOM     10  C   UNL     1      -2.664  12.271  19.115  0.00  0.00    +0.000 C 
ATOM     11  C   UNL     1      -1.532  11.922  20.129  0.00  0.00    +0.000 C 
ENDROOT
BRANCH  11  12
ATOM     12  N   UNL     1      -1.405  12.997  21.180  0.00  0.00    +0.000 NA
ATOM     13  C   UNL     1      -2.337  14.114  20.954  0.00  0.00    +0.000 C 
ATOM     14  C   UNL     1      -2.330  15.187  22.048  0.00  0.00    +0.000 C 
ATOM     15  C   UNL     1      -2.575  14.568  23.439  0.00  0.00    +0.000 C 
ATOM     16  C   UNL     1      -1.411  13.587  23.631  0.00  0.00    +0.000 C 
ATOM     17  C   UNL     1      -1.412  12.493  22.558  0.00  0.00    +0.000 C 
BRANCH  15  18
ATOM     18  C   UNL     1      -3.970  13.970  23.681  0.00  0.00    +0.000 A 
ATOM     19  C   UNL     1      -4.147  12.792  24.431  0.00  0.00    +0.000 A 
ATOM     20  C   UNL     1      -5.416  12.252  24.664  0.00  0.00    +0.000 A 
ATOM     21  C   UNL     1      -6.546  12.890  24.171  0.00  0.00    +0.000 A 
ATOM     22  C   UNL     1      -6.407  14.075  23.456  0.00  0.00    +0.000 A 
ATOM     23  C   UNL     1      -5.134  14.612  23.222  0.00  0.00    +0.000 A 
ENDBRANCH  15  18
ENDBRANCH  11  12
BRANCH   1  24
ATOM     24  O   UNL     1       0.824  11.079  20.155  0.00  0.00    +0.000 OA
ATOM     25  H   UNL     1       0.439  10.842  21.017  0.00  0.00    +0.000 HD
ENDBRANCH   1  24
TORSDOF 3
ENDMDL
MODEL 9
REMARK VINA RESULT:      -6.6      2.372      7.471
REMARK  Name = 
REMARK  3 active torsions:
REMARK  status: ('A' for Active; 'I' for Inactive)
REMARK    1  A    between atoms: O_1  and  C_2
REMARK    2  A    between atoms: C_12  and  N_13
REMARK    3  A    between atoms: C_16  and  C_17
REMARK                            x       y       z     vdW  Elec       q    Type
REMARK                         _______ _______ _______ _____ _____    ______ ____
ROOT
ATOM      1  C   UNL     1       2.226   7.768  18.174  0.00  0.00    +0.000 C 
ATOM      2  C   UNL     1       3.424   6.837  17.946  0.00  0.00    +0.000 C 
ATOM      3  C   UNL     1       3.389   5.560  18.727  0.00  0.00    +0.000 A 
ATOM      4  C   UNL     1       4.189   4.482  18.319  0.00  0.00    +0.000 A 
ATOM      5  C   UNL     1       4.180   3.280  19.027  0.00  0.00    +0.000 A 
ATOM      6  C   UNL     1       3.377   3.151  20.156  0.00  0.00    +0.000 A 
ATOM      7  C   UNL     1       2.601   4.227  20.571  0.00  0.00    +0.000 A 
ATOM      8  F   UNL     1       1.814   4.075  21.645  0.00  0.00    +0.000 F 
ATOM      9  C   UNL     1       2.605   5.447  19.882  0.00  0.00    +0.000 A 
ATOM     10  C   UNL     1       1.686   6.553  20.332  0.00  0.00    +0.000 C 
ATOM     11  C   UNL     1       1.945   7.956  19.704  0.00  0.00    +0.000 C 
ENDROOT
BRANCH  11  12
ATOM     12  N   UNL     1       0.871   8.933  20.116  0.00  0.00    +0.000 NA
ATOM     13  C   UNL     1       1.263   9.737  21.284  0.00  0.00    +0.000 C 
ATOM     14  C   UNL     1       0.256  10.821  21.684  0.00  0.00    +0.000 C 
ATOM     15  C   UNL     1      -0.073  11.745  20.495  0.00  0.00    +0.000 C 
ATOM     16  C   UNL     1      -0.672  10.808  19.438  0.00  0.00    +0.000 C 
ATOM     17  C   UNL     1       0.327   9.728  19.008  0.00  0.00    +0.000 C 
BRANCH  15  18
ATOM     18  C   UNL     1       1.072  12.638  19.991  0.00  0.00    +0.000 A 
ATOM     19  C   UNL     1       1.263  12.887  18.619  0.00  0.00    +0.000 A 
ATOM     20  C   UNL     1       2.296  13.709  18.156  0.00  0.00    +0.000 A 
ATOM     21  C   UNL     1       3.154  14.324  19.059  0.00  0.00    +0.000 A 
ATOM     22  C   UNL     1       2.970  14.125  20.424  0.00  0.00    +0.000 A 
ATOM     23  C   UNL     1       1.935  13.299  20.883  0.00  0.00    +0.000 A 
ENDBRANCH  15  18
ENDBRANCH  11  12
BRANCH   1  24
ATOM     24  O   UNL     1       2.585   8.988  17.516  0.00  0.00    +0.000 OA
ATOM     25  H   UNL     1       2.187   8.965  16.629  0.00  0.00    +0.000 HD
ENDBRANCH   1  24
TORSDOF 3
ENDMDL
