MODEL 1
REMARK VINA RESULT:      -8.8      0.000      0.000
REMARK  Name = 
REMARK  7 active torsions:
REMARK  status: ('A' for Active; 'I' for Inactive)
REMARK    1  A    between atoms: C_2  and  C_3
REMARK    2  A    between atoms: C_3  and  C_4
REMARK    3  A    between atoms: N_10  and  C_11
REMARK    4  A    between atoms: C_11  and  C_12
REMARK    5  A    between atoms: N_18  and  C_19
REMARK    6  A    between atoms: C_19  and  C_20
REMARK    7  A    between atoms: C_20  and  C_21
REMARK                            x       y       z     vdW  Elec       q    Type
REMARK                         _______ _______ _______ _____ _____    ______ ____
ROOT
ATOM      1  C   UNL     1       4.943   4.987  17.052  0.00  0.00    +0.000 C 
ATOM      2  C   UNL     1       4.869   6.473  16.600  0.00  0.00    +0.000 C 
ATOM      3  O   UNL     1       5.364   6.871  15.548  0.00  0.00    +0.000 OA
ATOM      4  N   UNL     1       4.262   7.372  17.440  0.00  0.00    +0.000 N 
ATOM      5  C   UNL     1       3.149   6.946  18.254  0.00  0.00    +0.000 C 
ATOM      6  C   UNL     1       2.675   5.537  17.865  0.00  0.00    +0.000 C 
ATOM      7  N   UNL     1       3.760   4.531  17.928  0.00  0.00    +0.000 NA
ATOM      8  H   UNL     1       4.278   8.324  17.094  0.00  0.00    +0.000 HD
ENDROOT
BRANCH   1   9
ATOM      9  C   UNL     1       6.361   4.741  17.611  0.00  0.00    +0.000 C 
BRANCH   9  11
ATOM     10  O   UNL     1       6.897   5.737  19.747  0.00  0.00    +0.000 OA
ATOM     11  C   UNL     1       6.957   5.809  18.518  0.00  0.00    +0.000 C 
ATOM     12  N   UNL     1       7.688   6.775  17.862  0.00  0.00    +0.000 N 
ATOM     13  H   UNL     1       7.643   6.817  16.857  0.00  0.00    +0.000 HD
BRANCH  12  14
ATOM     14  C   UNL     1       8.483   7.789  18.552  0.00  0.00    +0.000 C 
BRANCH  14  15
ATOM     15  C   UNL     1       8.149   9.207  18.079  0.00  0.00    +0.000 C 
BRANCH  15  16
ATOM     16  C   UNL     1       9.112  10.244  18.617  0.00  0.00    +0.000 A 
ATOM     17  C   UNL     1       9.955  10.947  17.741  0.00  0.00    +0.000 A 
ATOM     18  C   UNL     1      10.886  11.859  18.238  0.00  0.00    +0.000 A 
ATOM     19  C   UNL     1      10.968  12.076  19.607  0.00  0.00    +0.000 A 
ATOM     20  F   UNL     1      11.867  12.947  20.084  0.00  0.00    +0.000 F 
ATOM     21  C   UNL     1      10.129  11.405  20.489  0.00  0.00    +0.000 A 
ATOM     22  C   UNL     1       9.198  10.491  19.996  0.00  0.00    +0.000 A 
ENDBRANCH  15  16
ENDBRANCH  14  15
ENDBRANCH  12  14
ENDBRANCH   9  11
ENDBRANCH   1   9
BRANCH   7  23
ATOM     23  C   UNL     1       4.105   4.151  19.320  0.00  0.00    +0.000 C 
BRANCH  23  24
ATOM     24  C   UNL     1       3.527   2.817  19.921  0.00  0.00    +0.000 C 
ATOM     25  C   UNL     1       2.321   2.949  20.879  0.00  0.00    +0.000 C 
ATOM     26  C   UNL     1       0.974   3.219  20.196  0.00  0.00    +0.000 C 
ATOM     27  C   UNL     1       0.688   2.264  19.038  0.00  0.00    +0.000 C 
ATOM     28  C   UNL     1       1.859   2.220  18.067  0.00  0.00    +0.000 C 
ATOM     29  C   UNL     1       3.146   1.833  18.792  0.00  0.00    +0.000 C 
ENDBRANCH  23  24
ENDBRANCH   7  23
TORSDOF 7
ENDMDL
MODEL 2
REMARK VINA RESULT:      -8.8      4.150      6.568
REMARK  Name = 
REMARK  7 active torsions:
REMARK  status: ('A' for Active; 'I' for Inactive)
REMARK    1  A    between atoms: C_2  and  C_3
REMARK    2  A    between atoms: C_3  and  C_4
REMARK    3  A    between atoms: N_10  and  C_11
REMARK    4  A    between atoms: C_11  and  C_12
REMARK    5  A    between atoms: N_18  and  C_19
REMARK    6  A    between atoms: C_19  and  C_20
REMARK    7  A    between atoms: C_20  and  C_21
REMARK                            x       y       z     vdW  Elec       q    Type
REMARK                         _______ _______ _______ _____ _____    ______ ____
ROOT
ATOM      1  C   UNL     1       5.401   6.547  17.907  0.00  0.00    +0.000 C 
ATOM      2  C   UNL     1       6.718   6.978  17.202  0.00  0.00    +0.000 C 
ATOM      3  O   UNL     1       7.188   8.109  17.309  0.00  0.00    +0.000 OA
ATOM      4  N   UNL     1       7.346   6.063  16.397  0.00  0.00    +0.000 N 
ATOM      5  C   UNL     1       7.289   4.660  16.733  0.00  0.00    +0.000 C 
ATOM      6  C   UNL     1       6.676   4.442  18.125  0.00  0.00    +0.000 C 
ATOM      7  N   UNL     1       5.333   5.049  18.261  0.00  0.00    +0.000 NA
ATOM      8  H   UNL     1       8.180   6.423  15.948  0.00  0.00    +0.000 HD
ENDROOT
BRANCH   1   9
ATOM      9  C   UNL     1       4.225   7.128  17.092  0.00  0.00    +0.000 C 
BRANCH   9  11
ATOM     10  O   UNL     1       2.309   8.566  17.413  0.00  0.00    +0.000 OA
ATOM     11  C   UNL     1       3.035   7.679  17.866  0.00  0.00    +0.000 C 
ATOM     12  N   UNL     1       2.754   7.010  19.038  0.00  0.00    +0.000 N 
ATOM     13  H   UNL     1       3.422   6.342  19.385  0.00  0.00    +0.000 HD
BRANCH  12  14
ATOM     14  C   UNL     1       1.560   7.263  19.841  0.00  0.00    +0.000 C 
BRANCH  14  15
ATOM     15  C   UNL     1       1.884   8.005  21.141  0.00  0.00    +0.000 C 
BRANCH  15  16
ATOM     16  C   UNL     1       0.911   9.129  21.429  0.00  0.00    +0.000 A 
ATOM     17  C   UNL     1       0.359   9.275  22.711  0.00  0.00    +0.000 A 
ATOM     18  C   UNL     1      -0.583  10.271  22.965  0.00  0.00    +0.000 A 
ATOM     19  C   UNL     1      -0.965  11.129  21.942  0.00  0.00    +0.000 A 
ATOM     20  F   UNL     1      -1.874  12.082  22.184  0.00  0.00    +0.000 F 
ATOM     21  C   UNL     1      -0.415  11.015  20.670  0.00  0.00    +0.000 A 
ATOM     22  C   UNL     1       0.526  10.017  20.412  0.00  0.00    +0.000 A 
ENDBRANCH  15  16
ENDBRANCH  14  15
ENDBRANCH  12  14
ENDBRANCH   9  11
ENDBRANCH   1   9
BRANCH   7  23
ATOM     23  C   UNL     1       4.282   4.274  17.555  0.00  0.00    +0.000 C 
BRANCH  23  24
ATOM     24  C   UNL     1       3.706   2.971  18.223  0.00  0.00    +0.000 C 
ATOM     25  C   UNL     1       3.731   2.908  19.767  0.00  0.00    +0.000 C 
ATOM     26  C   UNL     1       2.650   3.741  20.470  0.00  0.00    +0.000 C 
ATOM     27  C   UNL     1       1.250   3.501  19.907  0.00  0.00    +0.000 C 
ATOM     28  C   UNL     1       1.239   3.653  18.392  0.00  0.00    +0.000 C 
ATOM     29  C   UNL     1       2.258   2.714  17.749  0.00  0.00    +0.000 C 
ENDBRANCH  23  24
ENDBRANCH   7  23
TORSDOF 7
ENDMDL
MODEL 3
REMARK VINA RESULT:      -8.8      4.228      6.500
REMARK  Name = 
REMARK  7 active torsions:
REMARK  status: ('A' for Active; 'I' for Inactive)
REMARK    1  A    between atoms: C_2  and  C_3
REMARK    2  A    between atoms: C_3  and  C_4
REMARK    3  A    between atoms: N_10  and  C_11
REMARK    4  A    between atoms: C_11  and  C_12
REMARK    5  A    between atoms: N_18  and  C_19
REMARK    6  A    between atoms: C_19  and  C_20
REMARK    7  A    between atoms: C_20  and  C_21
REMARK                            x       y       z     vdW  Elec       q    Type
REMARK                         _______ _______ _______ _____ _____    ______ ____
ROOT
ATOM      1  C   UNL     1       5.442   6.487  17.881  0.00  0.00    +0.000 C 
ATOM      2  C   UNL     1       6.723   7.000  17.164  0.00  0.00    +0.000 C 
ATOM      3  O   UNL     1       7.151   8.143  17.309  0.00  0.00    +0.000 OA
ATOM      4  N   UNL     1       7.365   6.146  16.304  0.00  0.00    +0.000 N 
ATOM      5  C   UNL     1       7.370   4.729  16.579  0.00  0.00    +0.000 C 
ATOM      6  C   UNL     1       6.803   4.427  17.975  0.00  0.00    +0.000 C 
ATOM      7  N   UNL     1       5.441   4.974  18.171  0.00  0.00    +0.000 NA
ATOM      8  H   UNL     1       8.172   6.558  15.851  0.00  0.00    +0.000 HD
ENDROOT
BRANCH   1   9
ATOM      9  C   UNL     1       4.224   7.055  17.122  0.00  0.00    +0.000 C 
BRANCH   9  11
ATOM     10  O   UNL     1       2.776   6.969  19.056  0.00  0.00    +0.000 OA
ATOM     11  C   UNL     1       3.002   7.446  17.941  0.00  0.00    +0.000 C 
ATOM     12  N   UNL     1       2.256   8.473  17.404  0.00  0.00    +0.000 N 
ATOM     13  H   UNL     1       2.452   8.771  16.463  0.00  0.00    +0.000 HD
BRANCH  12  14
ATOM     14  C   UNL     1       1.148   9.115  18.107  0.00  0.00    +0.000 C 
BRANCH  14  15
ATOM     15  C   UNL     1       1.619  10.268  18.999  0.00  0.00    +0.000 C 
BRANCH  15  16
ATOM     16  C   UNL     1       0.804  10.395  20.268  0.00  0.00    +0.000 A 
ATOM     17  C   UNL     1       0.555   9.267  21.065  0.00  0.00    +0.000 A 
ATOM     18  C   UNL     1      -0.247   9.369  22.202  0.00  0.00    +0.000 A 
ATOM     19  C   UNL     1      -0.789  10.599  22.549  0.00  0.00    +0.000 A 
ATOM     20  F   UNL     1      -1.564  10.695  23.638  0.00  0.00    +0.000 F 
ATOM     21  C   UNL     1      -0.538  11.732  21.785  0.00  0.00    +0.000 A 
ATOM     22  C   UNL     1       0.261  11.634  20.645  0.00  0.00    +0.000 A 
ENDBRANCH  15  16
ENDBRANCH  14  15
ENDBRANCH  12  14
ENDBRANCH   9  11
ENDBRANCH   1   9
BRANCH   7  23
ATOM     23  C   UNL     1       4.403   4.189  17.458  0.00  0.00    +0.000 C 
BRANCH  23  24
ATOM     24  C   UNL     1       3.785   2.919  18.151  0.00  0.00    +0.000 C 
ATOM     25  C   UNL     1       3.789   2.896  19.697  0.00  0.00    +0.000 C 
ATOM     26  C   UNL     1       2.722   3.775  20.363  0.00  0.00    +0.000 C 
ATOM     27  C   UNL     1       1.324   3.557  19.789  0.00  0.00    +0.000 C 
ATOM     28  C   UNL     1       1.335   3.669  18.270  0.00  0.00    +0.000 C 
ATOM     29  C   UNL     1       2.336   2.687  17.666  0.00  0.00    +0.000 C 
ENDBRANCH  23  24
ENDBRANCH   7  23
TORSDOF 7
ENDMDL
MODEL 4
REMARK VINA RESULT:      -8.7      1.778      2.943
REMARK  Name = 
REMARK  7 active torsions:
REMARK  status: ('A' for Active; 'I' for Inactive)
REMARK    1  A    between atoms: C_2  and  C_3
REMARK    2  A    between atoms: C_3  and  C_4
REMARK    3  A    between atoms: N_10  and  C_11
REMARK    4  A    between atoms: C_11  and  C_12
REMARK    5  A    between atoms: N_18  and  C_19
REMARK    6  A    between atoms: C_19  and  C_20
REMARK    7  A    between atoms: C_20  and  C_21
REMARK                            x       y       z     vdW  Elec       q    Type
REMARK                         _______ _______ _______ _____ _____    ______ ____
ROOT
ATOM      1  C   UNL     1       6.300   4.704  18.121  0.00  0.00    +0.000 C 
ATOM      2  C   UNL     1       7.426   4.429  17.084  0.00  0.00    +0.000 C 
ATOM      3  O   UNL     1       8.541   4.027  17.407  0.00  0.00    +0.000 OA
ATOM      4  N   UNL     1       7.162   4.691  15.763  0.00  0.00    +0.000 N 
ATOM      5  C   UNL     1       5.828   4.497  15.251  0.00  0.00    +0.000 C 
ATOM      6  C   UNL     1       4.929   3.791  16.278  0.00  0.00    +0.000 C 
ATOM      7  N   UNL     1       4.873   4.504  17.575  0.00  0.00    +0.000 NA
ATOM      8  H   UNL     1       7.951   4.517  15.151  0.00  0.00    +0.000 HD
ENDROOT
BRANCH   1   9
ATOM      9  C   UNL     1       6.608   6.059  18.793  0.00  0.00    +0.000 C 
BRANCH   9  11
ATOM     10  O   UNL     1       6.718   7.408  16.790  0.00  0.00    +0.000 OA
ATOM     11  C   UNL     1       7.164   7.172  17.915  0.00  0.00    +0.000 C 
ATOM     12  N   UNL     1       8.097   7.977  18.532  0.00  0.00    +0.000 N 
ATOM     13  H   UNL     1       8.468   7.691  19.423  0.00  0.00    +0.000 HD
BRANCH  12  14
ATOM     14  C   UNL     1       8.628   9.198  17.932  0.00  0.00    +0.000 C 
BRANCH  14  15
ATOM     15  C   UNL     1       9.140  10.186  18.985  0.00  0.00    +0.000 C 
BRANCH  15  16
ATOM     16  C   UNL     1       9.657  11.472  18.377  0.00  0.00    +0.000 A 
ATOM     17  C   UNL     1      10.907  11.502  17.740  0.00  0.00    +0.000 A 
ATOM     18  C   UNL     1      11.413  12.698  17.232  0.00  0.00    +0.000 A 
ATOM     19  C   UNL     1      10.665  13.862  17.350  0.00  0.00    +0.000 A 
ATOM     20  F   UNL     1      11.154  15.013  16.868  0.00  0.00    +0.000 F 
ATOM     21  C   UNL     1       9.416  13.851  17.959  0.00  0.00    +0.000 A 
ATOM     22  C   UNL     1       8.908  12.656  18.471  0.00  0.00    +0.000 A 
ENDBRANCH  15  16
ENDBRANCH  14  15
ENDBRANCH  12  14
ENDBRANCH   9  11
ENDBRANCH   1   9
BRANCH   7  23
ATOM     23  C   UNL     1       4.035   5.728  17.517  0.00  0.00    +0.000 C 
BRANCH  23  24
ATOM     24  C   UNL     1       2.511   5.637  17.896  0.00  0.00    +0.000 C 
ATOM     25  C   UNL     1       1.823   4.267  17.700  0.00  0.00    +0.000 C 
ATOM     26  C   UNL     1       2.148   3.217  18.771  0.00  0.00    +0.000 C 
ATOM     27  C   UNL     1       1.983   3.744  20.195  0.00  0.00    +0.000 C 
ATOM     28  C   UNL     1       2.741   5.052  20.383  0.00  0.00    +0.000 C 
ATOM     29  C   UNL     1       2.287   6.088  19.357  0.00  0.00    +0.000 C 
ENDBRANCH  23  24
ENDBRANCH   7  23
TORSDOF 7
ENDMDL
MODEL 5
REMARK VINA RESULT:      -8.7      4.725      7.213
REMARK  Name = 
REMARK  7 active torsions:
REMARK  status: ('A' for Active; 'I' for Inactive)
REMARK    1  A    between atoms: C_2  and  C_3
REMARK    2  A    between atoms: C_3  and  C_4
REMARK    3  A    between atoms: N_10  and  C_11
REMARK    4  A    between atoms: C_11  and  C_12
REMARK    5  A    between atoms: N_18  and  C_19
REMARK    6  A    between atoms: C_19  and  C_20
REMARK    7  A    between atoms: C_20  and  C_21
REMARK                            x       y       z     vdW  Elec       q    Type
REMARK                         _______ _______ _______ _____ _____    ______ ____
ROOT
ATOM      1  C   UNL     1       5.511   6.343  17.870  0.00  0.00    +0.000 C 
ATOM      2  C   UNL     1       6.708   6.942  17.079  0.00  0.00    +0.000 C 
ATOM      3  O   UNL     1       7.164   8.059  17.312  0.00  0.00    +0.000 OA
ATOM      4  N   UNL     1       7.237   6.200  16.053  0.00  0.00    +0.000 N 
ATOM      5  C   UNL     1       7.256   4.761  16.151  0.00  0.00    +0.000 C 
ATOM      6  C   UNL     1       6.848   4.289  17.556  0.00  0.00    +0.000 C 
ATOM      7  N   UNL     1       5.524   4.805  17.971  0.00  0.00    +0.000 NA
ATOM      8  H   UNL     1       7.993   6.666  15.565  0.00  0.00    +0.000 HD
ENDROOT
BRANCH   1   9
ATOM      9  C   UNL     1       4.221   6.997  17.329  0.00  0.00    +0.000 C 
BRANCH   9  11
ATOM     10  O   UNL     1       2.955   6.653  19.360  0.00  0.00    +0.000 OA
ATOM     11  C   UNL     1       3.117   7.311  18.330  0.00  0.00    +0.000 C 
ATOM     12  N   UNL     1       2.414   8.466  18.064  0.00  0.00    +0.000 N 
ATOM     13  H   UNL     1       2.548   8.919  17.175  0.00  0.00    +0.000 HD
BRANCH  12  14
ATOM     14  C   UNL     1       1.434   9.040  18.983  0.00  0.00    +0.000 C 
BRANCH  14  15
ATOM     15  C   UNL     1       1.130  10.507  18.662  0.00  0.00    +0.000 C 
BRANCH  15  16
ATOM     16  C   UNL     1      -0.349  10.768  18.472  0.00  0.00    +0.000 A 
ATOM     17  C   UNL     1      -1.121   9.912  17.671  0.00  0.00    +0.000 A 
ATOM     18  C   UNL     1      -2.470  10.183  17.444  0.00  0.00    +0.000 A 
ATOM     19  C   UNL     1      -3.051  11.302  18.027  0.00  0.00    +0.000 A 
ATOM     20  F   UNL     1      -4.345  11.565  17.804  0.00  0.00    +0.000 F 
ATOM     21  C   UNL     1      -2.309  12.151  18.840  0.00  0.00    +0.000 A 
ATOM     22  C   UNL     1      -0.959  11.884  19.067  0.00  0.00    +0.000 A 
ENDBRANCH  15  16
ENDBRANCH  14  15
ENDBRANCH  12  14
ENDBRANCH   9  11
ENDBRANCH   1   9
BRANCH   7  23
ATOM     23  C   UNL     1       4.402   4.111  17.290  0.00  0.00    +0.000 C 
BRANCH  23  24
ATOM     24  C   UNL     1       3.788   2.818  17.941  0.00  0.00    +0.000 C 
ATOM     25  C   UNL     1       3.893   2.691  19.478  0.00  0.00    +0.000 C 
ATOM     26  C   UNL     1       2.903   3.555  20.271  0.00  0.00    +0.000 C 
ATOM     27  C   UNL     1       1.463   3.417  19.780  0.00  0.00    +0.000 C 
ATOM     28  C   UNL     1       1.378   3.630  18.275  0.00  0.00    +0.000 C 
ATOM     29  C   UNL     1       2.303   2.661  17.541  0.00  0.00    +0.000 C 
ENDBRANCH  23  24
ENDBRANCH   7  23
TORSDOF 7
ENDMDL
MODEL 6
REMARK VINA RESULT:      -8.7      4.896      8.062
REMARK  Name = 
REMARK  7 active torsions:
REMARK  status: ('A' for Active; 'I' for Inactive)
REMARK    1  A    between atoms: C_2  and  C_3
REMARK    2  A    between atoms: C_3  and  C_4
REMARK    3  A    between atoms: N_10  and  C_11
REMARK    4  A    between atoms: C_11  and  C_12
REMARK    5  A    between atoms: N_18  and  C_19
REMARK    6  A    between atoms: C_19  and  C_20
REMARK    7  A    between atoms: C_20  and  C_21
REMARK                            x       y       z     vdW  Elec       q    Type
REMARK                         _______ _______ _______ _____ _____    ______ ____
ROOT
ATOM      1  C   UNL     1       2.581   4.536  18.648  0.00  0.00    +0.000 C 
ATOM      2  C   UNL     1       1.682   3.546  19.441  0.00  0.00    +0.000 C 
ATOM      3  O   UNL     1       0.526   3.813  19.763  0.00  0.00    +0.000 OA
ATOM      4  N   UNL     1       2.229   2.349  19.828  0.00  0.00    +0.000 N 
ATOM      5  C   UNL     1       3.211   1.710  18.987  0.00  0.00    +0.000 C 
ATOM      6  C   UNL     1       3.329   2.414  17.627  0.00  0.00    +0.000 C 
ATOM      7  N   UNL     1       3.636   3.857  17.753  0.00  0.00    +0.000 NA
ATOM      8  H   UNL     1       1.595   1.770  20.366  0.00  0.00    +0.000 HD
ENDROOT
BRANCH   1   9
ATOM      9  C   UNL     1       3.089   5.603  19.642  0.00  0.00    +0.000 C 
BRANCH   9  11
ATOM     10  O   UNL     1       1.554   6.777  21.094  0.00  0.00    +0.000 OA
ATOM     11  C   UNL     1       2.138   6.734  20.009  0.00  0.00    +0.000 C 
ATOM     12  N   UNL     1       2.097   7.767  19.098  0.00  0.00    +0.000 N 
ATOM     13  H   UNL     1       2.542   7.641  18.204  0.00  0.00    +0.000 HD
BRANCH  12  14
ATOM     14  C   UNL     1       1.386   9.021  19.337  0.00  0.00    +0.000 C 
BRANCH  14  15
ATOM     15  C   UNL     1       0.906   9.671  18.036  0.00  0.00    +0.000 C 
BRANCH  15  16
ATOM     16  C   UNL     1      -0.475  10.279  18.161  0.00  0.00    +0.000 A 
ATOM     17  C   UNL     1      -1.535   9.792  17.381  0.00  0.00    +0.000 A 
ATOM     18  C   UNL     1      -2.794  10.389  17.450  0.00  0.00    +0.000 A 
ATOM     19  C   UNL     1      -2.996  11.463  18.306  0.00  0.00    +0.000 A 
ATOM     20  F   UNL     1      -4.204  12.041  18.367  0.00  0.00    +0.000 F 
ATOM     21  C   UNL     1      -1.965  11.948  19.102  0.00  0.00    +0.000 A 
ATOM     22  C   UNL     1      -0.703  11.355  19.034  0.00  0.00    +0.000 A 
ENDBRANCH  15  16
ENDBRANCH  14  15
ENDBRANCH  12  14
ENDBRANCH   9  11
ENDBRANCH   1   9
BRANCH   7  23
ATOM     23  C   UNL     1       5.049   4.108  18.131  0.00  0.00    +0.000 C 
BRANCH  23  24
ATOM     24  C   UNL     1       6.074   4.556  17.025  0.00  0.00    +0.000 C 
ATOM     25  C   UNL     1       5.761   5.869  16.273  0.00  0.00    +0.000 C 
ATOM     26  C   UNL     1       6.054   7.154  17.058  0.00  0.00    +0.000 C 
ATOM     27  C   UNL     1       7.448   7.168  17.684  0.00  0.00    +0.000 C 
ATOM     28  C   UNL     1       7.696   5.899  18.488  0.00  0.00    +0.000 C 
ATOM     29  C   UNL     1       7.498   4.662  17.615  0.00  0.00    +0.000 C 
ENDBRANCH  23  24
ENDBRANCH   7  23
TORSDOF 7
ENDMDL
MODEL 7
REMARK VINA RESULT:      -8.6      4.935      7.826
REMARK  Name = 
REMARK  7 active torsions:
REMARK  status: ('A' for Active; 'I' for Inactive)
REMARK    1  A    between atoms: C_2  and  C_3
REMARK    2  A    between atoms: C_3  and  C_4
REMARK    3  A    between atoms: N_10  and  C_11
REMARK    4  A    between atoms: C_11  and  C_12
REMARK    5  A    between atoms: N_18  and  C_19
REMARK    6  A    between atoms: C_19  and  C_20
REMARK    7  A    between atoms: C_20  and  C_21
REMARK                            x       y       z     vdW  Elec       q    Type
REMARK                         _______ _______ _______ _____ _____    ______ ____
ROOT
ATOM      1  C   UNL     1       2.395   4.471  18.665  0.00  0.00    +0.000 C 
ATOM      2  C   UNL     1       1.587   3.488  19.558  0.00  0.00    +0.000 C 
ATOM      3  O   UNL     1       0.493   3.775  20.039  0.00  0.00    +0.000 OA
ATOM      4  N   UNL     1       2.149   2.270  19.847  0.00  0.00    +0.000 N 
ATOM      5  C   UNL     1       2.991   1.624  18.869  0.00  0.00    +0.000 C 
ATOM      6  C   UNL     1       2.940   2.352  17.516  0.00  0.00    +0.000 C 
ATOM      7  N   UNL     1       3.300   3.785  17.624  0.00  0.00    +0.000 NA
ATOM      8  H   UNL     1       1.580   1.696  20.457  0.00  0.00    +0.000 HD
ENDROOT
BRANCH   1   9
ATOM      9  C   UNL     1       3.062   5.505  19.597  0.00  0.00    +0.000 C 
BRANCH   9  11
ATOM     10  O   UNL     1       2.378   7.525  18.459  0.00  0.00    +0.000 OA
ATOM     11  C   UNL     1       2.562   6.942  19.529  0.00  0.00    +0.000 C 
ATOM     12  N   UNL     1       2.197   7.480  20.745  0.00  0.00    +0.000 N 
ATOM     13  H   UNL     1       2.435   6.980  21.585  0.00  0.00    +0.000 HD
BRANCH  12  14
ATOM     14  C   UNL     1       1.534   8.774  20.884  0.00  0.00    +0.000 C 
BRANCH  14  15
ATOM     15  C   UNL     1       0.121   8.642  21.460  0.00  0.00    +0.000 C 
BRANCH  15  16
ATOM     16  C   UNL     1      -0.557   9.981  21.658  0.00  0.00    +0.000 A 
ATOM     17  C   UNL     1      -0.843  10.799  20.555  0.00  0.00    +0.000 A 
ATOM     18  C   UNL     1      -1.412  12.059  20.738  0.00  0.00    +0.000 A 
ATOM     19  C   UNL     1      -1.705  12.497  22.023  0.00  0.00    +0.000 A 
ATOM     20  F   UNL     1      -2.246  13.710  22.200  0.00  0.00    +0.000 F 
ATOM     21  C   UNL     1      -1.448  11.694  23.128  0.00  0.00    +0.000 A 
ATOM     22  C   UNL     1      -0.877  10.434  22.948  0.00  0.00    +0.000 A 
ENDBRANCH  15  16
ENDBRANCH  14  15
ENDBRANCH  12  14
ENDBRANCH   9  11
ENDBRANCH   1   9
BRANCH   7  23
ATOM     23  C   UNL     1       4.758   3.994  17.808  0.00  0.00    +0.000 C 
BRANCH  23  24
ATOM     24  C   UNL     1       5.601   4.616  16.635  0.00  0.00    +0.000 C 
ATOM     25  C   UNL     1       5.258   6.065  16.220  0.00  0.00    +0.000 C 
ATOM     26  C   UNL     1       5.781   7.154  17.167  0.00  0.00    +0.000 C 
ATOM     27  C   UNL     1       7.260   6.989  17.510  0.00  0.00    +0.000 C 
ATOM     28  C   UNL     1       7.552   5.575  17.995  0.00  0.00    +0.000 C 
ATOM     29  C   UNL     1       7.111   4.547  16.956  0.00  0.00    +0.000 C 
ENDBRANCH  23  24
ENDBRANCH   7  23
TORSDOF 7
ENDMDL
MODEL 8
REMARK VINA RESULT:      -8.6      4.603      7.037
REMARK  Name = 
REMARK  7 active torsions:
REMARK  status: ('A' for Active; 'I' for Inactive)
REMARK    1  A    between atoms: C_2  and  C_3
REMARK    2  A    between atoms: C_3  and  C_4
REMARK    3  A    between atoms: N_10  and  C_11
REMARK    4  A    between atoms: C_11  and  C_12
REMARK    5  A    between atoms: N_18  and  C_19
REMARK    6  A    between atoms: C_19  and  C_20
REMARK    7  A    between atoms: C_20  and  C_21
REMARK                            x       y       z     vdW  Elec       q    Type
REMARK                         _______ _______ _______ _____ _____    ______ ____
ROOT
ATOM      1  C   UNL     1       5.332   6.263  17.885  0.00  0.00    +0.000 C 
ATOM      2  C   UNL     1       6.542   6.855  17.109  0.00  0.00    +0.000 C 
ATOM      3  O   UNL     1       6.914   8.018  17.248  0.00  0.00    +0.000 OA
ATOM      4  N   UNL     1       7.184   6.048  16.204  0.00  0.00    +0.000 N 
ATOM      5  C   UNL     1       7.282   4.631  16.457  0.00  0.00    +0.000 C 
ATOM      6  C   UNL     1       6.808   4.281  17.876  0.00  0.00    +0.000 C 
ATOM      7  N   UNL     1       5.430   4.748  18.152  0.00  0.00    +0.000 NA
ATOM      8  H   UNL     1       7.941   6.510  15.715  0.00  0.00    +0.000 HD
ENDROOT
BRANCH   1   9
ATOM      9  C   UNL     1       4.046   6.770  17.199  0.00  0.00    +0.000 C 
BRANCH   9  11
ATOM     10  O   UNL     1       2.689   6.969  19.190  0.00  0.00    +0.000 OA
ATOM     11  C   UNL     1       2.985   7.416  18.080  0.00  0.00    +0.000 C 
ATOM     12  N   UNL     1       2.493   8.612  17.602  0.00  0.00    +0.000 N 
ATOM     13  H   UNL     1       2.724   8.887  16.661  0.00  0.00    +0.000 HD
BRANCH  12  14
ATOM     14  C   UNL     1       1.601   9.478  18.368  0.00  0.00    +0.000 C 
BRANCH  14  15
ATOM     15  C   UNL     1       0.188   9.521  17.777  0.00  0.00    +0.000 C 
BRANCH  15  16
ATOM     16  C   UNL     1      -0.739  10.438  18.546  0.00  0.00    +0.000 A 
ATOM     17  C   UNL     1      -1.986  10.795  18.010  0.00  0.00    +0.000 A 
ATOM     18  C   UNL     1      -2.817  11.687  18.688  0.00  0.00    +0.000 A 
ATOM     19  C   UNL     1      -2.406  12.214  19.906  0.00  0.00    +0.000 A 
ATOM     20  F   UNL     1      -3.201  13.076  20.553  0.00  0.00    +0.000 F 
ATOM     21  C   UNL     1      -1.184  11.859  20.463  0.00  0.00    +0.000 A 
ATOM     22  C   UNL     1      -0.349  10.968  19.787  0.00  0.00    +0.000 A 
ENDBRANCH  15  16
ENDBRANCH  14  15
ENDBRANCH  12  14
ENDBRANCH   9  11
ENDBRANCH   1   9
BRANCH   7  23
ATOM     23  C   UNL     1       4.401   3.914  17.482  0.00  0.00    +0.000 C 
BRANCH  23  24
ATOM     24  C   UNL     1       3.731   2.733  18.276  0.00  0.00    +0.000 C 
ATOM     25  C   UNL     1       3.734   2.837  19.818  0.00  0.00    +0.000 C 
ATOM     26  C   UNL     1       2.705   3.810  20.407  0.00  0.00    +0.000 C 
ATOM     27  C   UNL     1       1.298   3.604  19.847  0.00  0.00    +0.000 C 
ATOM     28  C   UNL     1       1.314   3.590  18.325  0.00  0.00    +0.000 C 
ATOM     29  C   UNL     1       2.274   2.521  17.806  0.00  0.00    +0.000 C 
ENDBRANCH  23  24
ENDBRANCH   7  23
TORSDOF 7
ENDMDL
MODEL 9
REMARK VINA RESULT:      -8.6      4.965      7.569
REMARK  Name = 
REMARK  7 active torsions:
REMARK  status: ('A' for Active; 'I' for Inactive)
REMARK    1  A    between atoms: C_2  and  C_3
REMARK    2  A    between atoms: C_3  and  C_4
REMARK    3  A    between atoms: N_10  and  C_11
REMARK    4  A    between atoms: C_11  and  C_12
REMARK    5  A    between atoms: N_18  and  C_19
REMARK    6  A    between atoms: C_19  and  C_20
REMARK    7  A    between atoms: C_20  and  C_21
REMARK                            x       y       z     vdW  Elec       q    Type
REMARK                         _______ _______ _______ _____ _____    ______ ____
ROOT
ATOM      1  C   UNL     1       4.579   6.218  17.873  0.00  0.00    +0.000 C 
ATOM      2  C   UNL     1       5.744   6.603  16.919  0.00  0.00    +0.000 C 
ATOM      3  O   UNL     1       6.415   7.622  17.069  0.00  0.00    +0.000 OA
ATOM      4  N   UNL     1       5.994   5.786  15.845  0.00  0.00    +0.000 N 
ATOM      5  C   UNL     1       5.775   4.365  15.965  0.00  0.00    +0.000 C 
ATOM      6  C   UNL     1       5.484   3.964  17.420  0.00  0.00    +0.000 C 
ATOM      7  N   UNL     1       4.338   4.701  17.999  0.00  0.00    +0.000 NA
ATOM      8  H   UNL     1       6.746   6.116  15.252  0.00  0.00    +0.000 HD
ENDROOT
BRANCH   1   9
ATOM      9  C   UNL     1       3.362   7.091  17.498  0.00  0.00    +0.000 C 
BRANCH   9  11
ATOM     10  O   UNL     1       2.510   7.104  19.760  0.00  0.00    +0.000 OA
ATOM     11  C   UNL     1       2.484   7.601  18.632  0.00  0.00    +0.000 C 
ATOM     12  N   UNL     1       1.773   8.744  18.337  0.00  0.00    +0.000 N 
ATOM     13  H   UNL     1       1.742   9.061  17.382  0.00  0.00    +0.000 HD
BRANCH  12  14
ATOM     14  C   UNL     1       1.007   9.494  19.330  0.00  0.00    +0.000 C 
BRANCH  14  15
ATOM     15  C   UNL     1       0.503  10.832  18.783  0.00  0.00    +0.000 C 
BRANCH  15  16
ATOM     16  C   UNL     1      -0.968  10.800  18.426  0.00  0.00    +0.000 A 
ATOM     17  C   UNL     1      -1.438   9.918  17.441  0.00  0.00    +0.000 A 
ATOM     18  C   UNL     1      -2.782   9.928  17.067  0.00  0.00    +0.000 A 
ATOM     19  C   UNL     1      -3.658  10.810  17.685  0.00  0.00    +0.000 A 
ATOM     20  F   UNL     1      -4.947  10.824  17.322  0.00  0.00    +0.000 F 
ATOM     21  C   UNL     1      -3.217  11.678  18.678  0.00  0.00    +0.000 A 
ATOM     22  C   UNL     1      -1.873  11.673  19.052  0.00  0.00    +0.000 A 
ENDBRANCH  15  16
ENDBRANCH  14  15
ENDBRANCH  12  14
ENDBRANCH   9  11
ENDBRANCH   1   9
BRANCH   7  23
ATOM     23  C   UNL     1       3.031   4.218  17.487  0.00  0.00    +0.000 C 
BRANCH  23  24
ATOM     24  C   UNL     1       2.425   2.883  18.057  0.00  0.00    +0.000 C 
ATOM     25  C   UNL     1       3.251   2.147  19.137  0.00  0.00    +0.000 C 
ATOM     26  C   UNL     1       3.188   2.769  20.539  0.00  0.00    +0.000 C 
ATOM     27  C   UNL     1       1.761   3.058  21.002  0.00  0.00    +0.000 C 
ATOM     28  C   UNL     1       0.999   3.856  19.953  0.00  0.00    +0.000 C 
ATOM     29  C   UNL     1       1.004   3.125  18.612  0.00  0.00    +0.000 C 
ENDBRANCH  23  24
ENDBRANCH   7  23
TORSDOF 7
ENDMDL
