MODEL 1
REMARK VINA RESULT:      -9.1      0.000      0.000
REMARK  Name = 
REMARK  7 active torsions:
REMARK  status: ('A' for Active; 'I' for Inactive)
REMARK    1  A    between atoms: C_1  and  C_2
REMARK    2  A    between atoms: C_2  and  C_4
REMARK    3  A    between atoms: C_7  and  C_8
REMARK    4  A    between atoms: C_11  and  C_12
REMARK    5  A    between atoms: C_12  and  O_13
REMARK    6  A    between atoms: O_13  and  C_14
REMARK    7  A    between atoms: C_19  and  N_20
REMARK                            x       y       z     vdW  Elec       q    Type
REMARK                         _______ _______ _______ _____ _____    ______ ____
ROOT
ATOM      1  C   UNL     1       1.271   8.421  20.345  0.00  0.00    +0.000 A 
ATOM      2  C   UNL     1       1.776   8.587  19.043  0.00  0.00    +0.000 A 
ATOM      3  C   UNL     1       2.352   7.528  18.338  0.00  0.00    +0.000 A 
ATOM      4  C   UNL     1       2.464   6.264  18.921  0.00  0.00    +0.000 A 
ATOM      5  C   UNL     1       1.998   6.086  20.228  0.00  0.00    +0.000 A 
ATOM      6  C   UNL     1       1.404   7.145  20.923  0.00  0.00    +0.000 A 
ENDROOT
BRANCH   1  10
ATOM      7  C   UNL     1      -0.676  11.666  22.430  0.00  0.00    +0.000 A 
ATOM      8  C   UNL     1      -0.674  10.378  22.966  0.00  0.00    +0.000 A 
ATOM      9  C   UNL     1      -0.024   9.340  22.293  0.00  0.00    +0.000 A 
ATOM     10  C   UNL     1       0.611   9.544  21.053  0.00  0.00    +0.000 A 
ATOM     11  C   UNL     1       0.583  10.848  20.526  0.00  0.00    +0.000 A 
ATOM     12  C   UNL     1      -0.044  11.903  21.208  0.00  0.00    +0.000 A 
BRANCH   7  14
ATOM     13  C   UNL     1      -2.845  12.610  23.433  0.00  0.00    +0.000 C 
ATOM     14  C   UNL     1      -1.366  12.740  23.193  0.00  0.00    +0.000 C 
ATOM     15  O   UNL     1      -0.730  13.719  23.577  0.00  0.00    +0.000 OA
ENDBRANCH   7  14
ENDBRANCH   1  10
BRANCH   4  16
ATOM     16  C   UNL     1       3.074   5.129  18.146  0.00  0.00    +0.000 C 
BRANCH  16  17
ATOM     17  O   UNL     1       3.808   4.320  19.062  0.00  0.00    +0.000 OA
BRANCH  17  18
ATOM     18  C   UNL     1       5.168   4.060  18.678  0.00  0.00    +0.000 C 
ATOM     19  C   UNL     1       6.022   5.338  18.799  0.00  0.00    +0.000 C 
ATOM     20  O   UNL     1       7.152   5.413  17.937  0.00  0.00    +0.000 OA
ATOM     21  C   UNL     1       6.899   5.091  16.677  0.00  0.00    +0.000 A 
ATOM     22  N   UNL     1       7.575   5.534  15.647  0.00  0.00    +0.000 NA
ATOM     23  C   UNL     1       7.055   4.834  14.572  0.00  0.00    +0.000 A 
ATOM     24  C   UNL     1       6.065   3.957  14.975  0.00  0.00    +0.000 A 
ATOM     25  N   UNL     1       5.969   4.164  16.319  0.00  0.00    +0.000 N 
ATOM     26  C   UNL     1       5.127   3.470  17.259  0.00  0.00    +0.000 C 
BRANCH  23  27
ATOM     27  N   UNL     1       7.568   5.025  13.229  0.00  0.00    +0.000 N 
ATOM     28  O   UNL     1       8.458   5.875  13.096  0.00  0.00    +0.000 OA
ATOM     29  O   UNL     1       7.085   4.335  12.321  0.00  0.00    +0.000 OA
ENDBRANCH  23  27
ENDBRANCH  17  18
ENDBRANCH  16  17
ENDBRANCH   4  16
TORSDOF 6
ENDMDL
MODEL 2
REMARK VINA RESULT:      -9.0      0.766      1.599
REMARK  Name = 
REMARK  7 active torsions:
REMARK  status: ('A' for Active; 'I' for Inactive)
REMARK    1  A    between atoms: C_1  and  C_2
REMARK    2  A    between atoms: C_2  and  C_4
REMARK    3  A    between atoms: C_7  and  C_8
REMARK    4  A    between atoms: C_11  and  C_12
REMARK    5  A    between atoms: C_12  and  O_13
REMARK    6  A    between atoms: O_13  and  C_14
REMARK    7  A    between atoms: C_19  and  N_20
REMARK                            x       y       z     vdW  Elec       q    Type
REMARK                         _______ _______ _______ _____ _____    ______ ____
ROOT
ATOM      1  C   UNL     1       1.039   8.565  20.410  0.00  0.00    +0.000 A 
ATOM      2  C   UNL     1       1.286   7.285  20.937  0.00  0.00    +0.000 A 
ATOM      3  C   UNL     1       2.070   6.349  20.258  0.00  0.00    +0.000 A 
ATOM      4  C   UNL     1       2.620   6.655  19.011  0.00  0.00    +0.000 A 
ATOM      5  C   UNL     1       2.361   7.912  18.455  0.00  0.00    +0.000 A 
ATOM      6  C   UNL     1       1.591   8.852  19.146  0.00  0.00    +0.000 A 
ENDROOT
BRANCH   1  10
ATOM      7  C   UNL     1      -1.240  11.504  22.609  0.00  0.00    +0.000 A 
ATOM      8  C   UNL     1      -0.862  11.742  21.287  0.00  0.00    +0.000 A 
ATOM      9  C   UNL     1      -0.143  10.777  20.579  0.00  0.00    +0.000 A 
ATOM     10  C   UNL     1       0.253   9.564  21.174  0.00  0.00    +0.000 A 
ATOM     11  C   UNL     1      -0.127   9.352  22.511  0.00  0.00    +0.000 A 
ATOM     12  C   UNL     1      -0.874  10.304  23.222  0.00  0.00    +0.000 A 
BRANCH   7  14
ATOM     13  C   UNL     1      -1.366  13.886  23.563  0.00  0.00    +0.000 C 
ATOM     14  C   UNL     1      -2.021  12.555  23.314  0.00  0.00    +0.000 C 
ATOM     15  O   UNL     1      -3.159  12.308  23.708  0.00  0.00    +0.000 OA
ENDBRANCH   7  14
ENDBRANCH   1  10
BRANCH   4  16
ATOM     16  C   UNL     1       3.473   5.643  18.298  0.00  0.00    +0.000 C 
BRANCH  16  17
ATOM     17  O   UNL     1       4.352   5.059  19.257  0.00  0.00    +0.000 OA
BRANCH  17  18
ATOM     18  C   UNL     1       5.568   4.524  18.710  0.00  0.00    +0.000 C 
ATOM     19  C   UNL     1       6.645   5.623  18.602  0.00  0.00    +0.000 C 
ATOM     20  O   UNL     1       7.624   5.433  17.588  0.00  0.00    +0.000 OA
ATOM     21  C   UNL     1       7.130   5.092  16.408  0.00  0.00    +0.000 A 
ATOM     22  N   UNL     1       7.708   5.339  15.259  0.00  0.00    +0.000 NA
ATOM     23  C   UNL     1       6.914   4.688  14.331  0.00  0.00    +0.000 A 
ATOM     24  C   UNL     1       5.857   4.039  14.941  0.00  0.00    +0.000 A 
ATOM     25  N   UNL     1       6.005   4.339  16.263  0.00  0.00    +0.000 N 
ATOM     26  C   UNL     1       5.207   3.871  17.367  0.00  0.00    +0.000 C 
BRANCH  23  27
ATOM     27  N   UNL     1       7.242   4.701  12.918  0.00  0.00    +0.000 N 
ATOM     28  O   UNL     1       6.746   3.798  12.231  0.00  0.00    +0.000 OA
ATOM     29  O   UNL     1       7.983   5.602  12.504  0.00  0.00    +0.000 OA
ENDBRANCH  23  27
ENDBRANCH  17  18
ENDBRANCH  16  17
ENDBRANCH   4  16
TORSDOF 6
ENDMDL
MODEL 3
REMARK VINA RESULT:      -9.0      1.052      1.722
REMARK  Name = 
REMARK  7 active torsions:
REMARK  status: ('A' for Active; 'I' for Inactive)
REMARK    1  A    between atoms: C_1  and  C_2
REMARK    2  A    between atoms: C_2  and  C_4
REMARK    3  A    between atoms: C_7  and  C_8
REMARK    4  A    between atoms: C_11  and  C_12
REMARK    5  A    between atoms: C_12  and  O_13
REMARK    6  A    between atoms: O_13  and  C_14
REMARK    7  A    between atoms: C_19  and  N_20
REMARK                            x       y       z     vdW  Elec       q    Type
REMARK                         _______ _______ _______ _____ _____    ______ ____
ROOT
ATOM      1  C   UNL     1       0.575   9.398  20.343  0.00  0.00    +0.000 A 
ATOM      2  C   UNL     1       1.126   8.275  20.986  0.00  0.00    +0.000 A 
ATOM      3  C   UNL     1       2.015   7.417  20.335  0.00  0.00    +0.000 A 
ATOM      4  C   UNL     1       2.369   7.641  19.002  0.00  0.00    +0.000 A 
ATOM      5  C   UNL     1       1.807   8.733  18.334  0.00  0.00    +0.000 A 
ATOM      6  C   UNL     1       0.933   9.601  18.996  0.00  0.00    +0.000 A 
ENDROOT
BRANCH   1  10
ATOM      7  C   UNL     1      -2.032  12.137  22.433  0.00  0.00    +0.000 A 
ATOM      8  C   UNL     1      -1.851  12.242  21.054  0.00  0.00    +0.000 A 
ATOM      9  C   UNL     1      -1.021  11.339  20.385  0.00  0.00    +0.000 A 
ATOM     10  C   UNL     1      -0.321  10.329  21.071  0.00  0.00    +0.000 A 
ATOM     11  C   UNL     1      -0.508  10.251  22.463  0.00  0.00    +0.000 A 
ATOM     12  C   UNL     1      -1.361  11.137  23.140  0.00  0.00    +0.000 A 
BRANCH   7  14
ATOM     13  C   UNL     1      -3.749  12.645  24.275  0.00  0.00    +0.000 C 
ATOM     14  C   UNL     1      -2.940  13.111  23.096  0.00  0.00    +0.000 C 
ATOM     15  O   UNL     1      -3.039  14.252  22.652  0.00  0.00    +0.000 OA
ENDBRANCH   7  14
ENDBRANCH   1  10
BRANCH   4  16
ATOM     16  C   UNL     1       3.337   6.717  18.317  0.00  0.00    +0.000 C 
BRANCH  16  17
ATOM     17  O   UNL     1       3.507   5.570  19.147  0.00  0.00    +0.000 OA
BRANCH  17  18
ATOM     18  C   UNL     1       4.430   4.593  18.640  0.00  0.00    +0.000 C 
ATOM     19  C   UNL     1       5.878   4.960  19.025  0.00  0.00    +0.000 C 
ATOM     20  O   UNL     1       6.892   4.482  18.149  0.00  0.00    +0.000 OA
ATOM     21  C   UNL     1       6.644   4.684  16.864  0.00  0.00    +0.000 A 
ATOM     22  N   UNL     1       7.563   4.805  15.939  0.00  0.00    +0.000 NA
ATOM     23  C   UNL     1       6.849   4.859  14.754  0.00  0.00    +0.000 A 
ATOM     24  C   UNL     1       5.490   4.759  14.982  0.00  0.00    +0.000 A 
ATOM     25  N   UNL     1       5.388   4.677  16.340  0.00  0.00    +0.000 N 
ATOM     26  C   UNL     1       4.194   4.497  17.124  0.00  0.00    +0.000 C 
BRANCH  23  27
ATOM     27  N   UNL     1       7.521   4.968  13.474  0.00  0.00    +0.000 N 
ATOM     28  O   UNL     1       8.465   5.766  13.414  0.00  0.00    +0.000 OA
ATOM     29  O   UNL     1       7.108   4.265  12.542  0.00  0.00    +0.000 OA
ENDBRANCH  23  27
ENDBRANCH  17  18
ENDBRANCH  16  17
ENDBRANCH   4  16
TORSDOF 6
ENDMDL
MODEL 4
REMARK VINA RESULT:      -9.0      0.946      1.014
REMARK  Name = 
REMARK  7 active torsions:
REMARK  status: ('A' for Active; 'I' for Inactive)
REMARK    1  A    between atoms: C_1  and  C_2
REMARK    2  A    between atoms: C_2  and  C_4
REMARK    3  A    between atoms: C_7  and  C_8
REMARK    4  A    between atoms: C_11  and  C_12
REMARK    5  A    between atoms: C_12  and  O_13
REMARK    6  A    between atoms: O_13  and  C_14
REMARK    7  A    between atoms: C_19  and  N_20
REMARK                            x       y       z     vdW  Elec       q    Type
REMARK                         _______ _______ _______ _____ _____    ______ ____
ROOT
ATOM      1  C   UNL     1       0.886   9.315  20.019  0.00  0.00    +0.000 A 
ATOM      2  C   UNL     1       1.190   9.500  18.658  0.00  0.00    +0.000 A 
ATOM      3  C   UNL     1       1.959   8.578  17.944  0.00  0.00    +0.000 A 
ATOM      4  C   UNL     1       2.473   7.443  18.575  0.00  0.00    +0.000 A 
ATOM      5  C   UNL     1       2.210   7.257  19.936  0.00  0.00    +0.000 A 
ATOM      6  C   UNL     1       1.424   8.173  20.642  0.00  0.00    +0.000 A 
ENDROOT
BRANCH   1  10
ATOM      7  C   UNL     1      -1.641  12.089  22.159  0.00  0.00    +0.000 A 
ATOM      8  C   UNL     1      -0.893  11.134  22.848  0.00  0.00    +0.000 A 
ATOM      9  C   UNL     1      -0.064  10.255  22.147  0.00  0.00    +0.000 A 
ATOM     10  C   UNL     1       0.019  10.276  20.742  0.00  0.00    +0.000 A 
ATOM     11  C   UNL     1      -0.755  11.238  20.068  0.00  0.00    +0.000 A 
ATOM     12  C   UNL     1      -1.570  12.143  20.765  0.00  0.00    +0.000 A 
BRANCH   7  14
ATOM     13  C   UNL     1      -3.535  12.423  23.863  0.00  0.00    +0.000 C 
ATOM     14  C   UNL     1      -2.495  13.014  22.951  0.00  0.00    +0.000 C 
ATOM     15  O   UNL     1      -2.362  14.229  22.821  0.00  0.00    +0.000 OA
ENDBRANCH   7  14
ENDBRANCH   1  10
BRANCH   4  16
ATOM     16  C   UNL     1       3.289   6.452  17.792  0.00  0.00    +0.000 C 
BRANCH  16  17
ATOM     17  O   UNL     1       3.640   5.385  18.670  0.00  0.00    +0.000 OA
BRANCH  17  18
ATOM     18  C   UNL     1       4.757   4.593  18.237  0.00  0.00    +0.000 C 
ATOM     19  C   UNL     1       6.081   5.353  18.456  0.00  0.00    +0.000 C 
ATOM     20  O   UNL     1       7.148   5.003  17.581  0.00  0.00    +0.000 OA
ATOM     21  C   UNL     1       6.807   4.939  16.303  0.00  0.00    +0.000 A 
ATOM     22  N   UNL     1       7.631   5.133  15.304  0.00  0.00    +0.000 NA
ATOM     23  C   UNL     1       6.880   4.831  14.181  0.00  0.00    +0.000 A 
ATOM     24  C   UNL     1       5.599   4.443  14.522  0.00  0.00    +0.000 A 
ATOM     25  N   UNL     1       5.573   4.549  15.882  0.00  0.00    +0.000 N 
ATOM     26  C   UNL     1       4.493   4.210  16.771  0.00  0.00    +0.000 C 
BRANCH  23  27
ATOM     27  N   UNL     1       7.454   4.899  12.850  0.00  0.00    +0.000 N 
ATOM     28  O   UNL     1       8.254   5.821  12.643  0.00  0.00    +0.000 OA
ATOM     29  O   UNL     1       7.108   4.042  12.026  0.00  0.00    +0.000 OA
ENDBRANCH  23  27
ENDBRANCH  17  18
ENDBRANCH  16  17
ENDBRANCH   4  16
TORSDOF 6
ENDMDL
MODEL 5
REMARK VINA RESULT:      -8.9      0.783      1.326
REMARK  Name = 
REMARK  7 active torsions:
REMARK  status: ('A' for Active; 'I' for Inactive)
REMARK    1  A    between atoms: C_1  and  C_2
REMARK    2  A    between atoms: C_2  and  C_4
REMARK    3  A    between atoms: C_7  and  C_8
REMARK    4  A    between atoms: C_11  and  C_12
REMARK    5  A    between atoms: C_12  and  O_13
REMARK    6  A    between atoms: O_13  and  C_14
REMARK    7  A    between atoms: C_19  and  N_20
REMARK                            x       y       z     vdW  Elec       q    Type
REMARK                         _______ _______ _______ _____ _____    ______ ____
ROOT
ATOM      1  C   UNL     1       1.186   9.151  20.167  0.00  0.00    +0.000 A 
ATOM      2  C   UNL     1       1.444   9.236  18.787  0.00  0.00    +0.000 A 
ATOM      3  C   UNL     1       2.001   8.170  18.076  0.00  0.00    +0.000 A 
ATOM      4  C   UNL     1       2.341   6.983  18.729  0.00  0.00    +0.000 A 
ATOM      5  C   UNL     1       2.122   6.889  20.107  0.00  0.00    +0.000 A 
ATOM      6  C   UNL     1       1.547   7.952  20.811  0.00  0.00    +0.000 A 
ENDROOT
BRANCH   1  10
ATOM      7  C   UNL     1      -0.668  12.446  22.258  0.00  0.00    +0.000 A 
ATOM      8  C   UNL     1       0.125  12.675  21.133  0.00  0.00    +0.000 A 
ATOM      9  C   UNL     1       0.703  11.601  20.452  0.00  0.00    +0.000 A 
ATOM     10  C   UNL     1       0.540  10.273  20.890  0.00  0.00    +0.000 A 
ATOM     11  C   UNL     1      -0.252  10.068  22.035  0.00  0.00    +0.000 A 
ATOM     12  C   UNL     1      -0.859  11.138  22.709  0.00  0.00    +0.000 A 
BRANCH   7  14
ATOM     13  C   UNL     1      -2.419  14.326  22.257  0.00  0.00    +0.000 C 
ATOM     14  C   UNL     1      -1.276  13.621  22.936  0.00  0.00    +0.000 C 
ATOM     15  O   UNL     1      -0.817  14.013  24.006  0.00  0.00    +0.000 OA
ENDBRANCH   7  14
ENDBRANCH   1  10
BRANCH   4  16
ATOM     16  C   UNL     1       2.928   5.838  17.949  0.00  0.00    +0.000 C 
BRANCH  16  17
ATOM     17  O   UNL     1       3.426   4.884  18.884  0.00  0.00    +0.000 OA
BRANCH  17  18
ATOM     18  C   UNL     1       4.529   4.096  18.408  0.00  0.00    +0.000 C 
ATOM     19  C   UNL     1       5.871   4.737  18.815  0.00  0.00    +0.000 C 
ATOM     20  O   UNL     1       6.976   4.452  17.965  0.00  0.00    +0.000 OA
ATOM     21  C   UNL     1       6.721   4.589  16.672  0.00  0.00    +0.000 A 
ATOM     22  N   UNL     1       7.619   4.874  15.763  0.00  0.00    +0.000 NA
ATOM     23  C   UNL     1       6.933   4.778  14.565  0.00  0.00    +0.000 A 
ATOM     24  C   UNL     1       5.613   4.422  14.769  0.00  0.00    +0.000 A 
ATOM     25  N   UNL     1       5.501   4.337  16.126  0.00  0.00    +0.000 N 
ATOM     26  C   UNL     1       4.347   3.941  16.890  0.00  0.00    +0.000 C 
BRANCH  23  27
ATOM     27  N   UNL     1       7.599   5.000  13.296  0.00  0.00    +0.000 N 
ATOM     28  O   UNL     1       7.173   4.351  12.331  0.00  0.00    +0.000 OA
ATOM     29  O   UNL     1       8.534   5.812  13.266  0.00  0.00    +0.000 OA
ENDBRANCH  23  27
ENDBRANCH  17  18
ENDBRANCH  16  17
ENDBRANCH   4  16
TORSDOF 6
ENDMDL
MODEL 6
REMARK VINA RESULT:      -8.9      0.997      1.401
REMARK  Name = 
REMARK  7 active torsions:
REMARK  status: ('A' for Active; 'I' for Inactive)
REMARK    1  A    between atoms: C_1  and  C_2
REMARK    2  A    between atoms: C_2  and  C_4
REMARK    3  A    between atoms: C_7  and  C_8
REMARK    4  A    between atoms: C_11  and  C_12
REMARK    5  A    between atoms: C_12  and  O_13
REMARK    6  A    between atoms: O_13  and  C_14
REMARK    7  A    between atoms: C_19  and  N_20
REMARK                            x       y       z     vdW  Elec       q    Type
REMARK                         _______ _______ _______ _____ _____    ______ ____
ROOT
ATOM      1  C   UNL     1       0.656   9.241  20.512  0.00  0.00    +0.000 A 
ATOM      2  C   UNL     1       1.127   9.456  19.205  0.00  0.00    +0.000 A 
ATOM      3  C   UNL     1       1.937   8.523  18.552  0.00  0.00    +0.000 A 
ATOM      4  C   UNL     1       2.325   7.346  19.196  0.00  0.00    +0.000 A 
ATOM      5  C   UNL     1       1.894   7.128  20.509  0.00  0.00    +0.000 A 
ATOM      6  C   UNL     1       1.068   8.056  21.152  0.00  0.00    +0.000 A 
ENDROOT
BRANCH   1  10
ATOM      7  C   UNL     1      -1.979  12.110  22.380  0.00  0.00    +0.000 A 
ATOM      8  C   UNL     1      -1.734  12.160  21.008  0.00  0.00    +0.000 A 
ATOM      9  C   UNL     1      -0.896  11.215  20.411  0.00  0.00    +0.000 A 
ATOM     10  C   UNL     1      -0.250  10.216  21.164  0.00  0.00    +0.000 A 
ATOM     11  C   UNL     1      -0.502  10.194  22.548  0.00  0.00    +0.000 A 
ATOM     12  C   UNL     1      -1.364  11.123  23.153  0.00  0.00    +0.000 A 
BRANCH   7  14
ATOM     13  C   UNL     1      -4.154  13.468  22.218  0.00  0.00    +0.000 C 
ATOM     14  C   UNL     1      -2.894  13.126  22.965  0.00  0.00    +0.000 C 
ATOM     15  O   UNL     1      -2.590  13.688  24.015  0.00  0.00    +0.000 OA
ENDBRANCH   7  14
ENDBRANCH   1  10
BRANCH   4  16
ATOM     16  C   UNL     1       3.186   6.345  18.478  0.00  0.00    +0.000 C 
BRANCH  16  17
ATOM     17  O   UNL     1       3.969   5.662  19.455  0.00  0.00    +0.000 OA
BRANCH  17  18
ATOM     18  C   UNL     1       4.890   4.699  18.920  0.00  0.00    +0.000 C 
ATOM     19  C   UNL     1       6.343   5.195  19.067  0.00  0.00    +0.000 C 
ATOM     20  O   UNL     1       7.269   4.694  18.110  0.00  0.00    +0.000 OA
ATOM     21  C   UNL     1       6.841   4.747  16.857  0.00  0.00    +0.000 A 
ATOM     22  N   UNL     1       7.621   4.830  15.808  0.00  0.00    +0.000 NA
ATOM     23  C   UNL     1       6.757   4.716  14.733  0.00  0.00    +0.000 A 
ATOM     24  C   UNL     1       5.450   4.554  15.153  0.00  0.00    +0.000 A 
ATOM     25  N   UNL     1       5.532   4.606  16.513  0.00  0.00    +0.000 N 
ATOM     26  C   UNL     1       4.467   4.432  17.466  0.00  0.00    +0.000 C 
BRANCH  23  27
ATOM     27  N   UNL     1       7.247   4.735  13.368  0.00  0.00    +0.000 N 
ATOM     28  O   UNL     1       8.083   5.606  13.096  0.00  0.00    +0.000 OA
ATOM     29  O   UNL     1       6.801   3.889  12.581  0.00  0.00    +0.000 OA
ENDBRANCH  23  27
ENDBRANCH  17  18
ENDBRANCH  16  17
ENDBRANCH   4  16
TORSDOF 6
ENDMDL
MODEL 7
REMARK VINA RESULT:      -8.7      1.310      1.766
REMARK  Name = 
REMARK  7 active torsions:
REMARK  status: ('A' for Active; 'I' for Inactive)
REMARK    1  A    between atoms: C_1  and  C_2
REMARK    2  A    between atoms: C_2  and  C_4
REMARK    3  A    between atoms: C_7  and  C_8
REMARK    4  A    between atoms: C_11  and  C_12
REMARK    5  A    between atoms: C_12  and  O_13
REMARK    6  A    between atoms: O_13  and  C_14
REMARK    7  A    between atoms: C_19  and  N_20
REMARK                            x       y       z     vdW  Elec       q    Type
REMARK                         _______ _______ _______ _____ _____    ______ ____
ROOT
ATOM      1  C   UNL     1       1.021   8.986  20.207  0.00  0.00    +0.000 A 
ATOM      2  C   UNL     1       1.415   9.288  18.891  0.00  0.00    +0.000 A 
ATOM      3  C   UNL     1       2.238   8.431  18.156  0.00  0.00    +0.000 A 
ATOM      4  C   UNL     1       2.716   7.247  18.721  0.00  0.00    +0.000 A 
ATOM      5  C   UNL     1       2.362   6.944  20.040  0.00  0.00    +0.000 A 
ATOM      6  C   UNL     1       1.522   7.795  20.766  0.00  0.00    +0.000 A 
ENDROOT
BRANCH   1  10
ATOM      7  C   UNL     1      -1.660  11.620  22.338  0.00  0.00    +0.000 A 
ATOM      8  C   UNL     1      -1.467  11.764  20.964  0.00  0.00    +0.000 A 
ATOM      9  C   UNL     1      -0.613  10.894  20.281  0.00  0.00    +0.000 A 
ATOM     10  C   UNL     1       0.099   9.881  20.949  0.00  0.00    +0.000 A 
ATOM     11  C   UNL     1      -0.100   9.764  22.336  0.00  0.00    +0.000 A 
ATOM     12  C   UNL     1      -0.977  10.616  23.026  0.00  0.00    +0.000 A 
BRANCH   7  14
ATOM     13  C   UNL     1      -2.029  13.815  23.621  0.00  0.00    +0.000 C 
ATOM     14  C   UNL     1      -2.593  12.559  23.016  0.00  0.00    +0.000 C 
ATOM     15  O   UNL     1      -3.786  12.278  23.100  0.00  0.00    +0.000 OA
ENDBRANCH   7  14
ENDBRANCH   1  10
BRANCH   4  16
ATOM     16  C   UNL     1       3.590   6.328  17.914  0.00  0.00    +0.000 C 
BRANCH  16  17
ATOM     17  O   UNL     1       4.582   5.792  18.786  0.00  0.00    +0.000 OA
BRANCH  17  18
ATOM     18  C   UNL     1       5.792   5.375  18.135  0.00  0.00    +0.000 C 
ATOM     19  C   UNL     1       6.439   6.555  17.381  0.00  0.00    +0.000 C 
ATOM     20  O   UNL     1       7.242   6.207  16.259  0.00  0.00    +0.000 OA
ATOM     21  C   UNL     1       6.684   5.328  15.440  0.00  0.00    +0.000 A 
ATOM     22  N   UNL     1       6.953   5.228  14.162  0.00  0.00    +0.000 NA
ATOM     23  C   UNL     1       6.255   4.104  13.754  0.00  0.00    +0.000 A 
ATOM     24  C   UNL     1       5.573   3.527  14.808  0.00  0.00    +0.000 A 
ATOM     25  N   UNL     1       5.843   4.347  15.865  0.00  0.00    +0.000 N 
ATOM     26  C   UNL     1       5.429   4.183  17.234  0.00  0.00    +0.000 C 
BRANCH  23  27
ATOM     27  N   UNL     1       6.317   3.635  12.384  0.00  0.00    +0.000 N 
ATOM     28  O   UNL     1       5.250   3.258  11.883  0.00  0.00    +0.000 OA
ATOM     29  O   UNL     1       7.419   3.644  11.818  0.00  0.00    +0.000 OA
ENDBRANCH  23  27
ENDBRANCH  17  18
ENDBRANCH  16  17
ENDBRANCH   4  16
TORSDOF 6
ENDMDL
MODEL 8
REMARK VINA RESULT:      -8.5      2.159      2.886
REMARK  Name = 
REMARK  7 active torsions:
REMARK  status: ('A' for Active; 'I' for Inactive)
REMARK    1  A    between atoms: C_1  and  C_2
REMARK    2  A    between atoms: C_2  and  C_4
REMARK    3  A    between atoms: C_7  and  C_8
REMARK    4  A    between atoms: C_11  and  C_12
REMARK    5  A    between atoms: C_12  and  O_13
REMARK    6  A    between atoms: O_13  and  C_14
REMARK    7  A    between atoms: C_19  and  N_20
REMARK                            x       y       z     vdW  Elec       q    Type
REMARK                         _______ _______ _______ _____ _____    ______ ____
ROOT
ATOM      1  C   UNL     1       1.429  10.023  18.973  0.00  0.00    +0.000 A 
ATOM      2  C   UNL     1       1.209   9.234  20.117  0.00  0.00    +0.000 A 
ATOM      3  C   UNL     1       1.581   7.888  20.164  0.00  0.00    +0.000 A 
ATOM      4  C   UNL     1       2.169   7.275  19.056  0.00  0.00    +0.000 A 
ATOM      5  C   UNL     1       2.367   8.033  17.898  0.00  0.00    +0.000 A 
ATOM      6  C   UNL     1       2.011   9.385  17.861  0.00  0.00    +0.000 A 
ENDROOT
BRANCH   1  10
ATOM      7  C   UNL     1       0.373  14.212  18.946  0.00  0.00    +0.000 A 
ATOM      8  C   UNL     1      -0.561  13.247  19.323  0.00  0.00    +0.000 A 
ATOM      9  C   UNL     1      -0.203  11.896  19.348  0.00  0.00    +0.000 A 
ATOM     10  C   UNL     1       1.081  11.464  18.965  0.00  0.00    +0.000 A 
ATOM     11  C   UNL     1       2.001  12.453  18.575  0.00  0.00    +0.000 A 
ATOM     12  C   UNL     1       1.659  13.815  18.573  0.00  0.00    +0.000 A 
BRANCH   7  14
ATOM     13  C   UNL     1       0.915  16.673  18.449  0.00  0.00    +0.000 C 
ATOM     14  C   UNL     1      -0.051  15.637  18.954  0.00  0.00    +0.000 C 
ATOM     15  O   UNL     1      -1.154  15.943  19.401  0.00  0.00    +0.000 OA
ENDBRANCH   7  14
ENDBRANCH   1  10
BRANCH   4  16
ATOM     16  C   UNL     1       2.576   5.829  19.126  0.00  0.00    +0.000 C 
BRANCH  16  17
ATOM     17  O   UNL     1       3.884   5.770  19.689  0.00  0.00    +0.000 OA
BRANCH  17  18
ATOM     18  C   UNL     1       4.730   4.749  19.139  0.00  0.00    +0.000 C 
ATOM     19  C   UNL     1       6.217   5.113  19.328  0.00  0.00    +0.000 C 
ATOM     20  O   UNL     1       7.116   4.566  18.370  0.00  0.00    +0.000 OA
ATOM     21  C   UNL     1       6.719   4.694  17.113  0.00  0.00    +0.000 A 
ATOM     22  N   UNL     1       7.524   4.743  16.081  0.00  0.00    +0.000 NA
ATOM     23  C   UNL     1       6.676   4.738  14.987  0.00  0.00    +0.000 A 
ATOM     24  C   UNL     1       5.352   4.675  15.379  0.00  0.00    +0.000 A 
ATOM     25  N   UNL     1       5.410   4.677  16.742  0.00  0.00    +0.000 N 
ATOM     26  C   UNL     1       4.316   4.566  17.670  0.00  0.00    +0.000 C 
BRANCH  23  27
ATOM     27  N   UNL     1       7.193   4.758  13.632  0.00  0.00    +0.000 N 
ATOM     28  O   UNL     1       8.104   5.564  13.403  0.00  0.00    +0.000 OA
ATOM     29  O   UNL     1       6.693   3.977  12.811  0.00  0.00    +0.000 OA
ENDBRANCH  23  27
ENDBRANCH  17  18
ENDBRANCH  16  17
ENDBRANCH   4  16
TORSDOF 6
ENDMDL
MODEL 9
REMARK VINA RESULT:      -8.4      1.046      1.812
REMARK  Name = 
REMARK  7 active torsions:
REMARK  status: ('A' for Active; 'I' for Inactive)
REMARK    1  A    between atoms: C_1  and  C_2
REMARK    2  A    between atoms: C_2  and  C_4
REMARK    3  A    between atoms: C_7  and  C_8
REMARK    4  A    between atoms: C_11  and  C_12
REMARK    5  A    between atoms: C_12  and  O_13
REMARK    6  A    between atoms: O_13  and  C_14
REMARK    7  A    between atoms: C_19  and  N_20
REMARK                            x       y       z     vdW  Elec       q    Type
REMARK                         _______ _______ _______ _____ _____    ______ ____
ROOT
ATOM      1  C   UNL     1       1.047   9.455  20.316  0.00  0.00    +0.000 A 
ATOM      2  C   UNL     1       1.233   8.308  21.109  0.00  0.00    +0.000 A 
ATOM      3  C   UNL     1       1.826   7.151  20.600  0.00  0.00    +0.000 A 
ATOM      4  C   UNL     1       2.236   7.090  19.266  0.00  0.00    +0.000 A 
ATOM      5  C   UNL     1       2.030   8.208  18.451  0.00  0.00    +0.000 A 
ATOM      6  C   UNL     1       1.453   9.372  18.970  0.00  0.00    +0.000 A 
ENDROOT
BRANCH   1  10
ATOM      7  C   UNL     1      -0.601  13.083  21.984  0.00  0.00    +0.000 A 
ATOM      8  C   UNL     1       0.418  13.138  21.033  0.00  0.00    +0.000 A 
ATOM      9  C   UNL     1       0.930  11.960  20.485  0.00  0.00    +0.000 A 
ATOM     10  C   UNL     1       0.470  10.693  20.892  0.00  0.00    +0.000 A 
ATOM     11  C   UNL     1      -0.548  10.662  21.862  0.00  0.00    +0.000 A 
ATOM     12  C   UNL     1      -1.088  11.842  22.398  0.00  0.00    +0.000 A 
BRANCH   7  14
ATOM     13  C   UNL     1      -1.248  14.518  24.014  0.00  0.00    +0.000 C 
ATOM     14  C   UNL     1      -1.126  14.367  22.523  0.00  0.00    +0.000 C 
ATOM     15  O   UNL     1      -1.479  15.253  21.750  0.00  0.00    +0.000 OA
ENDBRANCH   7  14
ENDBRANCH   1  10
BRANCH   4  16
ATOM     16  C   UNL     1       2.884   5.842  18.735  0.00  0.00    +0.000 C 
BRANCH  16  17
ATOM     17  O   UNL     1       3.924   5.473  19.637  0.00  0.00    +0.000 OA
BRANCH  17  18
ATOM     18  C   UNL     1       4.898   4.568  19.093  0.00  0.00    +0.000 C 
ATOM     19  C   UNL     1       6.323   5.132  19.269  0.00  0.00    +0.000 C 
ATOM     20  O   UNL     1       7.283   4.699  18.312  0.00  0.00    +0.000 OA
ATOM     21  C   UNL     1       6.867   4.758  17.056  0.00  0.00    +0.000 A 
ATOM     22  N   UNL     1       7.653   4.903  16.018  0.00  0.00    +0.000 NA
ATOM     23  C   UNL     1       6.808   4.771  14.930  0.00  0.00    +0.000 A 
ATOM     24  C   UNL     1       5.507   4.535  15.330  0.00  0.00    +0.000 A 
ATOM     25  N   UNL     1       5.571   4.561  16.692  0.00  0.00    +0.000 N 
ATOM     26  C   UNL     1       4.505   4.314  17.629  0.00  0.00    +0.000 C 
BRANCH  23  27
ATOM     27  N   UNL     1       7.312   4.844  13.572  0.00  0.00    +0.000 N 
ATOM     28  O   UNL     1       6.764   4.107  12.742  0.00  0.00    +0.000 OA
ATOM     29  O   UNL     1       8.242   5.628  13.341  0.00  0.00    +0.000 OA
ENDBRANCH  23  27
ENDBRANCH  17  18
ENDBRANCH  16  17
ENDBRANCH   4  16
TORSDOF 6
ENDMDL
