MODEL 1
REMARK VINA RESULT:      -8.1      0.000      0.000
REMARK  Name = 
REMARK  4 active torsions:
REMARK  status: ('A' for Active; 'I' for Inactive)
REMARK    1  A    between atoms: C_2  and  C_3
REMARK    2  A    between atoms: N_10  and  C_11
REMARK    3  A    between atoms: C_11  and  C_12
REMARK    4  A    between atoms: C_12  and  C_13
REMARK                            x       y       z     vdW  Elec       q    Type
REMARK                         _______ _______ _______ _____ _____    ______ ____
ROOT
ATOM      1  C   UNL     1       3.398   4.499  17.587  0.00  0.00    +0.000 A 
ATOM      2  C   UNL     1       4.402   3.832  16.897  0.00  0.00    +0.000 A 
ATOM      3  C   UNL     1       5.442   4.759  16.658  0.00  0.00    +0.000 A 
ATOM      4  S   UNL     1       6.990   4.777  15.885  0.00  0.00    +0.000 S 
ATOM      5  C   UNL     1       7.199   6.406  16.371  0.00  0.00    +0.000 A 
ATOM      6  C   UNL     1       6.144   6.919  17.094  0.00  0.00    +0.000 A 
ATOM      7  C   UNL     1       5.110   5.946  17.236  0.00  0.00    +0.000 A 
ATOM      8  N   UNL     1       3.852   5.811  17.808  0.00  0.00    +0.000 N 
ENDROOT
BRANCH   1  10
ATOM      9  O   UNL     1       1.139   3.850  17.409  0.00  0.00    +0.000 OA
ATOM     10  C   UNL     1       2.145   3.942  18.116  0.00  0.00    +0.000 C 
ATOM     11  N   UNL     1       2.082   3.527  19.447  0.00  0.00    +0.000 N 
ATOM     12  C   UNL     1       0.825   3.052  20.002  0.00  0.00    +0.000 C 
ATOM     13  C   UNL     1       1.098   2.812  21.479  0.00  0.00    +0.000 C 
ATOM     14  C   UNL     1       2.580   2.473  21.519  0.00  0.00    +0.000 C 
ATOM     15  C   UNL     1       3.175   3.300  20.384  0.00  0.00    +0.000 C 
ENDBRANCH   1  10
BRANCH   8  16
ATOM     16  C   UNL     1       3.182   6.819  18.617  0.00  0.00    +0.000 C 
BRANCH  16  17
ATOM     17  C   UNL     1       2.675   8.119  17.959  0.00  0.00    +0.000 C 
BRANCH  17  18
ATOM     18  C   UNL     1       1.575   8.880  18.670  0.00  0.00    +0.000 A 
ATOM     19  C   UNL     1       0.681   9.702  17.976  0.00  0.00    +0.000 A 
ATOM     20  C   UNL     1      -0.349  10.365  18.647  0.00  0.00    +0.000 A 
ATOM     21  C   UNL     1      -0.503  10.207  20.022  0.00  0.00    +0.000 A 
ATOM     22  C   UNL     1       0.360   9.375  20.726  0.00  0.00    +0.000 A 
ATOM     23  C   UNL     1       1.390   8.709  20.052  0.00  0.00    +0.000 A 
ENDBRANCH  17  18
ENDBRANCH  16  17
ENDBRANCH   8  16
TORSDOF 4
ENDMDL
MODEL 2
REMARK VINA RESULT:      -8.0      0.062      1.006
REMARK  Name = 
REMARK  4 active torsions:
REMARK  status: ('A' for Active; 'I' for Inactive)
REMARK    1  A    between atoms: C_2  and  C_3
REMARK    2  A    between atoms: N_10  and  C_11
REMARK    3  A    between atoms: C_11  and  C_12
REMARK    4  A    between atoms: C_12  and  C_13
REMARK                            x       y       z     vdW  Elec       q    Type
REMARK                         _______ _______ _______ _____ _____    ______ ____
ROOT
ATOM      1  C   UNL     1       3.399   4.460  17.556  0.00  0.00    +0.000 A 
ATOM      2  C   UNL     1       4.386   3.792  16.842  0.00  0.00    +0.000 A 
ATOM      3  C   UNL     1       5.432   4.712  16.602  0.00  0.00    +0.000 A 
ATOM      4  S   UNL     1       6.969   4.725  15.808  0.00  0.00    +0.000 S 
ATOM      5  C   UNL     1       7.203   6.343  16.316  0.00  0.00    +0.000 A 
ATOM      6  C   UNL     1       6.165   6.856  17.061  0.00  0.00    +0.000 A 
ATOM      7  C   UNL     1       5.122   5.893  17.203  0.00  0.00    +0.000 A 
ATOM      8  N   UNL     1       3.870   5.763  17.790  0.00  0.00    +0.000 N 
ENDROOT
BRANCH   1  10
ATOM      9  O   UNL     1       1.140   3.807  17.390  0.00  0.00    +0.000 OA
ATOM     10  C   UNL     1       2.147   3.907  18.094  0.00  0.00    +0.000 C 
ATOM     11  N   UNL     1       2.087   3.508  19.430  0.00  0.00    +0.000 N 
ATOM     12  C   UNL     1       0.831   3.039  19.993  0.00  0.00    +0.000 C 
ATOM     13  C   UNL     1       1.108   2.816  21.473  0.00  0.00    +0.000 C 
ATOM     14  C   UNL     1       2.590   2.479  21.513  0.00  0.00    +0.000 C 
ATOM     15  C   UNL     1       3.182   3.293  20.367  0.00  0.00    +0.000 C 
ENDBRANCH   1  10
BRANCH   8  16
ATOM     16  C   UNL     1       3.223   6.766  18.625  0.00  0.00    +0.000 C 
BRANCH  16  17
ATOM     17  C   UNL     1       2.722   8.081  17.994  0.00  0.00    +0.000 C 
BRANCH  17  18
ATOM     18  C   UNL     1       1.582   8.800  18.687  0.00  0.00    +0.000 A 
ATOM     19  C   UNL     1       1.384   8.704  20.068  0.00  0.00    +0.000 A 
ATOM     20  C   UNL     1       0.349   9.405  20.692  0.00  0.00    +0.000 A 
ATOM     21  C   UNL     1      -0.497  10.217  19.941  0.00  0.00    +0.000 A 
ATOM     22  C   UNL     1      -0.301  10.344  18.570  0.00  0.00    +0.000 A 
ATOM     23  C   UNL     1       0.738   9.644  17.947  0.00  0.00    +0.000 A 
ENDBRANCH  17  18
ENDBRANCH  16  17
ENDBRANCH   8  16
TORSDOF 4
ENDMDL
MODEL 3
REMARK VINA RESULT:      -7.9      2.491      4.877
REMARK  Name = 
REMARK  4 active torsions:
REMARK  status: ('A' for Active; 'I' for Inactive)
REMARK    1  A    between atoms: C_2  and  C_3
REMARK    2  A    between atoms: N_10  and  C_11
REMARK    3  A    between atoms: C_11  and  C_12
REMARK    4  A    between atoms: C_12  and  C_13
REMARK                            x       y       z     vdW  Elec       q    Type
REMARK                         _______ _______ _______ _____ _____    ______ ____
ROOT
ATOM      1  C   UNL     1       4.984   4.176  18.860  0.00  0.00    +0.000 A 
ATOM      2  C   UNL     1       4.466   2.949  19.254  0.00  0.00    +0.000 A 
ATOM      3  C   UNL     1       3.227   3.196  19.890  0.00  0.00    +0.000 A 
ATOM      4  S   UNL     1       1.978   2.280  20.660  0.00  0.00    +0.000 S 
ATOM      5  C   UNL     1       1.081   3.721  20.889  0.00  0.00    +0.000 A 
ATOM      6  C   UNL     1       1.697   4.852  20.400  0.00  0.00    +0.000 A 
ATOM      7  C   UNL     1       2.967   4.530  19.834  0.00  0.00    +0.000 A 
ATOM      8  N   UNL     1       4.039   5.154  19.211  0.00  0.00    +0.000 N 
ENDROOT
BRANCH   1  10
ATOM      9  O   UNL     1       7.298   4.590  18.677  0.00  0.00    +0.000 OA
ATOM     10  C   UNL     1       6.219   4.430  18.103  0.00  0.00    +0.000 C 
ATOM     11  N   UNL     1       6.169   4.514  16.710  0.00  0.00    +0.000 N 
ATOM     12  C   UNL     1       7.368   4.848  15.959  0.00  0.00    +0.000 C 
ATOM     13  C   UNL     1       6.919   4.972  14.511  0.00  0.00    +0.000 C 
ATOM     14  C   UNL     1       5.725   4.034  14.425  0.00  0.00    +0.000 C 
ATOM     15  C   UNL     1       5.094   4.117  15.811  0.00  0.00    +0.000 C 
ENDBRANCH   1  10
BRANCH   8  16
ATOM     16  C   UNL     1       4.103   6.566  18.859  0.00  0.00    +0.000 C 
BRANCH  16  17
ATOM     17  C   UNL     1       3.011   7.183  17.961  0.00  0.00    +0.000 C 
BRANCH  17  18
ATOM     18  C   UNL     1       2.059   8.173  18.598  0.00  0.00    +0.000 A 
ATOM     19  C   UNL     1       1.793   8.161  19.971  0.00  0.00    +0.000 A 
ATOM     20  C   UNL     1       0.940   9.108  20.543  0.00  0.00    +0.000 A 
ATOM     21  C   UNL     1       0.346  10.084  19.748  0.00  0.00    +0.000 A 
ATOM     22  C   UNL     1       0.616  10.128  18.385  0.00  0.00    +0.000 A 
ATOM     23  C   UNL     1       1.474   9.182  17.813  0.00  0.00    +0.000 A 
ENDBRANCH  17  18
ENDBRANCH  16  17
ENDBRANCH   8  16
TORSDOF 4
ENDMDL
MODEL 4
REMARK VINA RESULT:      -7.8      2.443      4.795
REMARK  Name = 
REMARK  4 active torsions:
REMARK  status: ('A' for Active; 'I' for Inactive)
REMARK    1  A    between atoms: C_2  and  C_3
REMARK    2  A    between atoms: N_10  and  C_11
REMARK    3  A    between atoms: C_11  and  C_12
REMARK    4  A    between atoms: C_12  and  C_13
REMARK                            x       y       z     vdW  Elec       q    Type
REMARK                         _______ _______ _______ _____ _____    ______ ____
ROOT
ATOM      1  C   UNL     1       4.728   3.986  18.438  0.00  0.00    +0.000 A 
ATOM      2  C   UNL     1       4.111   2.745  18.525  0.00  0.00    +0.000 A 
ATOM      3  C   UNL     1       2.858   2.936  19.151  0.00  0.00    +0.000 A 
ATOM      4  S   UNL     1       1.512   1.969  19.645  0.00  0.00    +0.000 S 
ATOM      5  C   UNL     1       0.698   3.386  20.156  0.00  0.00    +0.000 A 
ATOM      6  C   UNL     1       1.410   4.548  19.958  0.00  0.00    +0.000 A 
ATOM      7  C   UNL     1       2.687   4.266  19.386  0.00  0.00    +0.000 A 
ATOM      8  N   UNL     1       3.830   4.931  18.962  0.00  0.00    +0.000 N 
ENDROOT
BRANCH   1  10
ATOM      9  O   UNL     1       7.036   4.463  18.482  0.00  0.00    +0.000 OA
ATOM     10  C   UNL     1       6.016   4.309  17.807  0.00  0.00    +0.000 C 
ATOM     11  N   UNL     1       6.086   4.465  16.421  0.00  0.00    +0.000 N 
ATOM     12  C   UNL     1       7.336   4.866  15.797  0.00  0.00    +0.000 C 
ATOM     13  C   UNL     1       7.012   5.056  14.323  0.00  0.00    +0.000 C 
ATOM     14  C   UNL     1       5.856   4.096  14.085  0.00  0.00    +0.000 C 
ATOM     15  C   UNL     1       5.105   4.091  15.411  0.00  0.00    +0.000 C 
ENDBRANCH   1  10
BRANCH   8  16
ATOM     16  C   UNL     1       4.003   6.376  18.939  0.00  0.00    +0.000 C 
BRANCH  16  17
ATOM     17  C   UNL     1       3.162   7.234  17.970  0.00  0.00    +0.000 C 
BRANCH  17  18
ATOM     18  C   UNL     1       2.168   8.202  18.577  0.00  0.00    +0.000 A 
ATOM     19  C   UNL     1       1.495   9.151  17.800  0.00  0.00    +0.000 A 
ATOM     20  C   UNL     1       0.555  10.009  18.374  0.00  0.00    +0.000 A 
ATOM     21  C   UNL     1       0.269   9.923  19.734  0.00  0.00    +0.000 A 
ATOM     22  C   UNL     1       0.909   8.971  20.518  0.00  0.00    +0.000 A 
ATOM     23  C   UNL     1       1.848   8.109  19.941  0.00  0.00    +0.000 A 
ENDBRANCH  17  18
ENDBRANCH  16  17
ENDBRANCH   8  16
TORSDOF 4
ENDMDL
MODEL 5
REMARK VINA RESULT:      -7.5      2.864      6.383
REMARK  Name = 
REMARK  4 active torsions:
REMARK  status: ('A' for Active; 'I' for Inactive)
REMARK    1  A    between atoms: C_2  and  C_3
REMARK    2  A    between atoms: N_10  and  C_11
REMARK    3  A    between atoms: C_11  and  C_12
REMARK    4  A    between atoms: C_12  and  C_13
REMARK                            x       y       z     vdW  Elec       q    Type
REMARK                         _______ _______ _______ _____ _____    ______ ____
ROOT
ATOM      1  C   UNL     1       5.421   5.722  16.306  0.00  0.00    +0.000 A 
ATOM      2  C   UNL     1       4.918   7.015  16.228  0.00  0.00    +0.000 A 
ATOM      3  C   UNL     1       3.929   7.147  17.229  0.00  0.00    +0.000 A 
ATOM      4  S   UNL     1       2.837   8.363  17.799  0.00  0.00    +0.000 S 
ATOM      5  C   UNL     1       2.309   7.294  19.028  0.00  0.00    +0.000 A 
ATOM      6  C   UNL     1       2.935   6.067  19.016  0.00  0.00    +0.000 A 
ATOM      7  C   UNL     1       3.869   5.987  17.939  0.00  0.00    +0.000 A 
ATOM      8  N   UNL     1       4.773   5.093  17.383  0.00  0.00    +0.000 N 
ENDROOT
BRANCH   1  10
ATOM      9  O   UNL     1       7.670   5.121  15.940  0.00  0.00    +0.000 OA
ATOM     10  C   UNL     1       6.512   5.131  15.518  0.00  0.00    +0.000 C 
ATOM     11  N   UNL     1       6.239   4.591  14.260  0.00  0.00    +0.000 N 
ATOM     12  C   UNL     1       7.325   4.080  13.438  0.00  0.00    +0.000 C 
ATOM     13  C   UNL     1       6.684   3.695  12.113  0.00  0.00    +0.000 C 
ATOM     14  C   UNL     1       5.257   3.336  12.497  0.00  0.00    +0.000 C 
ATOM     15  C   UNL     1       4.949   4.261  13.669  0.00  0.00    +0.000 C 
ENDBRANCH   1  10
BRANCH   8  16
ATOM     16  C   UNL     1       5.093   3.777  17.918  0.00  0.00    +0.000 C 
BRANCH  16  17
ATOM     17  C   UNL     1       4.013   2.675  17.940  0.00  0.00    +0.000 C 
BRANCH  17  18
ATOM     18  C   UNL     1       3.028   2.683  19.091  0.00  0.00    +0.000 A 
ATOM     19  C   UNL     1       3.453   2.675  20.423  0.00  0.00    +0.000 A 
ATOM     20  C   UNL     1       2.528   2.720  21.469  0.00  0.00    +0.000 A 
ATOM     21  C   UNL     1       1.164   2.782  21.194  0.00  0.00    +0.000 A 
ATOM     22  C   UNL     1       0.723   2.816  19.876  0.00  0.00    +0.000 A 
ATOM     23  C   UNL     1       1.651   2.774  18.829  0.00  0.00    +0.000 A 
ENDBRANCH  17  18
ENDBRANCH  16  17
ENDBRANCH   8  16
TORSDOF 4
ENDMDL
MODEL 6
REMARK VINA RESULT:      -7.4      2.804      6.287
REMARK  Name = 
REMARK  4 active torsions:
REMARK  status: ('A' for Active; 'I' for Inactive)
REMARK    1  A    between atoms: C_2  and  C_3
REMARK    2  A    between atoms: N_10  and  C_11
REMARK    3  A    between atoms: C_11  and  C_12
REMARK    4  A    between atoms: C_12  and  C_13
REMARK                            x       y       z     vdW  Elec       q    Type
REMARK                         _______ _______ _______ _____ _____    ______ ____
ROOT
ATOM      1  C   UNL     1       5.371   6.041  16.431  0.00  0.00    +0.000 A 
ATOM      2  C   UNL     1       4.764   7.287  16.342  0.00  0.00    +0.000 A 
ATOM      3  C   UNL     1       3.773   7.351  17.349  0.00  0.00    +0.000 A 
ATOM      4  S   UNL     1       2.590   8.480  17.912  0.00  0.00    +0.000 S 
ATOM      5  C   UNL     1       2.158   7.386  19.157  0.00  0.00    +0.000 A 
ATOM      6  C   UNL     1       2.881   6.214  19.153  0.00  0.00    +0.000 A 
ATOM      7  C   UNL     1       3.812   6.198  18.072  0.00  0.00    +0.000 A 
ATOM      8  N   UNL     1       4.783   5.374  17.519  0.00  0.00    +0.000 N 
ENDROOT
BRANCH   1  10
ATOM      9  O   UNL     1       7.665   5.698  16.014  0.00  0.00    +0.000 OA
ATOM     10  C   UNL     1       6.502   5.531  15.642  0.00  0.00    +0.000 C 
ATOM     11  N   UNL     1       6.259   4.866  14.439  0.00  0.00    +0.000 N 
ATOM     12  C   UNL     1       7.372   4.432  13.611  0.00  0.00    +0.000 C 
ATOM     13  C   UNL     1       6.742   3.869  12.346  0.00  0.00    +0.000 C 
ATOM     14  C   UNL     1       5.386   3.365  12.815  0.00  0.00    +0.000 C 
ATOM     15  C   UNL     1       5.002   4.333  13.929  0.00  0.00    +0.000 C 
ENDBRANCH   1  10
BRANCH   8  16
ATOM     16  C   UNL     1       5.211   4.094  18.066  0.00  0.00    +0.000 C 
BRANCH  16  17
ATOM     17  C   UNL     1       4.241   2.894  18.060  0.00  0.00    +0.000 C 
BRANCH  17  18
ATOM     18  C   UNL     1       3.147   2.875  19.108  0.00  0.00    +0.000 A 
ATOM     19  C   UNL     1       1.793   2.865  18.758  0.00  0.00    +0.000 A 
ATOM     20  C   UNL     1       0.801   2.810  19.739  0.00  0.00    +0.000 A 
ATOM     21  C   UNL     1       1.152   2.756  21.085  0.00  0.00    +0.000 A 
ATOM     22  C   UNL     1       2.492   2.740  21.453  0.00  0.00    +0.000 A 
ATOM     23  C   UNL     1       3.486   2.792  20.468  0.00  0.00    +0.000 A 
ENDBRANCH  17  18
ENDBRANCH  16  17
ENDBRANCH   8  16
TORSDOF 4
ENDMDL
MODEL 7
REMARK VINA RESULT:      -7.4      2.681      6.213
REMARK  Name = 
REMARK  4 active torsions:
REMARK  status: ('A' for Active; 'I' for Inactive)
REMARK    1  A    between atoms: C_2  and  C_3
REMARK    2  A    between atoms: N_10  and  C_11
REMARK    3  A    between atoms: C_11  and  C_12
REMARK    4  A    between atoms: C_12  and  C_13
REMARK                            x       y       z     vdW  Elec       q    Type
REMARK                         _______ _______ _______ _____ _____    ______ ____
ROOT
ATOM      1  C   UNL     1       5.216   6.229  17.048  0.00  0.00    +0.000 A 
ATOM      2  C   UNL     1       4.436   7.337  16.747  0.00  0.00    +0.000 A 
ATOM      3  C   UNL     1       3.445   7.445  17.749  0.00  0.00    +0.000 A 
ATOM      4  S   UNL     1       2.111   8.480  18.125  0.00  0.00    +0.000 S 
ATOM      5  C   UNL     1       1.840   7.586  19.561  0.00  0.00    +0.000 A 
ATOM      6  C   UNL     1       2.725   6.549  19.755  0.00  0.00    +0.000 A 
ATOM      7  C   UNL     1       3.649   6.465  18.671  0.00  0.00    +0.000 A 
ATOM      8  N   UNL     1       4.730   5.699  18.256  0.00  0.00    +0.000 N 
ENDROOT
BRANCH   1  10
ATOM      9  O   UNL     1       7.539   5.914  16.803  0.00  0.00    +0.000 OA
ATOM     10  C   UNL     1       6.410   5.747  16.337  0.00  0.00    +0.000 C 
ATOM     11  N   UNL     1       6.268   5.109  15.104  0.00  0.00    +0.000 N 
ATOM     12  C   UNL     1       7.447   4.704  14.355  0.00  0.00    +0.000 C 
ATOM     13  C   UNL     1       6.922   4.167  13.032  0.00  0.00    +0.000 C 
ATOM     14  C   UNL     1       5.538   3.642  13.382  0.00  0.00    +0.000 C 
ATOM     15  C   UNL     1       5.060   4.579  14.486  0.00  0.00    +0.000 C 
ENDBRANCH   1  10
BRANCH   8  16
ATOM     16  C   UNL     1       5.339   4.618  19.018  0.00  0.00    +0.000 C 
BRANCH  16  17
ATOM     17  C   UNL     1       4.741   3.197  18.945  0.00  0.00    +0.000 C 
BRANCH  17  18
ATOM     18  C   UNL     1       3.285   3.031  19.327  0.00  0.00    +0.000 A 
ATOM     19  C   UNL     1       2.871   3.019  20.663  0.00  0.00    +0.000 A 
ATOM     20  C   UNL     1       1.518   2.901  20.992  0.00  0.00    +0.000 A 
ATOM     21  C   UNL     1       0.561   2.801  19.986  0.00  0.00    +0.000 A 
ATOM     22  C   UNL     1       0.950   2.836  18.651  0.00  0.00    +0.000 A 
ATOM     23  C   UNL     1       2.305   2.957  18.323  0.00  0.00    +0.000 A 
ENDBRANCH  17  18
ENDBRANCH  16  17
ENDBRANCH   8  16
TORSDOF 4
ENDMDL
MODEL 8
REMARK VINA RESULT:      -7.3      2.229      5.001
REMARK  Name = 
REMARK  4 active torsions:
REMARK  status: ('A' for Active; 'I' for Inactive)
REMARK    1  A    between atoms: C_2  and  C_3
REMARK    2  A    between atoms: N_10  and  C_11
REMARK    3  A    between atoms: C_11  and  C_12
REMARK    4  A    between atoms: C_12  and  C_13
REMARK                            x       y       z     vdW  Elec       q    Type
REMARK                         _______ _______ _______ _____ _____    ______ ____
ROOT
ATOM      1  C   UNL     1       5.680   4.913  17.098  0.00  0.00    +0.000 A 
ATOM      2  C   UNL     1       6.720   5.508  16.395  0.00  0.00    +0.000 A 
ATOM      3  C   UNL     1       6.726   4.951  15.095  0.00  0.00    +0.000 A 
ATOM      4  S   UNL     1       7.651   5.102  13.641  0.00  0.00    +0.000 S 
ATOM      5  C   UNL     1       6.598   3.993  12.871  0.00  0.00    +0.000 A 
ATOM      6  C   UNL     1       5.582   3.528  13.676  0.00  0.00    +0.000 A 
ATOM      7  C   UNL     1       5.683   4.084  14.987  0.00  0.00    +0.000 A 
ATOM      8  N   UNL     1       5.030   4.039  16.211  0.00  0.00    +0.000 N 
ENDROOT
BRANCH   1  10
ATOM      9  O   UNL     1       5.864   4.805  19.446  0.00  0.00    +0.000 OA
ATOM     10  C   UNL     1       5.234   5.211  18.467  0.00  0.00    +0.000 C 
ATOM     11  N   UNL     1       4.065   5.947  18.666  0.00  0.00    +0.000 N 
ATOM     12  C   UNL     1       3.570   6.175  20.014  0.00  0.00    +0.000 C 
ATOM     13  C   UNL     1       2.238   6.890  19.843  0.00  0.00    +0.000 C 
ATOM     14  C   UNL     1       2.401   7.639  18.529  0.00  0.00    +0.000 C 
ATOM     15  C   UNL     1       3.307   6.734  17.702  0.00  0.00    +0.000 C 
ENDBRANCH   1  10
BRANCH   8  16
ATOM     16  C   UNL     1       3.797   3.313  16.482  0.00  0.00    +0.000 C 
BRANCH  16  17
ATOM     17  C   UNL     1       3.751   2.277  17.624  0.00  0.00    +0.000 C 
BRANCH  17  18
ATOM     18  C   UNL     1       2.889   2.601  18.827  0.00  0.00    +0.000 A 
ATOM     19  C   UNL     1       3.357   2.433  20.134  0.00  0.00    +0.000 A 
ATOM     20  C   UNL     1       2.559   2.773  21.229  0.00  0.00    +0.000 A 
ATOM     21  C   UNL     1       1.283   3.293  21.029  0.00  0.00    +0.000 A 
ATOM     22  C   UNL     1       0.809   3.490  19.737  0.00  0.00    +0.000 A 
ATOM     23  C   UNL     1       1.611   3.152  18.641  0.00  0.00    +0.000 A 
ENDBRANCH  17  18
ENDBRANCH  16  17
ENDBRANCH   8  16
TORSDOF 4
ENDMDL
MODEL 9
REMARK VINA RESULT:      -7.2      2.188      4.890
REMARK  Name = 
REMARK  4 active torsions:
REMARK  status: ('A' for Active; 'I' for Inactive)
REMARK    1  A    between atoms: C_2  and  C_3
REMARK    2  A    between atoms: N_10  and  C_11
REMARK    3  A    between atoms: C_11  and  C_12
REMARK    4  A    between atoms: C_12  and  C_13
REMARK                            x       y       z     vdW  Elec       q    Type
REMARK                         _______ _______ _______ _____ _____    ______ ____
ROOT
ATOM      1  C   UNL     1       5.630   4.951  17.227  0.00  0.00    +0.000 A 
ATOM      2  C   UNL     1       6.677   5.546  16.535  0.00  0.00    +0.000 A 
ATOM      3  C   UNL     1       6.702   4.986  15.237  0.00  0.00    +0.000 A 
ATOM      4  S   UNL     1       7.645   5.136  13.795  0.00  0.00    +0.000 S 
ATOM      5  C   UNL     1       6.604   4.022  13.014  0.00  0.00    +0.000 A 
ATOM      6  C   UNL     1       5.579   3.557  13.807  0.00  0.00    +0.000 A 
ATOM      7  C   UNL     1       5.662   4.116  15.118  0.00  0.00    +0.000 A 
ATOM      8  N   UNL     1       4.993   4.073  16.334  0.00  0.00    +0.000 N 
ENDROOT
BRANCH   1  10
ATOM      9  O   UNL     1       5.793   4.865  19.577  0.00  0.00    +0.000 OA
ATOM     10  C   UNL     1       5.165   5.251  18.589  0.00  0.00    +0.000 C 
ATOM     11  N   UNL     1       3.981   5.968  18.771  0.00  0.00    +0.000 N 
ATOM     12  C   UNL     1       3.470   6.197  20.113  0.00  0.00    +0.000 C 
ATOM     13  C   UNL     1       2.127   6.887  19.923  0.00  0.00    +0.000 C 
ATOM     14  C   UNL     1       2.288   7.628  18.605  0.00  0.00    +0.000 C 
ATOM     15  C   UNL     1       3.219   6.734  17.794  0.00  0.00    +0.000 C 
ENDBRANCH   1  10
BRANCH   8  16
ATOM     16  C   UNL     1       3.758   3.345  16.590  0.00  0.00    +0.000 C 
BRANCH  16  17
ATOM     17  C   UNL     1       3.699   2.313  17.736  0.00  0.00    +0.000 C 
BRANCH  17  18
ATOM     18  C   UNL     1       2.853   2.657  18.944  0.00  0.00    +0.000 A 
ATOM     19  C   UNL     1       1.542   3.127  18.815  0.00  0.00    +0.000 A 
ATOM     20  C   UNL     1       0.767   3.404  19.943  0.00  0.00    +0.000 A 
ATOM     21  C   UNL     1       1.292   3.206  21.217  0.00  0.00    +0.000 A 
ATOM     22  C   UNL     1       2.585   2.716  21.367  0.00  0.00    +0.000 A 
ATOM     23  C   UNL     1       3.359   2.437  20.235  0.00  0.00    +0.000 A 
ENDBRANCH  17  18
ENDBRANCH  16  17
ENDBRANCH   8  16
TORSDOF 4
ENDMDL
