MODEL 1
REMARK VINA RESULT:      -7.4      0.000      0.000
REMARK  Name = 
REMARK  3 active torsions:
REMARK  status: ('A' for Active; 'I' for Inactive)
REMARK    1  A    between atoms: C_1  and  C_2
REMARK    2  A    between atoms: C_5  and  C_6
REMARK    3  A    between atoms: C_12  and  C_13
REMARK                            x       y       z     vdW  Elec       q    Type
REMARK                         _______ _______ _______ _____ _____    ______ ____
ROOT
ATOM      1  C   UNL     1       1.169   8.882  20.281  0.00  0.00    +0.000 A 
ATOM      2  C   UNL     1       1.437   9.148  18.983  0.00  0.00    +0.000 A 
ATOM      3  C   UNL     1       2.297   8.220  18.260  0.00  0.00    +0.000 A 
ATOM      4  O   UNL     1       2.902   8.537  17.248  0.00  0.00    +0.000 OA
ATOM      5  C   UNL     1       2.308   6.874  18.811  0.00  0.00    +0.000 A 
ATOM      6  C   UNL     1       2.317   5.787  17.952  0.00  0.00    +0.000 A 
ATOM      7  C   UNL     1       2.133   4.518  18.485  0.00  0.00    +0.000 A 
ATOM      8  C   UNL     1       1.765   3.394  17.564  0.00  0.00    +0.000 C 
ATOM      9  C   UNL     1       2.208   4.344  19.877  0.00  0.00    +0.000 A 
ATOM     10  C   UNL     1       2.202   5.454  20.732  0.00  0.00    +0.000 A 
ATOM     11  C   UNL     1       2.116   6.726  20.181  0.00  0.00    +0.000 A 
ATOM     12  O   UNL     1       1.710   7.788  20.965  0.00  0.00    +0.000 OA
ENDROOT
BRANCH   1  17
ATOM     13  C   UNL     1      -2.514  12.195  23.274  0.00  0.00    +0.000 C 
ATOM     14  C   UNL     1      -1.490  11.422  22.497  0.00  0.00    +0.000 A 
ATOM     15  C   UNL     1      -1.182  11.727  21.165  0.00  0.00    +0.000 A 
ATOM     16  C   UNL     1      -0.307  10.912  20.431  0.00  0.00    +0.000 A 
ATOM     17  C   UNL     1       0.266   9.778  21.020  0.00  0.00    +0.000 A 
ATOM     18  C   UNL     1      -0.024   9.511  22.369  0.00  0.00    +0.000 A 
ATOM     19  C   UNL     1      -0.881  10.325  23.101  0.00  0.00    +0.000 A 
ENDBRANCH   1  17
TORSDOF 1
ENDMDL
MODEL 2
REMARK VINA RESULT:      -7.4      4.420      7.777
REMARK  Name = 
REMARK  3 active torsions:
REMARK  status: ('A' for Active; 'I' for Inactive)
REMARK    1  A    between atoms: C_1  and  C_2
REMARK    2  A    between atoms: C_5  and  C_6
REMARK    3  A    between atoms: C_12  and  C_13
REMARK                            x       y       z     vdW  Elec       q    Type
REMARK                         _______ _______ _______ _____ _____    ______ ____
ROOT
ATOM      1  C   UNL     1       3.784   5.130  17.256  0.00  0.00    +0.000 A 
ATOM      2  C   UNL     1       3.838   6.070  18.227  0.00  0.00    +0.000 A 
ATOM      3  C   UNL     1       2.772   6.086  19.221  0.00  0.00    +0.000 A 
ATOM      4  O   UNL     1       2.507   7.076  19.884  0.00  0.00    +0.000 OA
ATOM      5  C   UNL     1       2.110   4.803  19.396  0.00  0.00    +0.000 A 
ATOM      6  C   UNL     1       1.754   4.390  20.670  0.00  0.00    +0.000 A 
ATOM      7  C   UNL     1       1.302   3.087  20.844  0.00  0.00    +0.000 A 
ATOM      8  C   UNL     1       1.276   2.510  22.226  0.00  0.00    +0.000 C 
ATOM      9  C   UNL     1       0.968   2.324  19.713  0.00  0.00    +0.000 A 
ATOM     10  C   UNL     1       1.331   2.758  18.431  0.00  0.00    +0.000 A 
ATOM     11  C   UNL     1       2.029   3.952  18.299  0.00  0.00    +0.000 A 
ATOM     12  O   UNL     1       2.738   4.208  17.142  0.00  0.00    +0.000 OA
ENDROOT
BRANCH   1  17
ATOM     13  C   UNL     1       8.057   5.125  13.353  0.00  0.00    +0.000 C 
ATOM     14  C   UNL     1       6.982   5.025  14.393  0.00  0.00    +0.000 A 
ATOM     15  C   UNL     1       5.893   4.156  14.256  0.00  0.00    +0.000 A 
ATOM     16  C   UNL     1       4.845   4.171  15.189  0.00  0.00    +0.000 A 
ATOM     17  C   UNL     1       4.872   5.063  16.269  0.00  0.00    +0.000 A 
ATOM     18  C   UNL     1       5.992   5.899  16.411  0.00  0.00    +0.000 A 
ATOM     19  C   UNL     1       7.037   5.876  15.495  0.00  0.00    +0.000 A 
ENDBRANCH   1  17
TORSDOF 1
ENDMDL
MODEL 3
REMARK VINA RESULT:      -7.3      0.113      1.110
REMARK  Name = 
REMARK  3 active torsions:
REMARK  status: ('A' for Active; 'I' for Inactive)
REMARK    1  A    between atoms: C_1  and  C_2
REMARK    2  A    between atoms: C_5  and  C_6
REMARK    3  A    between atoms: C_12  and  C_13
REMARK                            x       y       z     vdW  Elec       q    Type
REMARK                         _______ _______ _______ _____ _____    ______ ____
ROOT
ATOM      1  C   UNL     1       1.120   8.873  20.343  0.00  0.00    +0.000 A 
ATOM      2  C   UNL     1       1.363   9.154  19.043  0.00  0.00    +0.000 A 
ATOM      3  C   UNL     1       2.227   8.246  18.299  0.00  0.00    +0.000 A 
ATOM      4  O   UNL     1       2.810   8.581  17.280  0.00  0.00    +0.000 OA
ATOM      5  C   UNL     1       2.270   6.897  18.839  0.00  0.00    +0.000 A 
ATOM      6  C   UNL     1       2.284   5.816  17.971  0.00  0.00    +0.000 A 
ATOM      7  C   UNL     1       2.130   4.540  18.497  0.00  0.00    +0.000 A 
ATOM      8  C   UNL     1       1.767   3.417  17.573  0.00  0.00    +0.000 C 
ATOM      9  C   UNL     1       2.231   4.356  19.886  0.00  0.00    +0.000 A 
ATOM     10  C   UNL     1       2.219   5.460  20.750  0.00  0.00    +0.000 A 
ATOM     11  C   UNL     1       2.102   6.734  20.211  0.00  0.00    +0.000 A 
ATOM     12  O   UNL     1       1.691   7.783  21.009  0.00  0.00    +0.000 OA
ENDROOT
BRANCH   1  17
ATOM     13  C   UNL     1      -2.313  12.516  23.247  0.00  0.00    +0.000 C 
ATOM     14  C   UNL     1      -1.502  11.496  22.506  0.00  0.00    +0.000 A 
ATOM     15  C   UNL     1      -0.953  10.377  23.143  0.00  0.00    +0.000 A 
ATOM     16  C   UNL     1      -0.103   9.505  22.447  0.00  0.00    +0.000 A 
ATOM     17  C   UNL     1       0.214   9.746  21.104  0.00  0.00    +0.000 A 
ATOM     18  C   UNL     1      -0.379  10.852  20.471  0.00  0.00    +0.000 A 
ATOM     19  C   UNL     1      -1.232  11.709  21.156  0.00  0.00    +0.000 A 
ENDBRANCH   1  17
TORSDOF 1
ENDMDL
MODEL 4
REMARK VINA RESULT:      -7.3      1.427      1.818
REMARK  Name = 
REMARK  3 active torsions:
REMARK  status: ('A' for Active; 'I' for Inactive)
REMARK    1  A    between atoms: C_1  and  C_2
REMARK    2  A    between atoms: C_5  and  C_6
REMARK    3  A    between atoms: C_12  and  C_13
REMARK                            x       y       z     vdW  Elec       q    Type
REMARK                         _______ _______ _______ _____ _____    ______ ____
ROOT
ATOM      1  C   UNL     1       1.861   8.244  19.179  0.00  0.00    +0.000 A 
ATOM      2  C   UNL     1       2.551   8.187  18.018  0.00  0.00    +0.000 A 
ATOM      3  C   UNL     1       3.427   7.043  17.800  0.00  0.00    +0.000 A 
ATOM      4  O   UNL     1       4.354   7.066  17.006  0.00  0.00    +0.000 OA
ATOM      5  C   UNL     1       3.050   5.859  18.556  0.00  0.00    +0.000 A 
ATOM      6  C   UNL     1       3.142   4.612  17.959  0.00  0.00    +0.000 A 
ATOM      7  C   UNL     1       2.600   3.517  18.620  0.00  0.00    +0.000 A 
ATOM      8  C   UNL     1       2.351   2.257  17.847  0.00  0.00    +0.000 C 
ATOM      9  C   UNL     1       2.219   3.651  19.965  0.00  0.00    +0.000 A 
ATOM     10  C   UNL     1       2.134   4.920  20.556  0.00  0.00    +0.000 A 
ATOM     11  C   UNL     1       2.429   6.039  19.788  0.00  0.00    +0.000 A 
ATOM     12  O   UNL     1       1.983   7.283  20.188  0.00  0.00    +0.000 OA
ENDROOT
BRANCH   1  17
ATOM     13  C   UNL     1      -1.907  12.506  20.241  0.00  0.00    +0.000 C 
ATOM     14  C   UNL     1      -0.864  11.478  19.921  0.00  0.00    +0.000 A 
ATOM     15  C   UNL     1      -0.573  11.098  18.605  0.00  0.00    +0.000 A 
ATOM     16  C   UNL     1       0.323  10.050  18.346  0.00  0.00    +0.000 A 
ATOM     17  C   UNL     1       0.935   9.364  19.403  0.00  0.00    +0.000 A 
ATOM     18  C   UNL     1       0.661   9.786  20.715  0.00  0.00    +0.000 A 
ATOM     19  C   UNL     1      -0.217  10.833  20.973  0.00  0.00    +0.000 A 
ENDBRANCH   1  17
TORSDOF 1
ENDMDL
MODEL 5
REMARK VINA RESULT:      -7.3      1.429      2.095
REMARK  Name = 
REMARK  3 active torsions:
REMARK  status: ('A' for Active; 'I' for Inactive)
REMARK    1  A    between atoms: C_1  and  C_2
REMARK    2  A    between atoms: C_5  and  C_6
REMARK    3  A    between atoms: C_12  and  C_13
REMARK                            x       y       z     vdW  Elec       q    Type
REMARK                         _______ _______ _______ _____ _____    ______ ____
ROOT
ATOM      1  C   UNL     1       1.818   8.253  19.219  0.00  0.00    +0.000 A 
ATOM      2  C   UNL     1       2.492   8.212  18.048  0.00  0.00    +0.000 A 
ATOM      3  C   UNL     1       3.376   7.079  17.810  0.00  0.00    +0.000 A 
ATOM      4  O   UNL     1       4.292   7.117  17.004  0.00  0.00    +0.000 OA
ATOM      5  C   UNL     1       3.023   5.886  18.563  0.00  0.00    +0.000 A 
ATOM      6  C   UNL     1       3.121   4.644  17.956  0.00  0.00    +0.000 A 
ATOM      7  C   UNL     1       2.601   3.538  18.618  0.00  0.00    +0.000 A 
ATOM      8  C   UNL     1       2.355   2.281  17.840  0.00  0.00    +0.000 C 
ATOM      9  C   UNL     1       2.237   3.659  19.969  0.00  0.00    +0.000 A 
ATOM     10  C   UNL     1       2.147   4.923  20.569  0.00  0.00    +0.000 A 
ATOM     11  C   UNL     1       2.418   6.050  19.805  0.00  0.00    +0.000 A 
ATOM     12  O   UNL     1       1.964   7.286  20.220  0.00  0.00    +0.000 OA
ENDROOT
BRANCH   1  17
ATOM     13  C   UNL     1      -1.724  12.759  20.020  0.00  0.00    +0.000 C 
ATOM     14  C   UNL     1      -0.886  11.528  19.853  0.00  0.00    +0.000 A 
ATOM     15  C   UNL     1      -0.378  10.820  20.949  0.00  0.00    +0.000 A 
ATOM     16  C   UNL     1       0.499   9.741  20.757  0.00  0.00    +0.000 A 
ATOM     17  C   UNL     1       0.883   9.361  19.465  0.00  0.00    +0.000 A 
ATOM     18  C   UNL     1       0.331  10.058  18.377  0.00  0.00    +0.000 A 
ATOM     19  C   UNL     1      -0.548  11.119  18.564  0.00  0.00    +0.000 A 
ENDBRANCH   1  17
TORSDOF 1
ENDMDL
MODEL 6
REMARK VINA RESULT:      -7.3      2.434      3.501
REMARK  Name = 
REMARK  3 active torsions:
REMARK  status: ('A' for Active; 'I' for Inactive)
REMARK    1  A    between atoms: C_1  and  C_2
REMARK    2  A    between atoms: C_5  and  C_6
REMARK    3  A    between atoms: C_12  and  C_13
REMARK                            x       y       z     vdW  Elec       q    Type
REMARK                         _______ _______ _______ _____ _____    ______ ____
ROOT
ATOM      1  C   UNL     1       2.227   7.114  19.499  0.00  0.00    +0.000 A 
ATOM      2  C   UNL     1       2.329   5.950  20.179  0.00  0.00    +0.000 A 
ATOM      3  C   UNL     1       3.038   4.848  19.542  0.00  0.00    +0.000 A 
ATOM      4  O   UNL     1       2.871   3.683  19.867  0.00  0.00    +0.000 OA
ATOM      5  C   UNL     1       4.006   5.269  18.541  0.00  0.00    +0.000 A 
ATOM      6  C   UNL     1       5.225   4.615  18.457  0.00  0.00    +0.000 A 
ATOM      7  C   UNL     1       6.209   5.148  17.633  0.00  0.00    +0.000 A 
ATOM      8  C   UNL     1       7.625   4.692  17.812  0.00  0.00    +0.000 C 
ATOM      9  C   UNL     1       5.864   6.160  16.723  0.00  0.00    +0.000 A 
ATOM     10  C   UNL     1       4.625   6.809  16.819  0.00  0.00    +0.000 A 
ATOM     11  C   UNL     1       3.749   6.437  17.831  0.00  0.00    +0.000 A 
ATOM     12  O   UNL     1       2.730   7.291  18.205  0.00  0.00    +0.000 OA
ENDROOT
BRANCH   1  17
ATOM     13  C   UNL     1      -0.565  11.444  22.136  0.00  0.00    +0.000 C 
ATOM     14  C   UNL     1       0.241  10.392  21.435  0.00  0.00    +0.000 A 
ATOM     15  C   UNL     1       0.498  10.445  20.059  0.00  0.00    +0.000 A 
ATOM     16  C   UNL     1       1.155   9.387  19.414  0.00  0.00    +0.000 A 
ATOM     17  C   UNL     1       1.558   8.257  20.138  0.00  0.00    +0.000 A 
ATOM     18  C   UNL     1       1.327   8.240  21.524  0.00  0.00    +0.000 A 
ATOM     19  C   UNL     1       0.688   9.294  22.167  0.00  0.00    +0.000 A 
ENDBRANCH   1  17
TORSDOF 1
ENDMDL
MODEL 7
REMARK VINA RESULT:      -7.2      2.523      3.808
REMARK  Name = 
REMARK  3 active torsions:
REMARK  status: ('A' for Active; 'I' for Inactive)
REMARK    1  A    between atoms: C_1  and  C_2
REMARK    2  A    between atoms: C_5  and  C_6
REMARK    3  A    between atoms: C_12  and  C_13
REMARK                            x       y       z     vdW  Elec       q    Type
REMARK                         _______ _______ _______ _____ _____    ______ ____
ROOT
ATOM      1  C   UNL     1       2.316   7.015  19.322  0.00  0.00    +0.000 A 
ATOM      2  C   UNL     1       2.395   5.851  20.004  0.00  0.00    +0.000 A 
ATOM      3  C   UNL     1       3.117   4.746  19.388  0.00  0.00    +0.000 A 
ATOM      4  O   UNL     1       2.937   3.582  19.708  0.00  0.00    +0.000 OA
ATOM      5  C   UNL     1       4.116   5.163  18.416  0.00  0.00    +0.000 A 
ATOM      6  C   UNL     1       5.334   4.505  18.366  0.00  0.00    +0.000 A 
ATOM      7  C   UNL     1       6.344   5.035  17.572  0.00  0.00    +0.000 A 
ATOM      8  C   UNL     1       7.752   4.574  17.792  0.00  0.00    +0.000 C 
ATOM      9  C   UNL     1       6.028   6.048  16.652  0.00  0.00    +0.000 A 
ATOM     10  C   UNL     1       4.789   6.701  16.712  0.00  0.00    +0.000 A 
ATOM     11  C   UNL     1       3.884   6.332  17.699  0.00  0.00    +0.000 A 
ATOM     12  O   UNL     1       2.857   7.190  18.043  0.00  0.00    +0.000 OA
ENDROOT
BRANCH   1  17
ATOM     13  C   UNL     1      -0.201  11.679  21.645  0.00  0.00    +0.000 C 
ATOM     14  C   UNL     1       0.358  10.416  21.064  0.00  0.00    +0.000 A 
ATOM     15  C   UNL     1       0.668   9.305  21.859  0.00  0.00    +0.000 A 
ATOM     16  C   UNL     1       1.298   8.182  21.302  0.00  0.00    +0.000 A 
ATOM     17  C   UNL     1       1.633   8.160  19.942  0.00  0.00    +0.000 A 
ATOM     18  C   UNL     1       1.278   9.268  19.153  0.00  0.00    +0.000 A 
ATOM     19  C   UNL     1       0.642  10.375  19.701  0.00  0.00    +0.000 A 
ENDBRANCH   1  17
TORSDOF 1
ENDMDL
MODEL 8
REMARK VINA RESULT:      -7.2      5.104      8.772
REMARK  Name = 
REMARK  3 active torsions:
REMARK  status: ('A' for Active; 'I' for Inactive)
REMARK    1  A    between atoms: C_1  and  C_2
REMARK    2  A    between atoms: C_5  and  C_6
REMARK    3  A    between atoms: C_12  and  C_13
REMARK                            x       y       z     vdW  Elec       q    Type
REMARK                         _______ _______ _______ _____ _____    ______ ____
ROOT
ATOM      1  C   UNL     1       5.448   4.930  16.645  0.00  0.00    +0.000 A 
ATOM      2  C   UNL     1       6.301   4.740  17.676  0.00  0.00    +0.000 A 
ATOM      3  C   UNL     1       5.806   4.984  19.025  0.00  0.00    +0.000 A 
ATOM      4  O   UNL     1       6.549   5.215  19.966  0.00  0.00    +0.000 OA
ATOM      5  C   UNL     1       4.364   4.855  19.156  0.00  0.00    +0.000 A 
ATOM      6  C   UNL     1       3.835   4.251  20.286  0.00  0.00    +0.000 A 
ATOM      7  C   UNL     1       2.476   3.962  20.310  0.00  0.00    +0.000 A 
ATOM      8  C   UNL     1       1.962   2.992  21.330  0.00  0.00    +0.000 C 
ATOM      9  C   UNL     1       1.642   4.517  19.326  0.00  0.00    +0.000 A 
ATOM     10  C   UNL     1       2.193   5.128  18.190  0.00  0.00    +0.000 A 
ATOM     11  C   UNL     1       3.574   5.171  18.055  0.00  0.00    +0.000 A 
ATOM     12  O   UNL     1       4.136   5.387  16.812  0.00  0.00    +0.000 OA
ENDROOT
BRANCH   1  17
ATOM     13  C   UNL     1       7.196   3.560  11.301  0.00  0.00    +0.000 C 
ATOM     14  C   UNL     1       6.737   4.020  12.651  0.00  0.00    +0.000 A 
ATOM     15  C   UNL     1       7.544   4.805  13.484  0.00  0.00    +0.000 A 
ATOM     16  C   UNL     1       7.132   5.119  14.788  0.00  0.00    +0.000 A 
ATOM     17  C   UNL     1       5.908   4.646  15.277  0.00  0.00    +0.000 A 
ATOM     18  C   UNL     1       5.094   3.894  14.413  0.00  0.00    +0.000 A 
ATOM     19  C   UNL     1       5.495   3.592  13.117  0.00  0.00    +0.000 A 
ENDBRANCH   1  17
TORSDOF 1
ENDMDL
MODEL 9
REMARK VINA RESULT:      -7.2      5.263      8.771
REMARK  Name = 
REMARK  3 active torsions:
REMARK  status: ('A' for Active; 'I' for Inactive)
REMARK    1  A    between atoms: C_1  and  C_2
REMARK    2  A    between atoms: C_5  and  C_6
REMARK    3  A    between atoms: C_12  and  C_13
REMARK                            x       y       z     vdW  Elec       q    Type
REMARK                         _______ _______ _______ _____ _____    ______ ____
ROOT
ATOM      1  C   UNL     1       5.349   4.813  16.629  0.00  0.00    +0.000 A 
ATOM      2  C   UNL     1       6.188   4.632  17.674  0.00  0.00    +0.000 A 
ATOM      3  C   UNL     1       5.661   4.841  19.016  0.00  0.00    +0.000 A 
ATOM      4  O   UNL     1       6.378   5.079  19.974  0.00  0.00    +0.000 OA
ATOM      5  C   UNL     1       4.220   4.669  19.118  0.00  0.00    +0.000 A 
ATOM      6  C   UNL     1       3.687   4.034  20.228  0.00  0.00    +0.000 A 
ATOM      7  C   UNL     1       2.337   3.706  20.222  0.00  0.00    +0.000 A 
ATOM      8  C   UNL     1       1.832   2.706  21.217  0.00  0.00    +0.000 C 
ATOM      9  C   UNL     1       1.506   4.252  19.229  0.00  0.00    +0.000 A 
ATOM     10  C   UNL     1       2.061   4.895  18.114  0.00  0.00    +0.000 A 
ATOM     11  C   UNL     1       3.443   4.979  18.006  0.00  0.00    +0.000 A 
ATOM     12  O   UNL     1       4.022   5.230  16.777  0.00  0.00    +0.000 OA
ENDROOT
BRANCH   1  17
ATOM     13  C   UNL     1       7.338   4.082  11.244  0.00  0.00    +0.000 C 
ATOM     14  C   UNL     1       6.839   4.164  12.655  0.00  0.00    +0.000 A 
ATOM     15  C   UNL     1       5.630   3.579  13.052  0.00  0.00    +0.000 A 
ATOM     16  C   UNL     1       5.135   3.774  14.350  0.00  0.00    +0.000 A 
ATOM     17  C   UNL     1       5.842   4.562  15.266  0.00  0.00    +0.000 A 
ATOM     18  C   UNL     1       7.073   5.108  14.862  0.00  0.00    +0.000 A 
ATOM     19  C   UNL     1       7.571   4.905  13.580  0.00  0.00    +0.000 A 
ENDBRANCH   1  17
TORSDOF 1
ENDMDL
