MODEL 1
REMARK VINA RESULT:      -6.3      0.000      0.000
REMARK  Name = 
REMARK  6 active torsions:
REMARK  status: ('A' for Active; 'I' for Inactive)
REMARK    1  A    between atoms: C_1  and  C_2
REMARK    2  A    between atoms: C_4  and  O_5
REMARK    3  A    between atoms: O_5  and  C_6
REMARK    4  A    between atoms: N_8  and  C_9
REMARK    5  A    between atoms: N_8  and  C_10
REMARK    6  A    between atoms: C_12  and  C_13
REMARK                            x       y       z     vdW  Elec       q    Type
REMARK                         _______ _______ _______ _____ _____    ______ ____
ROOT
ATOM      1  C   UNL     1       2.429   2.140  17.811  0.00  0.00    +0.000 C 
ATOM      2  C   UNL     1       2.765   3.532  18.276  0.00  0.00    +0.000 A 
ATOM      3  C   UNL     1       3.859   4.193  17.696  0.00  0.00    +0.000 A 
ATOM      4  C   UNL     1       4.168   5.500  18.067  0.00  0.00    +0.000 A 
ATOM      5  C   UNL     1       3.435   6.146  19.061  0.00  0.00    +0.000 A 
ATOM      6  C   UNL     1       2.347   5.500  19.675  0.00  0.00    +0.000 A 
ATOM      7  C   UNL     1       1.569   6.218  20.744  0.00  0.00    +0.000 C 
ATOM      8  C   UNL     1       2.014   4.191  19.267  0.00  0.00    +0.000 A 
ATOM      9 CL   UNL     1       0.665   3.380  20.003  0.00  0.00    +0.000 Cl
ENDROOT
BRANCH   4  10
ATOM     10  O   UNL     1       5.262   6.216  17.522  0.00  0.00    +0.000 OA
BRANCH  10  11
ATOM     11  C   UNL     1       5.640   6.079  16.178  0.00  0.00    +0.000 C 
ATOM     12  O   UNL     1       5.095   6.668  15.250  0.00  0.00    +0.000 OA
ATOM     13  N   UNL     1       6.701   5.202  15.992  0.00  0.00    +0.000 N 
ATOM     14  C   UNL     1       7.423   4.557  17.074  0.00  0.00    +0.000 C 
ATOM     15  C   UNL     1       7.167   4.929  14.645  0.00  0.00    +0.000 C 
ENDBRANCH  10  11
ENDBRANCH   4  10
TORSDOF 2
ENDMDL
MODEL 2
REMARK VINA RESULT:      -6.2      1.456      2.721
REMARK  Name = 
REMARK  6 active torsions:
REMARK  status: ('A' for Active; 'I' for Inactive)
REMARK    1  A    between atoms: C_1  and  C_2
REMARK    2  A    between atoms: C_4  and  O_5
REMARK    3  A    between atoms: O_5  and  C_6
REMARK    4  A    between atoms: N_8  and  C_9
REMARK    5  A    between atoms: N_8  and  C_10
REMARK    6  A    between atoms: C_12  and  C_13
REMARK                            x       y       z     vdW  Elec       q    Type
REMARK                         _______ _______ _______ _____ _____    ______ ____
ROOT
ATOM      1  C   UNL     1       2.077   6.669  20.147  0.00  0.00    +0.000 C 
ATOM      2  C   UNL     1       2.754   5.547  19.408  0.00  0.00    +0.000 A 
ATOM      3  C   UNL     1       3.946   5.815  18.716  0.00  0.00    +0.000 A 
ATOM      4  C   UNL     1       4.626   4.790  18.062  0.00  0.00    +0.000 A 
ATOM      5  C   UNL     1       4.102   3.498  18.034  0.00  0.00    +0.000 A 
ATOM      6  C   UNL     1       2.899   3.205  18.700  0.00  0.00    +0.000 A 
ATOM      7  C   UNL     1       2.354   1.803  18.659  0.00  0.00    +0.000 C 
ATOM      8  C   UNL     1       2.235   4.239  19.394  0.00  0.00    +0.000 A 
ATOM      9 CL   UNL     1       0.754   3.895  20.236  0.00  0.00    +0.000 Cl
ENDROOT
BRANCH   4  10
ATOM     10  O   UNL     1       5.828   5.000  17.343  0.00  0.00    +0.000 OA
BRANCH  10  11
ATOM     11  C   UNL     1       6.275   6.286  17.010  0.00  0.00    +0.000 C 
ATOM     12  O   UNL     1       5.830   6.947  16.076  0.00  0.00    +0.000 OA
ATOM     13  N   UNL     1       7.285   6.750  17.844  0.00  0.00    +0.000 N 
ATOM     14  C   UNL     1       7.774   6.032  19.007  0.00  0.00    +0.000 C 
ATOM     15  C   UNL     1       7.877   8.050  17.586  0.00  0.00    +0.000 C 
ENDBRANCH  10  11
ENDBRANCH   4  10
TORSDOF 2
ENDMDL
MODEL 3
REMARK VINA RESULT:      -6.2      0.211      2.248
REMARK  Name = 
REMARK  6 active torsions:
REMARK  status: ('A' for Active; 'I' for Inactive)
REMARK    1  A    between atoms: C_1  and  C_2
REMARK    2  A    between atoms: C_4  and  O_5
REMARK    3  A    between atoms: O_5  and  C_6
REMARK    4  A    between atoms: N_8  and  C_9
REMARK    5  A    between atoms: N_8  and  C_10
REMARK    6  A    between atoms: C_12  and  C_13
REMARK                            x       y       z     vdW  Elec       q    Type
REMARK                         _______ _______ _______ _____ _____    ______ ____
ROOT
ATOM      1  C   UNL     1       1.560   5.875  20.928  0.00  0.00    +0.000 C 
ATOM      2  C   UNL     1       2.355   5.287  19.793  0.00  0.00    +0.000 A 
ATOM      3  C   UNL     1       3.434   6.019  19.273  0.00  0.00    +0.000 A 
ATOM      4  C   UNL     1       4.221   5.486  18.256  0.00  0.00    +0.000 A 
ATOM      5  C   UNL     1       3.912   4.246  17.698  0.00  0.00    +0.000 A 
ATOM      6  C   UNL     1       2.824   3.500  18.184  0.00  0.00    +0.000 A 
ATOM      7  C   UNL     1       2.511   2.163  17.569  0.00  0.00    +0.000 C 
ATOM      8  C   UNL     1       2.054   4.028  19.241  0.00  0.00    +0.000 A 
ATOM      9 CL   UNL     1       0.713   3.117  19.866  0.00  0.00    +0.000 Cl
ENDROOT
BRANCH   4  10
ATOM     10  O   UNL     1       5.318   6.179  17.687  0.00  0.00    +0.000 OA
BRANCH  10  11
ATOM     11  C   UNL     1       5.664   6.036  16.336  0.00  0.00    +0.000 C 
ATOM     12  O   UNL     1       5.080   6.602  15.416  0.00  0.00    +0.000 OA
ATOM     13  N   UNL     1       6.740   5.183  16.131  0.00  0.00    +0.000 N 
ATOM     14  C   UNL     1       7.506   4.567  17.200  0.00  0.00    +0.000 C 
ATOM     15  C   UNL     1       7.176   4.905  14.775  0.00  0.00    +0.000 C 
ENDBRANCH  10  11
ENDBRANCH   4  10
TORSDOF 2
ENDMDL
MODEL 4
REMARK VINA RESULT:      -6.0      3.614      5.757
REMARK  Name = 
REMARK  6 active torsions:
REMARK  status: ('A' for Active; 'I' for Inactive)
REMARK    1  A    between atoms: C_1  and  C_2
REMARK    2  A    between atoms: C_4  and  O_5
REMARK    3  A    between atoms: O_5  and  C_6
REMARK    4  A    between atoms: N_8  and  C_9
REMARK    5  A    between atoms: N_8  and  C_10
REMARK    6  A    between atoms: C_12  and  C_13
REMARK                            x       y       z     vdW  Elec       q    Type
REMARK                         _______ _______ _______ _____ _____    ______ ____
ROOT
ATOM      1  C   UNL     1       7.887   5.707  19.641  0.00  0.00    +0.000 C 
ATOM      2  C   UNL     1       6.709   5.443  18.741  0.00  0.00    +0.000 A 
ATOM      3  C   UNL     1       5.834   4.394  19.065  0.00  0.00    +0.000 A 
ATOM      4  C   UNL     1       4.707   4.151  18.283  0.00  0.00    +0.000 A 
ATOM      5  C   UNL     1       4.467   4.905  17.135  0.00  0.00    +0.000 A 
ATOM      6  C   UNL     1       5.338   5.948  16.775  0.00  0.00    +0.000 A 
ATOM      7  C   UNL     1       5.057   6.751  15.534  0.00  0.00    +0.000 C 
ATOM      8  C   UNL     1       6.456   6.215  17.593  0.00  0.00    +0.000 A 
ATOM      9 CL   UNL     1       7.538   7.508  17.174  0.00  0.00    +0.000 Cl
ENDROOT
BRANCH   4  10
ATOM     10  O   UNL     1       3.792   3.105  18.555  0.00  0.00    +0.000 OA
BRANCH  10  11
ATOM     11  C   UNL     1       3.469   2.727  19.866  0.00  0.00    +0.000 C 
ATOM     12  O   UNL     1       4.233   2.125  20.614  0.00  0.00    +0.000 OA
ATOM     13  N   UNL     1       2.186   3.100  20.244  0.00  0.00    +0.000 N 
ATOM     14  C   UNL     1       1.289   3.888  19.416  0.00  0.00    +0.000 C 
ATOM     15  C   UNL     1       1.699   2.732  21.561  0.00  0.00    +0.000 C 
ENDBRANCH  10  11
ENDBRANCH   4  10
TORSDOF 2
ENDMDL
MODEL 5
REMARK VINA RESULT:      -6.0      1.280      2.787
REMARK  Name = 
REMARK  6 active torsions:
REMARK  status: ('A' for Active; 'I' for Inactive)
REMARK    1  A    between atoms: C_1  and  C_2
REMARK    2  A    between atoms: C_4  and  O_5
REMARK    3  A    between atoms: O_5  and  C_6
REMARK    4  A    between atoms: N_8  and  C_9
REMARK    5  A    between atoms: N_8  and  C_10
REMARK    6  A    between atoms: C_12  and  C_13
REMARK                            x       y       z     vdW  Elec       q    Type
REMARK                         _______ _______ _______ _____ _____    ______ ____
ROOT
ATOM      1  C   UNL     1       1.745   5.628  20.684  0.00  0.00    +0.000 C 
ATOM      2  C   UNL     1       2.790   4.896  19.886  0.00  0.00    +0.000 A 
ATOM      3  C   UNL     1       3.923   5.601  19.448  0.00  0.00    +0.000 A 
ATOM      4  C   UNL     1       4.933   4.944  18.749  0.00  0.00    +0.000 A 
ATOM      5  C   UNL     1       4.806   3.595  18.423  0.00  0.00    +0.000 A 
ATOM      6  C   UNL     1       3.673   2.869  18.830  0.00  0.00    +0.000 A 
ATOM      7  C   UNL     1       3.559   1.413  18.469  0.00  0.00    +0.000 C 
ATOM      8  C   UNL     1       2.671   3.530  19.571  0.00  0.00    +0.000 A 
ATOM      9 CL   UNL     1       1.269   2.648  20.096  0.00  0.00    +0.000 Cl
ENDROOT
BRANCH   4  10
ATOM     10  O   UNL     1       6.095   5.602  18.277  0.00  0.00    +0.000 OA
BRANCH  10  11
ATOM     11  C   UNL     1       6.879   5.069  17.243  0.00  0.00    +0.000 C 
ATOM     12  O   UNL     1       7.868   4.366  17.426  0.00  0.00    +0.000 OA
ATOM     13  N   UNL     1       6.429   5.417  15.977  0.00  0.00    +0.000 N 
ATOM     14  C   UNL     1       5.216   6.174  15.723  0.00  0.00    +0.000 C 
ATOM     15  C   UNL     1       7.173   4.974  14.813  0.00  0.00    +0.000 C 
ENDBRANCH  10  11
ENDBRANCH   4  10
TORSDOF 2
ENDMDL
MODEL 6
REMARK VINA RESULT:      -6.0      1.889      2.829
REMARK  Name = 
REMARK  6 active torsions:
REMARK  status: ('A' for Active; 'I' for Inactive)
REMARK    1  A    between atoms: C_1  and  C_2
REMARK    2  A    between atoms: C_4  and  O_5
REMARK    3  A    between atoms: O_5  and  C_6
REMARK    4  A    between atoms: N_8  and  C_9
REMARK    5  A    between atoms: N_8  and  C_10
REMARK    6  A    between atoms: C_12  and  C_13
REMARK                            x       y       z     vdW  Elec       q    Type
REMARK                         _______ _______ _______ _____ _____    ______ ____
ROOT
ATOM      1  C   UNL     1       2.881   7.457  18.083  0.00  0.00    +0.000 C 
ATOM      2  C   UNL     1       3.326   6.022  18.179  0.00  0.00    +0.000 A 
ATOM      3  C   UNL     1       4.153   5.503  17.170  0.00  0.00    +0.000 A 
ATOM      4  C   UNL     1       4.624   4.194  17.251  0.00  0.00    +0.000 A 
ATOM      5  C   UNL     1       4.232   3.365  18.300  0.00  0.00    +0.000 A 
ATOM      6  C   UNL     1       3.387   3.852  19.313  0.00  0.00    +0.000 A 
ATOM      7  C   UNL     1       2.980   2.939  20.438  0.00  0.00    +0.000 C 
ATOM      8  C   UNL     1       2.945   5.190  19.247  0.00  0.00    +0.000 A 
ATOM      9 CL   UNL     1       1.912   5.816  20.495  0.00  0.00    +0.000 Cl
ENDROOT
BRANCH   4  10
ATOM     10  O   UNL     1       5.455   3.613  16.262  0.00  0.00    +0.000 OA
BRANCH  10  11
ATOM     11  C   UNL     1       6.587   4.275  15.765  0.00  0.00    +0.000 C 
ATOM     12  O   UNL     1       7.517   4.662  16.465  0.00  0.00    +0.000 OA
ATOM     13  N   UNL     1       6.556   4.456  14.388  0.00  0.00    +0.000 N 
ATOM     14  C   UNL     1       5.514   3.935  13.521  0.00  0.00    +0.000 C 
ATOM     15  C   UNL     1       7.643   5.170  13.743  0.00  0.00    +0.000 C 
ENDBRANCH  10  11
ENDBRANCH   4  10
TORSDOF 2
ENDMDL
MODEL 7
REMARK VINA RESULT:      -6.0      3.580      5.395
REMARK  Name = 
REMARK  6 active torsions:
REMARK  status: ('A' for Active; 'I' for Inactive)
REMARK    1  A    between atoms: C_1  and  C_2
REMARK    2  A    between atoms: C_4  and  O_5
REMARK    3  A    between atoms: O_5  and  C_6
REMARK    4  A    between atoms: N_8  and  C_9
REMARK    5  A    between atoms: N_8  and  C_10
REMARK    6  A    between atoms: C_12  and  C_13
REMARK                            x       y       z     vdW  Elec       q    Type
REMARK                         _______ _______ _______ _____ _____    ______ ____
ROOT
ATOM      1  C   UNL     1       5.223   6.724  15.336  0.00  0.00    +0.000 C 
ATOM      2  C   UNL     1       5.408   5.901  16.582  0.00  0.00    +0.000 A 
ATOM      3  C   UNL     1       4.533   4.829  16.821  0.00  0.00    +0.000 A 
ATOM      4  C   UNL     1       4.705   4.016  17.939  0.00  0.00    +0.000 A 
ATOM      5  C   UNL     1       5.708   4.291  18.866  0.00  0.00    +0.000 A 
ATOM      6  C   UNL     1       6.586   5.371  18.664  0.00  0.00    +0.000 A 
ATOM      7  C   UNL     1       7.664   5.646  19.677  0.00  0.00    +0.000 C 
ATOM      8  C   UNL     1       6.432   6.167  17.510  0.00  0.00    +0.000 A 
ATOM      9 CL   UNL     1       7.515   7.497  17.233  0.00  0.00    +0.000 Cl
ENDROOT
BRANCH   4  10
ATOM     10  O   UNL     1       3.851   2.926  18.236  0.00  0.00    +0.000 OA
BRANCH  10  11
ATOM     11  C   UNL     1       2.475   3.099  18.445  0.00  0.00    +0.000 C 
ATOM     12  O   UNL     1       1.664   3.292  17.545  0.00  0.00    +0.000 OA
ATOM     13  N   UNL     1       2.111   3.032  19.784  0.00  0.00    +0.000 N 
ATOM     14  C   UNL     1       3.030   2.719  20.863  0.00  0.00    +0.000 C 
ATOM     15  C   UNL     1       0.722   3.241  20.152  0.00  0.00    +0.000 C 
ENDBRANCH  10  11
ENDBRANCH   4  10
TORSDOF 2
ENDMDL
MODEL 8
REMARK VINA RESULT:      -6.0      2.036      2.728
REMARK  Name = 
REMARK  6 active torsions:
REMARK  status: ('A' for Active; 'I' for Inactive)
REMARK    1  A    between atoms: C_1  and  C_2
REMARK    2  A    between atoms: C_4  and  O_5
REMARK    3  A    between atoms: O_5  and  C_6
REMARK    4  A    between atoms: N_8  and  C_9
REMARK    5  A    between atoms: N_8  and  C_10
REMARK    6  A    between atoms: C_12  and  C_13
REMARK                            x       y       z     vdW  Elec       q    Type
REMARK                         _______ _______ _______ _____ _____    ______ ____
ROOT
ATOM      1  C   UNL     1       1.332   4.404  17.235  0.00  0.00    +0.000 C 
ATOM      2  C   UNL     1       2.403   3.977  18.202  0.00  0.00    +0.000 A 
ATOM      3  C   UNL     1       3.748   4.186  17.857  0.00  0.00    +0.000 A 
ATOM      4  C   UNL     1       4.763   3.848  18.748  0.00  0.00    +0.000 A 
ATOM      5  C   UNL     1       4.463   3.241  19.966  0.00  0.00    +0.000 A 
ATOM      6  C   UNL     1       3.126   3.000  20.329  0.00  0.00    +0.000 A 
ATOM      7  C   UNL     1       2.825   2.347  21.651  0.00  0.00    +0.000 C 
ATOM      8  C   UNL     1       2.099   3.380  19.440  0.00  0.00    +0.000 A 
ATOM      9 CL   UNL     1       0.440   3.104  19.874  0.00  0.00    +0.000 Cl
ENDROOT
BRANCH   4  10
ATOM     10  O   UNL     1       6.137   4.030  18.454  0.00  0.00    +0.000 OA
BRANCH  10  11
ATOM     11  C   UNL     1       6.818   5.207  18.797  0.00  0.00    +0.000 C 
ATOM     12  O   UNL     1       7.111   5.518  19.948  0.00  0.00    +0.000 OA
ATOM     13  N   UNL     1       7.131   6.000  17.701  0.00  0.00    +0.000 N 
ATOM     14  C   UNL     1       6.876   5.621  16.323  0.00  0.00    +0.000 C 
ATOM     15  C   UNL     1       7.796   7.272  17.914  0.00  0.00    +0.000 C 
ENDBRANCH  10  11
ENDBRANCH   4  10
TORSDOF 2
ENDMDL
MODEL 9
REMARK VINA RESULT:      -6.0      1.824      3.245
REMARK  Name = 
REMARK  6 active torsions:
REMARK  status: ('A' for Active; 'I' for Inactive)
REMARK    1  A    between atoms: C_1  and  C_2
REMARK    2  A    between atoms: C_4  and  O_5
REMARK    3  A    between atoms: O_5  and  C_6
REMARK    4  A    between atoms: N_8  and  C_9
REMARK    5  A    between atoms: N_8  and  C_10
REMARK    6  A    between atoms: C_12  and  C_13
REMARK                            x       y       z     vdW  Elec       q    Type
REMARK                         _______ _______ _______ _____ _____    ______ ____
ROOT
ATOM      1  C   UNL     1       2.121   6.279  20.639  0.00  0.00    +0.000 C 
ATOM      2  C   UNL     1       2.820   5.130  19.962  0.00  0.00    +0.000 A 
ATOM      3  C   UNL     1       4.176   5.266  19.628  0.00  0.00    +0.000 A 
ATOM      4  C   UNL     1       4.868   4.207  19.046  0.00  0.00    +0.000 A 
ATOM      5  C   UNL     1       4.208   3.019  18.731  0.00  0.00    +0.000 A 
ATOM      6  C   UNL     1       2.844   2.862  19.035  0.00  0.00    +0.000 A 
ATOM      7  C   UNL     1       2.154   1.571  18.689  0.00  0.00    +0.000 C 
ATOM      8  C   UNL     1       2.159   3.925  19.661  0.00  0.00    +0.000 A 
ATOM      9 CL   UNL     1       0.477   3.747  20.058  0.00  0.00    +0.000 Cl
ENDROOT
BRANCH   4  10
ATOM     10  O   UNL     1       6.234   4.287  18.681  0.00  0.00    +0.000 OA
BRANCH  10  11
ATOM     11  C   UNL     1       7.025   5.395  19.015  0.00  0.00    +0.000 C 
ATOM     12  O   UNL     1       7.477   5.601  20.137  0.00  0.00    +0.000 OA
ATOM     13  N   UNL     1       7.252   6.250  17.944  0.00  0.00    +0.000 N 
ATOM     14  C   UNL     1       6.805   5.992  16.587  0.00  0.00    +0.000 C 
ATOM     15  C   UNL     1       8.017   7.465  18.157  0.00  0.00    +0.000 C 
ENDBRANCH  10  11
ENDBRANCH   4  10
TORSDOF 2
ENDMDL
