MODEL 1
REMARK VINA RESULT:      -7.0      0.000      0.000
REMARK  Name = 
REMARK  8 active torsions:
REMARK  status: ('A' for Active; 'I' for Inactive)
REMARK    1  A    between atoms: C_1  and  C_2
REMARK    2  A    between atoms: C_2  and  C_3
REMARK    3  A    between atoms: C_2  and  C_4
REMARK    4  A    between atoms: C_4  and  N_5
REMARK    5  A    between atoms: C_9  and  C_10
REMARK    6  A    between atoms: C_10  and  N_11
REMARK    7  A    between atoms: N_11  and  C_12
REMARK    8  A    between atoms: C_18  and  C_19
REMARK                            x       y       z     vdW  Elec       q    Type
REMARK                         _______ _______ _______ _____ _____    ______ ____
ROOT
ATOM      1  N   UNL     1       5.144   3.234  18.855  0.00  0.00    +0.000 N 
ATOM      2  H   UNL     1       5.360   3.541  19.799  0.00  0.00    +0.000 HD
ENDROOT
BRANCH   1   3
ATOM      3  C   UNL     1       5.556   4.158  17.886  0.00  0.00    +0.000 A 
ATOM      4  C   UNL     1       5.051   3.945  16.586  0.00  0.00    +0.000 A 
ATOM      5  C   UNL     1       5.437   4.733  15.493  0.00  0.00    +0.000 A 
ATOM      6  C   UNL     1       6.361   5.751  15.674  0.00  0.00    +0.000 A 
ATOM      7  C   UNL     1       6.898   5.954  16.938  0.00  0.00    +0.000 A 
ATOM      8  F   UNL     1       7.818   6.921  17.082  0.00  0.00    +0.000 F 
ATOM      9  C   UNL     1       6.531   5.163  18.033  0.00  0.00    +0.000 A 
BRANCH   9  10
ATOM     10  C   UNL     1       7.242   5.392  19.249  0.00  0.00    +0.000 C 
ATOM     11  N   UNL     1       7.823   5.545  20.245  0.00  0.00    +0.000 NA
ENDBRANCH   9  10
ENDBRANCH   1   3
BRANCH   1  12
ATOM     12  C   UNL     1       3.855   2.537  18.770  0.00  0.00    +0.000 C 
BRANCH  12  17
ATOM     13  N   UNL     1       2.038   4.166  19.568  0.00  0.00    +0.000 N 
ATOM     14  C   UNL     1       1.125   4.204  20.594  0.00  0.00    +0.000 A 
ATOM     15  C   UNL     1       1.395   3.102  21.363  0.00  0.00    +0.000 A 
ATOM     16  N   UNL     1       2.427   2.385  20.828  0.00  0.00    +0.000 NA
ATOM     17  C   UNL     1       2.800   3.025  19.732  0.00  0.00    +0.000 A 
BRANCH  13  18
ATOM     18  C   UNL     1       2.114   5.176  18.517  0.00  0.00    +0.000 C 
BRANCH  18  20
ATOM     19  C   UNL     1       3.416   7.181  17.687  0.00  0.00    +0.000 C 
ATOM     20  C   UNL     1       2.941   6.414  18.921  0.00  0.00    +0.000 C 
ATOM     21  C   UNL     1       2.148   7.351  19.836  0.00  0.00    +0.000 C 
ENDBRANCH  18  20
ENDBRANCH  13  18
ENDBRANCH  12  17
ENDBRANCH   1  12
TORSDOF 6
ENDMDL
MODEL 2
REMARK VINA RESULT:      -6.8      2.945      5.760
REMARK  Name = 
REMARK  8 active torsions:
REMARK  status: ('A' for Active; 'I' for Inactive)
REMARK    1  A    between atoms: C_1  and  C_2
REMARK    2  A    between atoms: C_2  and  C_3
REMARK    3  A    between atoms: C_2  and  C_4
REMARK    4  A    between atoms: C_4  and  N_5
REMARK    5  A    between atoms: C_9  and  C_10
REMARK    6  A    between atoms: C_10  and  N_11
REMARK    7  A    between atoms: N_11  and  C_12
REMARK    8  A    between atoms: C_18  and  C_19
REMARK                            x       y       z     vdW  Elec       q    Type
REMARK                         _______ _______ _______ _____ _____    ______ ____
ROOT
ATOM      1  N   UNL     1       4.228   2.866  17.760  0.00  0.00    +0.000 N 
ATOM      2  H   UNL     1       3.963   2.594  16.817  0.00  0.00    +0.000 HD
ENDROOT
BRANCH   1   3
ATOM      3  C   UNL     1       3.144   2.844  18.646  0.00  0.00    +0.000 A 
ATOM      4  C   UNL     1       1.954   3.437  18.170  0.00  0.00    +0.000 A 
ATOM      5  C   UNL     1       0.810   3.569  18.969  0.00  0.00    +0.000 A 
ATOM      6  C   UNL     1       0.835   3.121  20.281  0.00  0.00    +0.000 A 
ATOM      7  C   UNL     1       2.006   2.567  20.781  0.00  0.00    +0.000 A 
ATOM      8  F   UNL     1       2.017   2.175  22.065  0.00  0.00    +0.000 F 
ATOM      9  C   UNL     1       3.159   2.446  19.997  0.00  0.00    +0.000 A 
BRANCH   9  10
ATOM     10  C   UNL     1       4.331   1.973  20.660  0.00  0.00    +0.000 C 
ATOM     11  N   UNL     1       5.296   1.574  21.172  0.00  0.00    +0.000 NA
ENDBRANCH   9  10
ENDBRANCH   1   3
BRANCH   1  12
ATOM     12  C   UNL     1       5.227   3.941  17.777  0.00  0.00    +0.000 C 
BRANCH  12  17
ATOM     13  N   UNL     1       6.270   5.567  16.084  0.00  0.00    +0.000 N 
ATOM     14  C   UNL     1       6.777   5.477  14.811  0.00  0.00    +0.000 A 
ATOM     15  C   UNL     1       6.540   4.186  14.414  0.00  0.00    +0.000 A 
ATOM     16  N   UNL     1       5.925   3.483  15.410  0.00  0.00    +0.000 NA
ATOM     17  C   UNL     1       5.781   4.320  16.425  0.00  0.00    +0.000 A 
BRANCH  13  18
ATOM     18  C   UNL     1       6.298   6.789  16.881  0.00  0.00    +0.000 C 
BRANCH  18  20
ATOM     19  C   UNL     1       7.876   8.573  17.737  0.00  0.00    +0.000 C 
ATOM     20  C   UNL     1       7.678   7.074  17.510  0.00  0.00    +0.000 C 
ATOM     21  C   UNL     1       7.865   6.324  18.831  0.00  0.00    +0.000 C 
ENDBRANCH  18  20
ENDBRANCH  13  18
ENDBRANCH  12  17
ENDBRANCH   1  12
TORSDOF 6
ENDMDL
MODEL 3
REMARK VINA RESULT:      -6.8      2.579      4.918
REMARK  Name = 
REMARK  8 active torsions:
REMARK  status: ('A' for Active; 'I' for Inactive)
REMARK    1  A    between atoms: C_1  and  C_2
REMARK    2  A    between atoms: C_2  and  C_3
REMARK    3  A    between atoms: C_2  and  C_4
REMARK    4  A    between atoms: C_4  and  N_5
REMARK    5  A    between atoms: C_9  and  C_10
REMARK    6  A    between atoms: C_10  and  N_11
REMARK    7  A    between atoms: N_11  and  C_12
REMARK    8  A    between atoms: C_18  and  C_19
REMARK                            x       y       z     vdW  Elec       q    Type
REMARK                         _______ _______ _______ _____ _____    ______ ____
ROOT
ATOM      1  N   UNL     1       4.508   2.618  17.468  0.00  0.00    +0.000 N 
ATOM      2  H   UNL     1       4.593   1.729  16.981  0.00  0.00    +0.000 HD
ENDROOT
BRANCH   1   3
ATOM      3  C   UNL     1       3.359   2.682  18.265  0.00  0.00    +0.000 A 
ATOM      4  C   UNL     1       2.215   3.230  17.646  0.00  0.00    +0.000 A 
ATOM      5  C   UNL     1       1.014   3.438  18.338  0.00  0.00    +0.000 A 
ATOM      6  C   UNL     1       0.934   3.116  19.684  0.00  0.00    +0.000 A 
ATOM      7  C   UNL     1       2.059   2.609  20.322  0.00  0.00    +0.000 A 
ATOM      8  F   UNL     1       1.968   2.339  21.634  0.00  0.00    +0.000 F 
ATOM      9  C   UNL     1       3.267   2.412  19.644  0.00  0.00    +0.000 A 
BRANCH   9  10
ATOM     10  C   UNL     1       4.380   2.001  20.437  0.00  0.00    +0.000 C 
ATOM     11  N   UNL     1       5.268   1.645  21.099  0.00  0.00    +0.000 NA
ENDBRANCH   9  10
ENDBRANCH   1   3
BRANCH   1  12
ATOM     12  C   UNL     1       4.954   3.753  16.650  0.00  0.00    +0.000 C 
BRANCH  12  17
ATOM     13  N   UNL     1       5.728   6.033  17.542  0.00  0.00    +0.000 N 
ATOM     14  C   UNL     1       6.791   6.498  18.277  0.00  0.00    +0.000 A 
ATOM     15  C   UNL     1       7.618   5.418  18.447  0.00  0.00    +0.000 A 
ATOM     16  N   UNL     1       7.083   4.307  17.857  0.00  0.00    +0.000 NA
ATOM     17  C   UNL     1       5.931   4.683  17.327  0.00  0.00    +0.000 A 
BRANCH  13  18
ATOM     18  C   UNL     1       4.610   6.871  17.119  0.00  0.00    +0.000 C 
BRANCH  18  20
ATOM     19  C   UNL     1       3.663   6.119  19.343  0.00  0.00    +0.000 C 
ATOM     20  C   UNL     1       3.327   6.635  17.943  0.00  0.00    +0.000 C 
ATOM     21  C   UNL     1       2.483   7.907  18.052  0.00  0.00    +0.000 C 
ENDBRANCH  18  20
ENDBRANCH  13  18
ENDBRANCH  12  17
ENDBRANCH   1  12
TORSDOF 6
ENDMDL
MODEL 4
REMARK VINA RESULT:      -6.5      2.799      5.849
REMARK  Name = 
REMARK  8 active torsions:
REMARK  status: ('A' for Active; 'I' for Inactive)
REMARK    1  A    between atoms: C_1  and  C_2
REMARK    2  A    between atoms: C_2  and  C_3
REMARK    3  A    between atoms: C_2  and  C_4
REMARK    4  A    between atoms: C_4  and  N_5
REMARK    5  A    between atoms: C_9  and  C_10
REMARK    6  A    between atoms: C_10  and  N_11
REMARK    7  A    between atoms: N_11  and  C_12
REMARK    8  A    between atoms: C_18  and  C_19
REMARK                            x       y       z     vdW  Elec       q    Type
REMARK                         _______ _______ _______ _____ _____    ______ ____
ROOT
ATOM      1  N   UNL     1       4.327   2.563  17.833  0.00  0.00    +0.000 N 
ATOM      2  H   UNL     1       4.359   1.624  17.444  0.00  0.00    +0.000 HD
ENDROOT
BRANCH   1   3
ATOM      3  C   UNL     1       3.282   2.725  18.750  0.00  0.00    +0.000 A 
ATOM      4  C   UNL     1       2.145   3.407  18.266  0.00  0.00    +0.000 A 
ATOM      5  C   UNL     1       1.053   3.722  19.086  0.00  0.00    +0.000 A 
ATOM      6  C   UNL     1       1.080   3.373  20.428  0.00  0.00    +0.000 A 
ATOM      7  C   UNL     1       2.205   2.734  20.934  0.00  0.00    +0.000 A 
ATOM      8  F   UNL     1       2.224   2.439  22.243  0.00  0.00    +0.000 F 
ATOM      9  C   UNL     1       3.307   2.429  20.127  0.00  0.00    +0.000 A 
BRANCH   9  10
ATOM     10  C   UNL     1       4.447   1.883  20.789  0.00  0.00    +0.000 C 
ATOM     11  N   UNL     1       5.394   1.464  21.319  0.00  0.00    +0.000 NA
ENDBRANCH   9  10
ENDBRANCH   1   3
BRANCH   1  12
ATOM     12  C   UNL     1       4.664   3.594  16.844  0.00  0.00    +0.000 C 
BRANCH  12  17
ATOM     13  N   UNL     1       6.449   5.380  16.374  0.00  0.00    +0.000 N 
ATOM     14  C   UNL     1       7.368   6.078  17.119  0.00  0.00    +0.000 A 
ATOM     15  C   UNL     1       7.286   5.557  18.383  0.00  0.00    +0.000 A 
ATOM     16  N   UNL     1       6.334   4.578  18.438  0.00  0.00    +0.000 NA
ATOM     17  C   UNL     1       5.819   4.489  17.222  0.00  0.00    +0.000 A 
BRANCH  13  18
ATOM     18  C   UNL     1       6.220   5.608  14.951  0.00  0.00    +0.000 C 
BRANCH  18  20
ATOM     19  C   UNL     1       5.996   3.743  13.255  0.00  0.00    +0.000 C 
ATOM     20  C   UNL     1       6.974   4.613  14.046  0.00  0.00    +0.000 C 
ATOM     21  C   UNL     1       7.921   5.330  13.080  0.00  0.00    +0.000 C 
ENDBRANCH  18  20
ENDBRANCH  13  18
ENDBRANCH  12  17
ENDBRANCH   1  12
TORSDOF 6
ENDMDL
MODEL 5
REMARK VINA RESULT:      -6.5      1.010      1.205
REMARK  Name = 
REMARK  8 active torsions:
REMARK  status: ('A' for Active; 'I' for Inactive)
REMARK    1  A    between atoms: C_1  and  C_2
REMARK    2  A    between atoms: C_2  and  C_3
REMARK    3  A    between atoms: C_2  and  C_4
REMARK    4  A    between atoms: C_4  and  N_5
REMARK    5  A    between atoms: C_9  and  C_10
REMARK    6  A    between atoms: C_10  and  N_11
REMARK    7  A    between atoms: N_11  and  C_12
REMARK    8  A    between atoms: C_18  and  C_19
REMARK                            x       y       z     vdW  Elec       q    Type
REMARK                         _______ _______ _______ _____ _____    ______ ____
ROOT
ATOM      1  N   UNL     1       5.325   3.244  18.757  0.00  0.00    +0.000 N 
ATOM      2  H   UNL     1       6.176   2.719  18.939  0.00  0.00    +0.000 HD
ENDROOT
BRANCH   1   3
ATOM      3  C   UNL     1       5.559   4.393  17.991  0.00  0.00    +0.000 A 
ATOM      4  C   UNL     1       4.939   4.418  16.723  0.00  0.00    +0.000 A 
ATOM      5  C   UNL     1       5.146   5.459  15.808  0.00  0.00    +0.000 A 
ATOM      6  C   UNL     1       6.001   6.501  16.136  0.00  0.00    +0.000 A 
ATOM      7  C   UNL     1       6.650   6.477  17.364  0.00  0.00    +0.000 A 
ATOM      8  F   UNL     1       7.500   7.477  17.644  0.00  0.00    +0.000 F 
ATOM      9  C   UNL     1       6.462   5.435  18.279  0.00  0.00    +0.000 A 
BRANCH   9  10
ATOM     10  C   UNL     1       7.276   5.463  19.450  0.00  0.00    +0.000 C 
ATOM     11  N   UNL     1       7.960   5.464  20.391  0.00  0.00    +0.000 NA
ENDBRANCH   9  10
ENDBRANCH   1   3
BRANCH   1  12
ATOM     12  C   UNL     1       4.407   3.244  19.903  0.00  0.00    +0.000 C 
BRANCH  12  17
ATOM     13  N   UNL     1       1.901   3.799  19.840  0.00  0.00    +0.000 N 
ATOM     14  C   UNL     1       0.778   3.237  19.284  0.00  0.00    +0.000 A 
ATOM     15  C   UNL     1       1.197   2.058  18.725  0.00  0.00    +0.000 A 
ATOM     16  N   UNL     1       2.542   1.894  18.906  0.00  0.00    +0.000 NA
ATOM     17  C   UNL     1       2.964   2.960  19.566  0.00  0.00    +0.000 A 
BRANCH  13  18
ATOM     18  C   UNL     1       1.898   5.068  20.560  0.00  0.00    +0.000 C 
BRANCH  18  20
ATOM     19  C   UNL     1       2.207   6.059  18.251  0.00  0.00    +0.000 C 
ATOM     20  C   UNL     1       2.495   6.233  19.743  0.00  0.00    +0.000 C 
ATOM     21  C   UNL     1       1.962   7.588  20.215  0.00  0.00    +0.000 C 
ENDBRANCH  18  20
ENDBRANCH  13  18
ENDBRANCH  12  17
ENDBRANCH   1  12
TORSDOF 6
ENDMDL
MODEL 6
REMARK VINA RESULT:      -6.5      2.635      4.924
REMARK  Name = 
REMARK  8 active torsions:
REMARK  status: ('A' for Active; 'I' for Inactive)
REMARK    1  A    between atoms: C_1  and  C_2
REMARK    2  A    between atoms: C_2  and  C_3
REMARK    3  A    between atoms: C_2  and  C_4
REMARK    4  A    between atoms: C_4  and  N_5
REMARK    5  A    between atoms: C_9  and  C_10
REMARK    6  A    between atoms: C_10  and  N_11
REMARK    7  A    between atoms: N_11  and  C_12
REMARK    8  A    between atoms: C_18  and  C_19
REMARK                            x       y       z     vdW  Elec       q    Type
REMARK                         _______ _______ _______ _____ _____    ______ ____
ROOT
ATOM      1  N   UNL     1       4.646   2.768  17.563  0.00  0.00    +0.000 N 
ATOM      2  H   UNL     1       4.985   1.827  17.378  0.00  0.00    +0.000 HD
ENDROOT
BRANCH   1   3
ATOM      3  C   UNL     1       3.464   2.771  18.313  0.00  0.00    +0.000 A 
ATOM      4  C   UNL     1       2.334   3.322  17.669  0.00  0.00    +0.000 A 
ATOM      5  C   UNL     1       1.101   3.473  18.317  0.00  0.00    +0.000 A 
ATOM      6  C   UNL     1       0.972   3.090  19.643  0.00  0.00    +0.000 A 
ATOM      7  C   UNL     1       2.080   2.579  20.307  0.00  0.00    +0.000 A 
ATOM      8  F   UNL     1       1.940   2.250  21.601  0.00  0.00    +0.000 F 
ATOM      9  C   UNL     1       3.320   2.439  19.674  0.00  0.00    +0.000 A 
BRANCH   9  10
ATOM     10  C   UNL     1       4.408   2.018  20.495  0.00  0.00    +0.000 C 
ATOM     11  N   UNL     1       5.275   1.673  21.191  0.00  0.00    +0.000 NA
ENDBRANCH   9  10
ENDBRANCH   1   3
BRANCH   1  12
ATOM     12  C   UNL     1       4.853   3.675  16.428  0.00  0.00    +0.000 C 
BRANCH  12  17
ATOM     13  N   UNL     1       4.924   6.129  17.179  0.00  0.00    +0.000 N 
ATOM     14  C   UNL     1       5.904   7.041  17.486  0.00  0.00    +0.000 A 
ATOM     15  C   UNL     1       7.089   6.411  17.208  0.00  0.00    +0.000 A 
ATOM     16  N   UNL     1       6.863   5.140  16.761  0.00  0.00    +0.000 NA
ATOM     17  C   UNL     1       5.551   4.970  16.763  0.00  0.00    +0.000 A 
BRANCH  13  18
ATOM     18  C   UNL     1       3.497   6.401  17.314  0.00  0.00    +0.000 C 
BRANCH  18  20
ATOM     19  C   UNL     1       2.368   8.606  17.833  0.00  0.00    +0.000 C 
ATOM     20  C   UNL     1       3.175   7.442  18.407  0.00  0.00    +0.000 C 
ATOM     21  C   UNL     1       2.415   6.816  19.579  0.00  0.00    +0.000 C 
ENDBRANCH  18  20
ENDBRANCH  13  18
ENDBRANCH  12  17
ENDBRANCH   1  12
TORSDOF 6
ENDMDL
MODEL 7
REMARK VINA RESULT:      -6.5      2.602      5.766
REMARK  Name = 
REMARK  8 active torsions:
REMARK  status: ('A' for Active; 'I' for Inactive)
REMARK    1  A    between atoms: C_1  and  C_2
REMARK    2  A    between atoms: C_2  and  C_3
REMARK    3  A    between atoms: C_2  and  C_4
REMARK    4  A    between atoms: C_4  and  N_5
REMARK    5  A    between atoms: C_9  and  C_10
REMARK    6  A    between atoms: C_10  and  N_11
REMARK    7  A    between atoms: N_11  and  C_12
REMARK    8  A    between atoms: C_18  and  C_19
REMARK                            x       y       z     vdW  Elec       q    Type
REMARK                         _______ _______ _______ _____ _____    ______ ____
ROOT
ATOM      1  N   UNL     1       3.542   3.656  17.203  0.00  0.00    +0.000 N 
ATOM      2  H   UNL     1       3.178   4.253  16.465  0.00  0.00    +0.000 HD
ENDROOT
BRANCH   1   3
ATOM      3  C   UNL     1       2.734   3.668  18.347  0.00  0.00    +0.000 A 
ATOM      4  C   UNL     1       2.175   2.425  18.713  0.00  0.00    +0.000 A 
ATOM      5  C   UNL     1       1.278   2.291  19.782  0.00  0.00    +0.000 A 
ATOM      6  C   UNL     1       0.904   3.413  20.507  0.00  0.00    +0.000 A 
ATOM      7  C   UNL     1       1.414   4.652  20.141  0.00  0.00    +0.000 A 
ATOM      8  F   UNL     1       1.008   5.727  20.833  0.00  0.00    +0.000 F 
ATOM      9  C   UNL     1       2.298   4.798  19.065  0.00  0.00    +0.000 A 
BRANCH   9  10
ATOM     10  C   UNL     1       2.654   6.134  18.714  0.00  0.00    +0.000 C 
ATOM     11  N   UNL     1       2.922   7.223  18.404  0.00  0.00    +0.000 NA
ENDBRANCH   9  10
ENDBRANCH   1   3
BRANCH   1  12
ATOM     12  C   UNL     1       5.008   3.688  17.283  0.00  0.00    +0.000 C 
BRANCH  12  17
ATOM     13  N   UNL     1       6.249   5.484  15.931  0.00  0.00    +0.000 N 
ATOM     14  C   UNL     1       6.880   5.543  14.712  0.00  0.00    +0.000 A 
ATOM     15  C   UNL     1       6.659   4.324  14.126  0.00  0.00    +0.000 A 
ATOM     16  N   UNL     1       5.932   3.518  14.956  0.00  0.00    +0.000 NA
ATOM     17  C   UNL     1       5.703   4.221  16.054  0.00  0.00    +0.000 A 
BRANCH  13  18
ATOM     18  C   UNL     1       6.220   6.591  16.881  0.00  0.00    +0.000 C 
BRANCH  18  20
ATOM     19  C   UNL     1       7.790   8.406  17.684  0.00  0.00    +0.000 C 
ATOM     20  C   UNL     1       7.601   6.901  17.496  0.00  0.00    +0.000 C 
ATOM     21  C   UNL     1       7.799   6.186  18.835  0.00  0.00    +0.000 C 
ENDBRANCH  18  20
ENDBRANCH  13  18
ENDBRANCH  12  17
ENDBRANCH   1  12
TORSDOF 6
ENDMDL
MODEL 8
REMARK VINA RESULT:      -6.4      2.397      5.645
REMARK  Name = 
REMARK  8 active torsions:
REMARK  status: ('A' for Active; 'I' for Inactive)
REMARK    1  A    between atoms: C_1  and  C_2
REMARK    2  A    between atoms: C_2  and  C_3
REMARK    3  A    between atoms: C_2  and  C_4
REMARK    4  A    between atoms: C_4  and  N_5
REMARK    5  A    between atoms: C_9  and  C_10
REMARK    6  A    between atoms: C_10  and  N_11
REMARK    7  A    between atoms: N_11  and  C_12
REMARK    8  A    between atoms: C_18  and  C_19
REMARK                            x       y       z     vdW  Elec       q    Type
REMARK                         _______ _______ _______ _____ _____    ______ ____
ROOT
ATOM      1  N   UNL     1       3.157   3.695  17.090  0.00  0.00    +0.000 N 
ATOM      2  H   UNL     1       2.901   4.423  16.428  0.00  0.00    +0.000 HD
ENDROOT
BRANCH   1   3
ATOM      3  C   UNL     1       2.567   3.886  18.346  0.00  0.00    +0.000 A 
ATOM      4  C   UNL     1       1.969   2.743  18.920  0.00  0.00    +0.000 A 
ATOM      5  C   UNL     1       1.266   2.793  20.132  0.00  0.00    +0.000 A 
ATOM      6  C   UNL     1       1.130   4.002  20.796  0.00  0.00    +0.000 A 
ATOM      7  C   UNL     1       1.679   5.146  20.231  0.00  0.00    +0.000 A 
ATOM      8  F   UNL     1       1.502   6.311  20.873  0.00  0.00    +0.000 F 
ATOM      9  C   UNL     1       2.370   5.110  19.014  0.00  0.00    +0.000 A 
BRANCH   9  10
ATOM     10  C   UNL     1       2.780   6.368  18.480  0.00  0.00    +0.000 C 
ATOM     11  N   UNL     1       3.146   7.388  18.056  0.00  0.00    +0.000 NA
ENDBRANCH   9  10
ENDBRANCH   1   3
BRANCH   1  12
ATOM     12  C   UNL     1       4.551   3.262  16.941  0.00  0.00    +0.000 C 
BRANCH  12  17
ATOM     13  N   UNL     1       6.121   5.250  16.520  0.00  0.00    +0.000 N 
ATOM     14  C   UNL     1       6.937   6.044  17.287  0.00  0.00    +0.000 A 
ATOM     15  C   UNL     1       6.895   5.504  18.546  0.00  0.00    +0.000 A 
ATOM     16  N   UNL     1       6.064   4.420  18.574  0.00  0.00    +0.000 NA
ATOM     17  C   UNL     1       5.585   4.283  17.349  0.00  0.00    +0.000 A 
BRANCH  13  18
ATOM     18  C   UNL     1       5.892   5.464  15.095  0.00  0.00    +0.000 C 
BRANCH  18  20
ATOM     19  C   UNL     1       5.784   3.692  13.291  0.00  0.00    +0.000 C 
ATOM     20  C   UNL     1       6.706   4.508  14.198  0.00  0.00    +0.000 C 
ATOM     21  C   UNL     1       7.729   5.263  13.345  0.00  0.00    +0.000 C 
ENDBRANCH  18  20
ENDBRANCH  13  18
ENDBRANCH  12  17
ENDBRANCH   1  12
TORSDOF 6
ENDMDL
MODEL 9
REMARK VINA RESULT:      -6.4      2.598      5.248
REMARK  Name = 
REMARK  8 active torsions:
REMARK  status: ('A' for Active; 'I' for Inactive)
REMARK    1  A    between atoms: C_1  and  C_2
REMARK    2  A    between atoms: C_2  and  C_3
REMARK    3  A    between atoms: C_2  and  C_4
REMARK    4  A    between atoms: C_4  and  N_5
REMARK    5  A    between atoms: C_9  and  C_10
REMARK    6  A    between atoms: C_10  and  N_11
REMARK    7  A    between atoms: N_11  and  C_12
REMARK    8  A    between atoms: C_18  and  C_19
REMARK                            x       y       z     vdW  Elec       q    Type
REMARK                         _______ _______ _______ _____ _____    ______ ____
ROOT
ATOM      1  N   UNL     1       4.133   2.481  17.702  0.00  0.00    +0.000 N 
ATOM      2  H   UNL     1       4.393   1.520  17.494  0.00  0.00    +0.000 HD
ENDROOT
BRANCH   1   3
ATOM      3  C   UNL     1       3.076   2.561  18.617  0.00  0.00    +0.000 A 
ATOM      4  C   UNL     1       1.861   3.065  18.104  0.00  0.00    +0.000 A 
ATOM      5  C   UNL     1       0.738   3.285  18.913  0.00  0.00    +0.000 A 
ATOM      6  C   UNL     1       0.811   3.019  20.273  0.00  0.00    +0.000 A 
ATOM      7  C   UNL     1       2.008   2.557  20.805  0.00  0.00    +0.000 A 
ATOM      8  F   UNL     1       2.065   2.342  22.129  0.00  0.00    +0.000 F 
ATOM      9  C   UNL     1       3.139   2.349  20.008  0.00  0.00    +0.000 A 
BRANCH   9  10
ATOM     10  C   UNL     1       4.340   1.990  20.690  0.00  0.00    +0.000 C 
ATOM     11  N   UNL     1       5.301   1.674  21.264  0.00  0.00    +0.000 NA
ENDBRANCH   9  10
ENDBRANCH   1   3
BRANCH   1  12
ATOM     12  C   UNL     1       4.214   3.355  16.525  0.00  0.00    +0.000 C 
BRANCH  12  17
ATOM     13  N   UNL     1       5.788   5.186  17.399  0.00  0.00    +0.000 N 
ATOM     14  C   UNL     1       7.018   5.684  17.043  0.00  0.00    +0.000 A 
ATOM     15  C   UNL     1       7.353   5.038  15.882  0.00  0.00    +0.000 A 
ATOM     16  N   UNL     1       6.377   4.148  15.530  0.00  0.00    +0.000 NA
ATOM     17  C   UNL     1       5.442   4.230  16.463  0.00  0.00    +0.000 A 
BRANCH  13  18
ATOM     18  C   UNL     1       5.051   5.621  18.580  0.00  0.00    +0.000 C 
BRANCH  18  20
ATOM     19  C   UNL     1       2.809   6.322  19.523  0.00  0.00    +0.000 C 
ATOM     20  C   UNL     1       3.646   6.170  18.253  0.00  0.00    +0.000 C 
ATOM     21  C   UNL     1       3.719   7.512  17.520  0.00  0.00    +0.000 C 
ENDBRANCH  18  20
ENDBRANCH  13  18
ENDBRANCH  12  17
ENDBRANCH   1  12
TORSDOF 6
ENDMDL
