MODEL 1
REMARK VINA RESULT:      -7.6      0.000      0.000
REMARK  Name = 
REMARK  6 active torsions:
REMARK  status: ('A' for Active; 'I' for Inactive)
REMARK    1  A    between atoms: C_1  and  C_2
REMARK    2  A    between atoms: C_2  and  C_3
REMARK    3  A    between atoms: C_4  and  C_5
REMARK    4  A    between atoms: C_5  and  N_6
REMARK    5  A    between atoms: C_15  and  C_17
REMARK    6  A    between atoms: C_17  and  N_18
REMARK                            x       y       z     vdW  Elec       q    Type
REMARK                         _______ _______ _______ _____ _____    ______ ____
ROOT
ATOM      1  N   UNL     1       6.000   5.155  14.689  0.00  0.00    +0.000 N 
ATOM      2  C   UNL     1       5.605   6.304  15.365  0.00  0.00    +0.000 C 
ATOM      3  O   UNL     1       5.025   7.248  14.840  0.00  0.00    +0.000 OA
ATOM      4  C   UNL     1       5.826   6.232  16.865  0.00  0.00    +0.000 C 
ATOM      5  C   UNL     1       7.216   5.728  17.254  0.00  0.00    +0.000 C 
ATOM      6  C   UNL     1       7.733   4.638  16.326  0.00  0.00    +0.000 C 
ATOM      7  C   UNL     1       6.616   4.067  15.452  0.00  0.00    +0.000 C 
ATOM      8  C   UNL     1       5.590   3.282  16.302  0.00  0.00    +0.000 C 
ATOM      9  N   UNL     1       4.468   4.049  16.863  0.00  0.00    +0.000 N 
ATOM     10  C   UNL     1       3.355   3.293  17.259  0.00  0.00    +0.000 C 
ATOM     11  O   UNL     1       3.366   2.058  17.217  0.00  0.00    +0.000 OA
ATOM     12  C   UNL     1       4.709   5.370  17.458  0.00  0.00    +0.000 C 
ENDROOT
BRANCH   1  13
ATOM     13  C   UNL     1       5.464   4.886  13.365  0.00  0.00    +0.000 C 
BRANCH  13  17
ATOM     14  C   UNL     1       6.262   1.619  11.381  0.00  0.00    +0.000 C 
ATOM     15  C   UNL     1       5.502   2.820  11.878  0.00  0.00    +0.000 C 
ATOM     16  C   UNL     1       4.171   3.101  11.242  0.00  0.00    +0.000 C 
ATOM     17  C   UNL     1       6.036   3.606  12.834  0.00  0.00    +0.000 C 
ENDBRANCH  13  17
ENDBRANCH   1  13
BRANCH  10  18
ATOM     18  C   UNL     1       2.071   4.023  17.692  0.00  0.00    +0.000 C 
BRANCH  18  19
ATOM     19  N   UNL     1       1.699   3.699  19.076  0.00  0.00    +0.000 N 
ATOM     20  C   UNL     1       2.319   4.368  20.115  0.00  0.00    +0.000 A 
ATOM     21  C   UNL     1       2.113   4.036  21.390  0.00  0.00    +0.000 A 
ATOM     22  C   UNL     1       1.209   2.915  21.693  0.00  0.00    +0.000 A 
ATOM     23  O   UNL     1       1.082   2.498  22.837  0.00  0.00    +0.000 OA
ATOM     24  N   UNL     1       0.534   2.397  20.627  0.00  0.00    +0.000 N 
ATOM     25  C   UNL     1       0.743   2.718  19.310  0.00  0.00    +0.000 A 
ATOM     26  O   UNL     1       0.117   2.142  18.424  0.00  0.00    +0.000 OA
ATOM     27  H   UNL     1      -0.092   1.630  20.809  0.00  0.00    +0.000 HD
ENDBRANCH  18  19
ENDBRANCH  10  18
TORSDOF 4
ENDMDL
MODEL 2
REMARK VINA RESULT:      -7.2      3.395      7.668
REMARK  Name = 
REMARK  6 active torsions:
REMARK  status: ('A' for Active; 'I' for Inactive)
REMARK    1  A    between atoms: C_1  and  C_2
REMARK    2  A    between atoms: C_2  and  C_3
REMARK    3  A    between atoms: C_4  and  C_5
REMARK    4  A    between atoms: C_5  and  N_6
REMARK    5  A    between atoms: C_15  and  C_17
REMARK    6  A    between atoms: C_17  and  N_18
REMARK                            x       y       z     vdW  Elec       q    Type
REMARK                         _______ _______ _______ _____ _____    ______ ____
ROOT
ATOM      1  N   UNL     1       1.832   5.959  19.590  0.00  0.00    +0.000 N 
ATOM      2  C   UNL     1       1.677   5.883  18.211  0.00  0.00    +0.000 C 
ATOM      3  O   UNL     1       1.614   6.858  17.469  0.00  0.00    +0.000 OA
ATOM      4  C   UNL     1       1.736   4.466  17.670  0.00  0.00    +0.000 C 
ATOM      5  C   UNL     1       0.869   3.478  18.450  0.00  0.00    +0.000 C 
ATOM      6  C   UNL     1       0.855   3.753  19.947  0.00  0.00    +0.000 C 
ATOM      7  C   UNL     1       1.972   4.716  20.352  0.00  0.00    +0.000 C 
ATOM      8  C   UNL     1       3.362   4.062  20.175  0.00  0.00    +0.000 C 
ATOM      9  N   UNL     1       4.002   4.211  18.858  0.00  0.00    +0.000 N 
ATOM     10  C   UNL     1       5.388   3.996  18.831  0.00  0.00    +0.000 C 
ATOM     11  O   UNL     1       6.002   3.618  19.834  0.00  0.00    +0.000 OA
ATOM     12  C   UNL     1       3.207   4.044  17.635  0.00  0.00    +0.000 C 
ENDROOT
BRANCH   1  13
ATOM     13  C   UNL     1       2.239   7.217  20.195  0.00  0.00    +0.000 C 
BRANCH  13  17
ATOM     14  C   UNL     1      -0.521   8.968  22.332  0.00  0.00    +0.000 C 
ATOM     15  C   UNL     1       0.518   8.761  21.263  0.00  0.00    +0.000 C 
ATOM     16  C   UNL     1       0.670   9.845  20.234  0.00  0.00    +0.000 C 
ATOM     17  C   UNL     1       1.244   7.625  21.239  0.00  0.00    +0.000 C 
ENDBRANCH  13  17
ENDBRANCH   1  13
BRANCH  10  18
ATOM     18  C   UNL     1       6.165   4.300  17.538  0.00  0.00    +0.000 C 
BRANCH  18  19
ATOM     19  N   UNL     1       6.797   5.626  17.579  0.00  0.00    +0.000 N 
ATOM     20  C   UNL     1       7.766   5.882  18.532  0.00  0.00    +0.000 A 
ATOM     21  C   UNL     1       8.289   7.097  18.697  0.00  0.00    +0.000 A 
ATOM     22  C   UNL     1       7.806   8.197  17.848  0.00  0.00    +0.000 A 
ATOM     23  O   UNL     1       8.168   9.350  18.043  0.00  0.00    +0.000 OA
ATOM     24  N   UNL     1       6.953   7.838  16.846  0.00  0.00    +0.000 N 
ATOM     25  C   UNL     1       6.397   6.597  16.670  0.00  0.00    +0.000 A 
ATOM     26  O   UNL     1       5.590   6.402  15.764  0.00  0.00    +0.000 OA
ATOM     27  H   UNL     1       6.610   8.574  16.250  0.00  0.00    +0.000 HD
ENDBRANCH  18  19
ENDBRANCH  10  18
TORSDOF 4
ENDMDL
MODEL 3
REMARK VINA RESULT:      -7.1      2.846      5.333
REMARK  Name = 
REMARK  6 active torsions:
REMARK  status: ('A' for Active; 'I' for Inactive)
REMARK    1  A    between atoms: C_1  and  C_2
REMARK    2  A    between atoms: C_2  and  C_3
REMARK    3  A    between atoms: C_4  and  C_5
REMARK    4  A    between atoms: C_5  and  N_6
REMARK    5  A    between atoms: C_15  and  C_17
REMARK    6  A    between atoms: C_17  and  N_18
REMARK                            x       y       z     vdW  Elec       q    Type
REMARK                         _______ _______ _______ _____ _____    ______ ____
ROOT
ATOM      1  N   UNL     1       7.801   6.571  17.949  0.00  0.00    +0.000 N 
ATOM      2  C   UNL     1       7.596   5.350  18.581  0.00  0.00    +0.000 C 
ATOM      3  O   UNL     1       8.059   5.055  19.677  0.00  0.00    +0.000 OA
ATOM      4  C   UNL     1       6.614   4.448  17.856  0.00  0.00    +0.000 C 
ATOM      5  C   UNL     1       6.882   4.335  16.356  0.00  0.00    +0.000 C 
ATOM      6  C   UNL     1       7.360   5.640  15.737  0.00  0.00    +0.000 C 
ATOM      7  C   UNL     1       7.125   6.825  16.675  0.00  0.00    +0.000 C 
ATOM      8  C   UNL     1       5.614   7.106  16.848  0.00  0.00    +0.000 C 
ATOM      9  N   UNL     1       4.926   6.387  17.932  0.00  0.00    +0.000 N 
ATOM     10  C   UNL     1       3.705   6.939  18.345  0.00  0.00    +0.000 C 
ATOM     11  O   UNL     1       3.209   7.912  17.768  0.00  0.00    +0.000 OA
ATOM     12  C   UNL     1       5.203   4.962  18.155  0.00  0.00    +0.000 C 
ENDROOT
BRANCH   1  13
ATOM     13  C   UNL     1       8.338   7.688  18.709  0.00  0.00    +0.000 C 
BRANCH  13  17
ATOM     14  C   UNL     1       8.337  11.358  17.377  0.00  0.00    +0.000 C 
ATOM     15  C   UNL     1       8.576  10.189  18.294  0.00  0.00    +0.000 C 
ATOM     16  C   UNL     1       9.377  10.444  19.539  0.00  0.00    +0.000 C 
ATOM     17  C   UNL     1       8.103   8.969  17.967  0.00  0.00    +0.000 C 
ENDBRANCH  13  17
ENDBRANCH   1  13
BRANCH  10  18
ATOM     18  C   UNL     1       3.004   6.357  19.586  0.00  0.00    +0.000 C 
BRANCH  18  19
ATOM     19  N   UNL     1       2.345   5.077  19.291  0.00  0.00    +0.000 N 
ATOM     20  C   UNL     1       1.998   4.783  17.986  0.00  0.00    +0.000 A 
ATOM     21  C   UNL     1       1.293   3.695  17.672  0.00  0.00    +0.000 A 
ATOM     22  C   UNL     1       0.864   2.793  18.752  0.00  0.00    +0.000 A 
ATOM     23  O   UNL     1       0.116   1.850  18.527  0.00  0.00    +0.000 OA
ATOM     24  N   UNL     1       1.360   3.079  19.991  0.00  0.00    +0.000 N 
ATOM     25  C   UNL     1       2.074   4.198  20.332  0.00  0.00    +0.000 A 
ATOM     26  O   UNL     1       2.420   4.381  21.497  0.00  0.00    +0.000 OA
ATOM     27  H   UNL     1       1.081   2.474  20.746  0.00  0.00    +0.000 HD
ENDBRANCH  18  19
ENDBRANCH  10  18
TORSDOF 4
ENDMDL
MODEL 4
REMARK VINA RESULT:      -7.0      3.842      5.313
REMARK  Name = 
REMARK  6 active torsions:
REMARK  status: ('A' for Active; 'I' for Inactive)
REMARK    1  A    between atoms: C_1  and  C_2
REMARK    2  A    between atoms: C_2  and  C_3
REMARK    3  A    between atoms: C_4  and  C_5
REMARK    4  A    between atoms: C_5  and  N_6
REMARK    5  A    between atoms: C_15  and  C_17
REMARK    6  A    between atoms: C_17  and  N_18
REMARK                            x       y       z     vdW  Elec       q    Type
REMARK                         _______ _______ _______ _____ _____    ______ ____
ROOT
ATOM      1  N   UNL     1       5.720   4.461  16.945  0.00  0.00    +0.000 N 
ATOM      2  C   UNL     1       5.680   5.588  16.132  0.00  0.00    +0.000 C 
ATOM      3  O   UNL     1       5.317   5.581  14.960  0.00  0.00    +0.000 OA
ATOM      4  C   UNL     1       5.990   6.879  16.867  0.00  0.00    +0.000 C 
ATOM      5  C   UNL     1       7.234   6.794  17.752  0.00  0.00    +0.000 C 
ATOM      6  C   UNL     1       7.389   5.441  18.431  0.00  0.00    +0.000 C 
ATOM      7  C   UNL     1       6.100   4.622  18.350  0.00  0.00    +0.000 C 
ATOM      8  C   UNL     1       4.978   5.263  19.200  0.00  0.00    +0.000 C 
ATOM      9  N   UNL     1       4.131   6.265  18.533  0.00  0.00    +0.000 N 
ATOM     10  C   UNL     1       2.898   6.521  19.150  0.00  0.00    +0.000 C 
ATOM     11  O   UNL     1       2.596   6.002  20.229  0.00  0.00    +0.000 OA
ATOM     12  C   UNL     1       4.742   7.275  17.660  0.00  0.00    +0.000 C 
ENDROOT
BRANCH   1  13
ATOM     13  C   UNL     1       5.034   3.252  16.523  0.00  0.00    +0.000 C 
BRANCH  13  17
ATOM     14  C   UNL     1       1.530   2.831  18.194  0.00  0.00    +0.000 C 
ATOM     15  C   UNL     1       2.966   2.557  17.837  0.00  0.00    +0.000 C 
ATOM     16  C   UNL     1       3.655   1.440  18.567  0.00  0.00    +0.000 C 
ATOM     17  C   UNL     1       3.590   3.321  16.917  0.00  0.00    +0.000 C 
ENDBRANCH  13  17
ENDBRANCH   1  13
BRANCH  10  18
ATOM     18  C   UNL     1       1.876   7.421  18.431  0.00  0.00    +0.000 C 
BRANCH  18  19
ATOM     19  N   UNL     1       1.594   8.645  19.192  0.00  0.00    +0.000 N 
ATOM     20  C   UNL     1       1.248   8.544  20.527  0.00  0.00    +0.000 A 
ATOM     21  C   UNL     1       0.866   9.605  21.238  0.00  0.00    +0.000 A 
ATOM     22  C   UNL     1       0.798  10.916  20.574  0.00  0.00    +0.000 A 
ATOM     23  O   UNL     1       0.339  11.893  21.152  0.00  0.00    +0.000 OA
ATOM     24  N   UNL     1       1.283  10.957  19.300  0.00  0.00    +0.000 N 
ATOM     25  C   UNL     1       1.668   9.875  18.551  0.00  0.00    +0.000 A 
ATOM     26  O   UNL     1       2.034  10.025  17.387  0.00  0.00    +0.000 OA
ATOM     27  H   UNL     1       1.249  11.845  18.825  0.00  0.00    +0.000 HD
ENDBRANCH  18  19
ENDBRANCH  10  18
TORSDOF 4
ENDMDL
MODEL 5
REMARK VINA RESULT:      -7.0      4.471      6.784
REMARK  Name = 
REMARK  6 active torsions:
REMARK  status: ('A' for Active; 'I' for Inactive)
REMARK    1  A    between atoms: C_1  and  C_2
REMARK    2  A    between atoms: C_2  and  C_3
REMARK    3  A    between atoms: C_4  and  C_5
REMARK    4  A    between atoms: C_5  and  N_6
REMARK    5  A    between atoms: C_15  and  C_17
REMARK    6  A    between atoms: C_17  and  N_18
REMARK                            x       y       z     vdW  Elec       q    Type
REMARK                         _______ _______ _______ _____ _____    ______ ____
ROOT
ATOM      1  N   UNL     1       3.533   3.618  19.381  0.00  0.00    +0.000 N 
ATOM      2  C   UNL     1       2.734   3.340  20.484  0.00  0.00    +0.000 C 
ATOM      3  O   UNL     1       3.165   2.975  21.573  0.00  0.00    +0.000 OA
ATOM      4  C   UNL     1       1.268   3.670  20.272  0.00  0.00    +0.000 C 
ATOM      5  C   UNL     1       0.709   3.143  18.950  0.00  0.00    +0.000 C 
ATOM      6  C   UNL     1       1.710   3.223  17.807  0.00  0.00    +0.000 C 
ATOM      7  C   UNL     1       2.896   4.122  18.162  0.00  0.00    +0.000 C 
ATOM      8  C   UNL     1       2.457   5.599  18.286  0.00  0.00    +0.000 C 
ATOM      9  N   UNL     1       1.998   6.045  19.611  0.00  0.00    +0.000 N 
ATOM     10  C   UNL     1       2.005   7.432  19.819  0.00  0.00    +0.000 C 
ATOM     11  O   UNL     1       2.294   8.219  18.912  0.00  0.00    +0.000 OA
ATOM     12  C   UNL     1       1.109   5.187  20.404  0.00  0.00    +0.000 C 
ENDROOT
BRANCH   1  13
ATOM     13  C   UNL     1       4.966   3.782  19.560  0.00  0.00    +0.000 C 
BRANCH  13  17
ATOM     14  C   UNL     1       7.273   5.046  16.674  0.00  0.00    +0.000 C 
ATOM     15  C   UNL     1       6.685   4.903  18.052  0.00  0.00    +0.000 C 
ATOM     16  C   UNL     1       7.366   5.639  19.170  0.00  0.00    +0.000 C 
ATOM     17  C   UNL     1       5.609   4.114  18.247  0.00  0.00    +0.000 C 
ENDBRANCH  13  17
ENDBRANCH   1  13
BRANCH  10  18
ATOM     18  C   UNL     1       1.709   7.977  21.228  0.00  0.00    +0.000 C 
BRANCH  18  19
ATOM     19  N   UNL     1       0.743   9.083  21.194  0.00  0.00    +0.000 N 
ATOM     20  C   UNL     1       0.095   9.376  20.008  0.00  0.00    +0.000 A 
ATOM     21  C   UNL     1      -0.701  10.439  19.883  0.00  0.00    +0.000 A 
ATOM     22  C   UNL     1      -0.879  11.331  21.041  0.00  0.00    +0.000 A 
ATOM     23  O   UNL     1      -1.501  12.380  20.938  0.00  0.00    +0.000 OA
ATOM     24  N   UNL     1      -0.318  10.901  22.207  0.00  0.00    +0.000 N 
ATOM     25  C   UNL     1       0.512   9.819  22.350  0.00  0.00    +0.000 A 
ATOM     26  O   UNL     1       1.011   9.560  23.443  0.00  0.00    +0.000 OA
ATOM     27  H   UNL     1      -0.428  11.494  23.014  0.00  0.00    +0.000 HD
ENDBRANCH  18  19
ENDBRANCH  10  18
TORSDOF 4
ENDMDL
MODEL 6
REMARK VINA RESULT:      -6.9      9.215     10.751
REMARK  Name = 
REMARK  6 active torsions:
REMARK  status: ('A' for Active; 'I' for Inactive)
REMARK    1  A    between atoms: C_1  and  C_2
REMARK    2  A    between atoms: C_2  and  C_3
REMARK    3  A    between atoms: C_4  and  C_5
REMARK    4  A    between atoms: C_5  and  N_6
REMARK    5  A    between atoms: C_15  and  C_17
REMARK    6  A    between atoms: C_17  and  N_18
REMARK                            x       y       z     vdW  Elec       q    Type
REMARK                         _______ _______ _______ _____ _____    ______ ____
ROOT
ATOM      1  N   UNL     1      -0.826  10.716  18.557  0.00  0.00    +0.000 N 
ATOM      2  C   UNL     1      -0.621  12.086  18.432  0.00  0.00    +0.000 C 
ATOM      3  O   UNL     1      -1.397  12.851  17.870  0.00  0.00    +0.000 OA
ATOM      4  C   UNL     1       0.595  12.589  19.188  0.00  0.00    +0.000 C 
ATOM      5  C   UNL     1       1.850  11.748  18.956  0.00  0.00    +0.000 C 
ATOM      6  C   UNL     1       1.555  10.261  18.836  0.00  0.00    +0.000 C 
ATOM      7  C   UNL     1       0.143   9.927  19.322  0.00  0.00    +0.000 C 
ATOM      8  C   UNL     1       0.013  10.142  20.847  0.00  0.00    +0.000 C 
ATOM      9  N   UNL     1      -0.380  11.487  21.297  0.00  0.00    +0.000 N 
ATOM     10  C   UNL     1      -0.892  11.564  22.600  0.00  0.00    +0.000 C 
ATOM     11  O   UNL     1      -0.920  10.577  23.342  0.00  0.00    +0.000 OA
ATOM     12  C   UNL     1       0.219  12.672  20.670  0.00  0.00    +0.000 C 
ENDROOT
BRANCH   1  13
ATOM     13  C   UNL     1      -2.142  10.163  18.284  0.00  0.00    +0.000 C 
BRANCH  13  17
ATOM     14  C   UNL     1      -3.121  10.047  14.506  0.00  0.00    +0.000 C 
ATOM     15  C   UNL     1      -3.193  10.370  15.974  0.00  0.00    +0.000 C 
ATOM     16  C   UNL     1      -4.294  11.289  16.422  0.00  0.00    +0.000 C 
ATOM     17  C   UNL     1      -2.276   9.863  16.822  0.00  0.00    +0.000 C 
ENDBRANCH  13  17
ENDBRANCH   1  13
BRANCH  10  18
ATOM     18  C   UNL     1      -1.489  12.896  23.090  0.00  0.00    +0.000 C 
BRANCH  18  19
ATOM     19  N   UNL     1      -2.951  12.822  23.226  0.00  0.00    +0.000 N 
ATOM     20  C   UNL     1      -3.507  12.736  24.488  0.00  0.00    +0.000 A 
ATOM     21  C   UNL     1      -4.814  12.546  24.671  0.00  0.00    +0.000 A 
ATOM     22  C   UNL     1      -5.682  12.410  23.491  0.00  0.00    +0.000 A 
ATOM     23  O   UNL     1      -6.865  12.116  23.608  0.00  0.00    +0.000 OA
ATOM     24  N   UNL     1      -5.082  12.641  22.288  0.00  0.00    +0.000 N 
ATOM     25  C   UNL     1      -3.739  12.825  22.082  0.00  0.00    +0.000 A 
ATOM     26  O   UNL     1      -3.300  12.964  20.943  0.00  0.00    +0.000 OA
ATOM     27  H   UNL     1      -5.657  12.555  21.465  0.00  0.00    +0.000 HD
ENDBRANCH  18  19
ENDBRANCH  10  18
TORSDOF 4
ENDMDL
MODEL 7
REMARK VINA RESULT:      -6.9      4.574      6.712
REMARK  Name = 
REMARK  6 active torsions:
REMARK  status: ('A' for Active; 'I' for Inactive)
REMARK    1  A    between atoms: C_1  and  C_2
REMARK    2  A    between atoms: C_2  and  C_3
REMARK    3  A    between atoms: C_4  and  C_5
REMARK    4  A    between atoms: C_5  and  N_6
REMARK    5  A    between atoms: C_15  and  C_17
REMARK    6  A    between atoms: C_17  and  N_18
REMARK                            x       y       z     vdW  Elec       q    Type
REMARK                         _______ _______ _______ _____ _____    ______ ____
ROOT
ATOM      1  N   UNL     1       4.231   4.119  18.140  0.00  0.00    +0.000 N 
ATOM      2  C   UNL     1       4.546   4.678  16.907  0.00  0.00    +0.000 C 
ATOM      3  O   UNL     1       4.178   4.224  15.829  0.00  0.00    +0.000 OA
ATOM      4  C   UNL     1       5.277   6.005  17.010  0.00  0.00    +0.000 C 
ATOM      5  C   UNL     1       6.441   5.985  18.000  0.00  0.00    +0.000 C 
ATOM      6  C   UNL     1       6.158   5.142  19.234  0.00  0.00    +0.000 C 
ATOM      7  C   UNL     1       4.670   4.808  19.356  0.00  0.00    +0.000 C 
ATOM      8  C   UNL     1       3.837   6.075  19.656  0.00  0.00    +0.000 C 
ATOM      9  N   UNL     1       3.352   6.839  18.496  0.00  0.00    +0.000 N 
ATOM     10  C   UNL     1       2.283   7.711  18.750  0.00  0.00    +0.000 C 
ATOM     11  O   UNL     1       1.849   7.884  19.894  0.00  0.00    +0.000 OA
ATOM     12  C   UNL     1       4.242   7.080  17.354  0.00  0.00    +0.000 C 
ENDROOT
BRANCH   1  13
ATOM     13  C   UNL     1       3.179   3.121  18.223  0.00  0.00    +0.000 C 
BRANCH  13  17
ATOM     14  C   UNL     1       1.782   2.489  21.815  0.00  0.00    +0.000 C 
ATOM     15  C   UNL     1       1.902   3.056  20.425  0.00  0.00    +0.000 C 
ATOM     16  C   UNL     1       0.793   3.952  19.951  0.00  0.00    +0.000 C 
ATOM     17  C   UNL     1       2.958   2.731  19.654  0.00  0.00    +0.000 C 
ENDBRANCH  13  17
ENDBRANCH   1  13
BRANCH  10  18
ATOM     18  C   UNL     1       1.598   8.418  17.566  0.00  0.00    +0.000 C 
BRANCH  18  19
ATOM     19  N   UNL     1       1.277   9.818  17.877  0.00  0.00    +0.000 N 
ATOM     20  C   UNL     1       2.307  10.707  18.121  0.00  0.00    +0.000 A 
ATOM     21  C   UNL     1       2.078  11.957  18.524  0.00  0.00    +0.000 A 
ATOM     22  C   UNL     1       0.687  12.393  18.727  0.00  0.00    +0.000 A 
ATOM     23  O   UNL     1       0.434  13.489  19.209  0.00  0.00    +0.000 OA
ATOM     24  N   UNL     1      -0.271  11.505  18.335  0.00  0.00    +0.000 N 
ATOM     25  C   UNL     1      -0.054  10.213  17.931  0.00  0.00    +0.000 A 
ATOM     26  O   UNL     1      -1.002   9.480  17.658  0.00  0.00    +0.000 OA
ATOM     27  H   UNL     1      -1.232  11.782  18.462  0.00  0.00    +0.000 HD
ENDBRANCH  18  19
ENDBRANCH  10  18
TORSDOF 4
ENDMDL
MODEL 8
REMARK VINA RESULT:      -6.9      3.984      5.169
REMARK  Name = 
REMARK  6 active torsions:
REMARK  status: ('A' for Active; 'I' for Inactive)
REMARK    1  A    between atoms: C_1  and  C_2
REMARK    2  A    between atoms: C_2  and  C_3
REMARK    3  A    between atoms: C_4  and  C_5
REMARK    4  A    between atoms: C_5  and  N_6
REMARK    5  A    between atoms: C_15  and  C_17
REMARK    6  A    between atoms: C_17  and  N_18
REMARK                            x       y       z     vdW  Elec       q    Type
REMARK                         _______ _______ _______ _____ _____    ______ ____
ROOT
ATOM      1  N   UNL     1       5.226   4.079  17.241  0.00  0.00    +0.000 N 
ATOM      2  C   UNL     1       5.698   4.275  18.534  0.00  0.00    +0.000 C 
ATOM      3  O   UNL     1       6.775   4.794  18.804  0.00  0.00    +0.000 OA
ATOM      4  C   UNL     1       4.689   3.917  19.610  0.00  0.00    +0.000 C 
ATOM      5  C   UNL     1       4.018   2.561  19.391  0.00  0.00    +0.000 C 
ATOM      6  C   UNL     1       3.748   2.261  17.924  0.00  0.00    +0.000 C 
ATOM      7  C   UNL     1       3.886   3.516  17.060  0.00  0.00    +0.000 C 
ATOM      8  C   UNL     1       2.766   4.535  17.374  0.00  0.00    +0.000 C 
ATOM      9  N   UNL     1       3.033   5.504  18.448  0.00  0.00    +0.000 N 
ATOM     10  C   UNL     1       2.224   6.650  18.445  0.00  0.00    +0.000 C 
ATOM     11  O   UNL     1       1.294   6.781  17.642  0.00  0.00    +0.000 OA
ATOM     12  C   UNL     1       3.673   5.059  19.693  0.00  0.00    +0.000 C 
ENDROOT
BRANCH   1  13
ATOM     13  C   UNL     1       5.868   4.769  16.135  0.00  0.00    +0.000 C 
BRANCH  13  17
ATOM     14  C   UNL     1       5.815   3.308  12.514  0.00  0.00    +0.000 C 
ATOM     15  C   UNL     1       6.231   4.146  13.693  0.00  0.00    +0.000 C 
ATOM     16  C   UNL     1       7.453   5.004  13.528  0.00  0.00    +0.000 C 
ATOM     17  C   UNL     1       5.533   4.084  14.844  0.00  0.00    +0.000 C 
ENDBRANCH  13  17
ENDBRANCH   1  13
BRANCH  10  18
ATOM     18  C   UNL     1       2.547   7.795  19.421  0.00  0.00    +0.000 C 
BRANCH  18  19
ATOM     19  N   UNL     1       1.535   8.859  19.370  0.00  0.00    +0.000 N 
ATOM     20  C   UNL     1       0.605   8.955  20.388  0.00  0.00    +0.000 A 
ATOM     21  C   UNL     1      -0.408   9.820  20.338  0.00  0.00    +0.000 A 
ATOM     22  C   UNL     1      -0.543  10.686  19.156  0.00  0.00    +0.000 A 
ATOM     23  O   UNL     1      -1.521  11.408  19.012  0.00  0.00    +0.000 OA
ATOM     24  N   UNL     1       0.486  10.628  18.262  0.00  0.00    +0.000 N 
ATOM     25  C   UNL     1       1.527   9.736  18.292  0.00  0.00    +0.000 A 
ATOM     26  O   UNL     1       2.369   9.736  17.397  0.00  0.00    +0.000 OA
ATOM     27  H   UNL     1       0.417  11.213  17.446  0.00  0.00    +0.000 HD
ENDBRANCH  18  19
ENDBRANCH  10  18
TORSDOF 4
ENDMDL
MODEL 9
REMARK VINA RESULT:      -6.9      2.600      7.521
REMARK  Name = 
REMARK  6 active torsions:
REMARK  status: ('A' for Active; 'I' for Inactive)
REMARK    1  A    between atoms: C_1  and  C_2
REMARK    2  A    between atoms: C_2  and  C_3
REMARK    3  A    between atoms: C_4  and  C_5
REMARK    4  A    between atoms: C_5  and  N_6
REMARK    5  A    between atoms: C_15  and  C_17
REMARK    6  A    between atoms: C_17  and  N_18
REMARK                            x       y       z     vdW  Elec       q    Type
REMARK                         _______ _______ _______ _____ _____    ______ ____
ROOT
ATOM      1  N   UNL     1       3.119   4.351  19.292  0.00  0.00    +0.000 N 
ATOM      2  C   UNL     1       2.317   4.016  18.207  0.00  0.00    +0.000 C 
ATOM      3  O   UNL     1       1.289   4.609  17.899  0.00  0.00    +0.000 OA
ATOM      4  C   UNL     1       2.904   2.923  17.333  0.00  0.00    +0.000 C 
ATOM      5  C   UNL     1       3.419   1.719  18.122  0.00  0.00    +0.000 C 
ATOM      6  C   UNL     1       4.067   2.108  19.443  0.00  0.00    +0.000 C 
ATOM      7  C   UNL     1       4.364   3.608  19.503  0.00  0.00    +0.000 C 
ATOM      8  C   UNL     1       5.468   3.998  18.494  0.00  0.00    +0.000 C 
ATOM      9  N   UNL     1       5.030   4.356  17.135  0.00  0.00    +0.000 N 
ATOM     10  C   UNL     1       5.951   5.091  16.376  0.00  0.00    +0.000 C 
ATOM     11  O   UNL     1       7.086   5.336  16.798  0.00  0.00    +0.000 OA
ATOM     12  C   UNL     1       3.996   3.557  16.466  0.00  0.00    +0.000 C 
ENDROOT
BRANCH   1  13
ATOM     13  C   UNL     1       2.934   5.636  19.946  0.00  0.00    +0.000 C 
BRANCH  13  17
ATOM     14  C   UNL     1       2.224   8.927  17.970  0.00  0.00    +0.000 C 
ATOM     15  C   UNL     1       2.177   7.905  19.073  0.00  0.00    +0.000 C 
ATOM     16  C   UNL     1       1.454   8.286  20.333  0.00  0.00    +0.000 C 
ATOM     17  C   UNL     1       2.795   6.717  18.918  0.00  0.00    +0.000 C 
ENDBRANCH  13  17
ENDBRANCH   1  13
BRANCH  10  18
ATOM     18  C   UNL     1       5.513   5.658  15.013  0.00  0.00    +0.000 C 
BRANCH  18  19
ATOM     19  N   UNL     1       5.959   4.809  13.900  0.00  0.00    +0.000 N 
ATOM     20  C   UNL     1       5.061   3.934  13.317  0.00  0.00    +0.000 A 
ATOM     21  C   UNL     1       5.436   3.056  12.386  0.00  0.00    +0.000 A 
ATOM     22  C   UNL     1       6.850   3.013  11.981  0.00  0.00    +0.000 A 
ATOM     23  O   UNL     1       7.262   2.146  11.221  0.00  0.00    +0.000 OA
ATOM     24  N   UNL     1       7.642   3.995  12.500  0.00  0.00    +0.000 N 
ATOM     25  C   UNL     1       7.276   4.896  13.466  0.00  0.00    +0.000 A 
ATOM     26  O   UNL     1       8.094   5.702  13.904  0.00  0.00    +0.000 OA
ATOM     27  H   UNL     1       8.614   3.987  12.236  0.00  0.00    +0.000 HD
ENDBRANCH  18  19
ENDBRANCH  10  18
TORSDOF 4
ENDMDL
