MODEL 1
REMARK VINA RESULT:      -7.3      0.000      0.000
REMARK  Name = 
REMARK  3 active torsions:
REMARK  status: ('A' for Active; 'I' for Inactive)
REMARK    1  A    between atoms: O_1  and  C_2
REMARK    2  A    between atoms: C_20  and  O_21
REMARK    3  A    between atoms: C_30  and  O_31
REMARK                            x       y       z     vdW  Elec       q    Type
REMARK                         _______ _______ _______ _____ _____    ______ ____
ROOT
ATOM      1  C   UNL     1      -6.585  16.651  23.163  0.00  0.00    +0.000 A 
ATOM      2  C   UNL     1      -5.724  17.584  23.829  0.00  0.00    +0.000 A 
ATOM      3  C   UNL     1      -4.589  17.171  24.498  0.00  0.00    +0.000 A 
ATOM      4  C   UNL     1      -4.342  15.800  24.470  0.00  0.00    +0.000 A 
ATOM      5  C   UNL     1      -5.303  14.862  23.835  0.00  0.00    +0.000 A 
ATOM      6  C   UNL     1      -6.336  15.266  22.967  0.00  0.00    +0.000 A 
ATOM      7  O   UNL     1      -6.142  14.868  21.573  0.00  0.00    +0.000 OA
ATOM      8  C   UNL     1      -6.748  13.920  20.719  0.00  0.00    +0.000 A 
ATOM      9  C   UNL     1      -6.700  14.296  19.352  0.00  0.00    +0.000 A 
ATOM     10  C   UNL     1      -6.522  13.377  18.316  0.00  0.00    +0.000 A 
ATOM     11  C   UNL     1      -6.398  11.999  18.565  0.00  0.00    +0.000 A 
ATOM     12  C   UNL     1      -6.782  11.598  19.851  0.00  0.00    +0.000 A 
ATOM     13  C   UNL     1      -6.977  12.554  20.915  0.00  0.00    +0.000 A 
ATOM     14  C   UNL     1      -5.499  11.120  17.637  0.00  0.00    +0.000 C 
ATOM     15  C   UNL     1      -4.119  11.840  17.554  0.00  0.00    +0.000 C 
ATOM     16  C   UNL     1      -2.728  11.279  17.723  0.00  0.00    +0.000 A 
ATOM     17  C   UNL     1      -2.299   9.958  17.593  0.00  0.00    +0.000 A 
ATOM     18  C   UNL     1      -0.989   9.620  18.004  0.00  0.00    +0.000 A 
ATOM     19  C   UNL     1      -0.131  10.570  18.586  0.00  0.00    +0.000 A 
ATOM     20  C   UNL     1      -0.551  11.878  18.692  0.00  0.00    +0.000 A 
ATOM     21  C   UNL     1      -1.791  12.246  18.170  0.00  0.00    +0.000 A 
ATOM     22  O   UNL     1       0.135  12.752  19.522  0.00  0.00    +0.000 OA
ATOM     23  C   UNL     1      -0.402  12.918  20.797  0.00  0.00    +0.000 A 
ATOM     24  C   UNL     1      -1.546  12.243  21.224  0.00  0.00    +0.000 A 
ATOM     25  C   UNL     1      -2.108  12.537  22.438  0.00  0.00    +0.000 A 
ATOM     26  C   UNL     1      -1.585  13.567  23.244  0.00  0.00    +0.000 A 
ATOM     27  C   UNL     1      -0.388  14.182  22.899  0.00  0.00    +0.000 A 
ATOM     28  C   UNL     1       0.201  13.846  21.667  0.00  0.00    +0.000 A 
ATOM     29  C   UNL     1      -2.632  14.052  24.182  0.00  0.00    +0.000 C 
ATOM     30  C   UNL     1      -2.878  15.398  24.825  0.00  0.00    +0.000 C 
ENDROOT
BRANCH   1  31
ATOM     31  O   UNL     1      -7.917  16.980  23.442  0.00  0.00    +0.000 OA
ATOM     32  H   UNL     1      -8.151  17.647  22.774  0.00  0.00    +0.000 HD
ENDBRANCH   1  31
BRANCH  19  33
ATOM     33  O   UNL     1       1.082  10.246  19.106  0.00  0.00    +0.000 OA
ATOM     34  H   UNL     1       1.293  10.857  19.825  0.00  0.00    +0.000 HD
ENDBRANCH  19  33
BRANCH  28  35
ATOM     35  O   UNL     1       1.358  14.469  21.275  0.00  0.00    +0.000 OA
ATOM     36  H   UNL     1       1.456  15.285  21.799  0.00  0.00    +0.000 HD
ENDBRANCH  28  35
TORSDOF 3
ENDMDL
MODEL 2
REMARK VINA RESULT:      -7.1      3.146      6.750
REMARK  Name = 
REMARK  3 active torsions:
REMARK  status: ('A' for Active; 'I' for Inactive)
REMARK    1  A    between atoms: O_1  and  C_2
REMARK    2  A    between atoms: C_20  and  O_21
REMARK    3  A    between atoms: C_30  and  O_31
REMARK                            x       y       z     vdW  Elec       q    Type
REMARK                         _______ _______ _______ _____ _____    ______ ____
ROOT
ATOM      1  C   UNL     1       1.511  16.753  18.828  0.00  0.00    +0.000 A 
ATOM      2  C   UNL     1       2.375  15.953  18.011  0.00  0.00    +0.000 A 
ATOM      3  C   UNL     1       2.415  14.578  18.129  0.00  0.00    +0.000 A 
ATOM      4  C   UNL     1       1.557  14.033  19.081  0.00  0.00    +0.000 A 
ATOM      5  C   UNL     1       0.735  14.905  19.960  0.00  0.00    +0.000 A 
ATOM      6  C   UNL     1       0.510  16.274  19.717  0.00  0.00    +0.000 A 
ATOM      7  O   UNL     1      -0.862  16.600  19.331  0.00  0.00    +0.000 OA
ATOM      8  C   UNL     1      -1.941  17.255  19.964  0.00  0.00    +0.000 A 
ATOM      9  C   UNL     1      -2.819  17.890  19.048  0.00  0.00    +0.000 A 
ATOM     10  C   UNL     1      -4.201  17.947  19.234  0.00  0.00    +0.000 A 
ATOM     11  C   UNL     1      -4.817  17.389  20.367  0.00  0.00    +0.000 A 
ATOM     12  C   UNL     1      -3.943  17.074  21.417  0.00  0.00    +0.000 A 
ATOM     13  C   UNL     1      -2.513  17.029  21.221  0.00  0.00    +0.000 A 
ATOM     14  C   UNL     1      -6.253  16.783  20.253  0.00  0.00    +0.000 C 
ATOM     15  C   UNL     1      -6.218  15.799  19.045  0.00  0.00    +0.000 C 
ATOM     16  C   UNL     1      -6.716  14.378  18.946  0.00  0.00    +0.000 A 
ATOM     17  C   UNL     1      -7.667  13.730  19.734  0.00  0.00    +0.000 A 
ATOM     18  C   UNL     1      -7.828  12.331  19.603  0.00  0.00    +0.000 A 
ATOM     19  C   UNL     1      -7.019  11.574  18.737  0.00  0.00    +0.000 A 
ATOM     20  C   UNL     1      -6.096  12.221  17.944  0.00  0.00    +0.000 A 
ATOM     21  C   UNL     1      -6.021  13.613  17.973  0.00  0.00    +0.000 A 
ATOM     22  O   UNL     1      -5.095  11.489  17.323  0.00  0.00    +0.000 OA
ATOM     23  C   UNL     1      -3.873  11.453  17.989  0.00  0.00    +0.000 A 
ATOM     24  C   UNL     1      -3.663  12.098  19.209  0.00  0.00    +0.000 A 
ATOM     25  C   UNL     1      -2.410  12.142  19.760  0.00  0.00    +0.000 A 
ATOM     26  C   UNL     1      -1.303  11.602  19.077  0.00  0.00    +0.000 A 
ATOM     27  C   UNL     1      -1.494  10.861  17.917  0.00  0.00    +0.000 A 
ATOM     28  C   UNL     1      -2.790  10.790  17.379  0.00  0.00    +0.000 A 
ATOM     29  C   UNL     1      -0.050  12.232  19.570  0.00  0.00    +0.000 C 
ATOM     30  C   UNL     1       1.280  12.508  18.907  0.00  0.00    +0.000 C 
ENDROOT
BRANCH   1  31
ATOM     31  O   UNL     1       2.217  17.874  19.279  0.00  0.00    +0.000 OA
ATOM     32  H   UNL     1       2.138  18.522  18.559  0.00  0.00    +0.000 HD
ENDBRANCH   1  31
BRANCH  19  33
ATOM     33  O   UNL     1      -7.064  10.217  18.685  0.00  0.00    +0.000 OA
ATOM     34  H   UNL     1      -6.224   9.859  19.003  0.00  0.00    +0.000 HD
ENDBRANCH  19  33
BRANCH  28  35
ATOM     35  O   UNL     1      -3.005  10.106  16.210  0.00  0.00    +0.000 OA
ATOM     36  H   UNL     1      -2.511   9.267  16.254  0.00  0.00    +0.000 HD
ENDBRANCH  28  35
TORSDOF 3
ENDMDL
MODEL 3
REMARK VINA RESULT:      -7.1      0.987      1.199
REMARK  Name = 
REMARK  3 active torsions:
REMARK  status: ('A' for Active; 'I' for Inactive)
REMARK    1  A    between atoms: O_1  and  C_2
REMARK    2  A    between atoms: C_20  and  O_21
REMARK    3  A    between atoms: C_30  and  O_31
REMARK                            x       y       z     vdW  Elec       q    Type
REMARK                         _______ _______ _______ _____ _____    ______ ____
ROOT
ATOM      1  C   UNL     1      -5.414  16.668  23.913  0.00  0.00    +0.000 A 
ATOM      2  C   UNL     1      -4.336  17.533  24.293  0.00  0.00    +0.000 A 
ATOM      3  C   UNL     1      -3.085  17.038  24.603  0.00  0.00    +0.000 A 
ATOM      4  C   UNL     1      -2.948  15.655  24.511  0.00  0.00    +0.000 A 
ATOM      5  C   UNL     1      -4.113  14.790  24.190  0.00  0.00    +0.000 A 
ATOM      6  C   UNL     1      -5.325  15.273  23.660  0.00  0.00    +0.000 A 
ATOM      7  O   UNL     1      -5.574  14.883  22.273  0.00  0.00    +0.000 OA
ATOM      8  C   UNL     1      -6.465  13.990  21.638  0.00  0.00    +0.000 A 
ATOM      9  C   UNL     1      -6.793  14.382  20.315  0.00  0.00    +0.000 A 
ATOM     10  C   UNL     1      -6.988  13.468  19.277  0.00  0.00    +0.000 A 
ATOM     11  C   UNL     1      -6.887  12.082  19.485  0.00  0.00    +0.000 A 
ATOM     12  C   UNL     1      -6.905  11.687  20.830  0.00  0.00    +0.000 A 
ATOM     13  C   UNL     1      -6.717  12.639  21.899  0.00  0.00    +0.000 A 
ATOM     14  C   UNL     1      -6.359  11.160  18.339  0.00  0.00    +0.000 C 
ATOM     15  C   UNL     1      -5.020  11.789  17.853  0.00  0.00    +0.000 C 
ATOM     16  C   UNL     1      -3.681  11.137  17.610  0.00  0.00    +0.000 A 
ATOM     17  C   UNL     1      -3.397   9.794  17.366  0.00  0.00    +0.000 A 
ATOM     18  C   UNL     1      -2.049   9.365  17.378  0.00  0.00    +0.000 A 
ATOM     19  C   UNL     1      -0.997  10.249  17.679  0.00  0.00    +0.000 A 
ATOM     20  C   UNL     1      -1.280  11.579  17.897  0.00  0.00    +0.000 A 
ATOM     21  C   UNL     1      -2.591  12.035  17.759  0.00  0.00    +0.000 A 
ATOM     22  O   UNL     1      -0.326  12.395  18.485  0.00  0.00    +0.000 OA
ATOM     23  C   UNL     1      -0.454  12.577  19.861  0.00  0.00    +0.000 A 
ATOM     24  C   UNL     1      -1.465  11.972  20.607  0.00  0.00    +0.000 A 
ATOM     25  C   UNL     1      -1.627  12.283  21.930  0.00  0.00    +0.000 A 
ATOM     26  C   UNL     1      -0.825  13.265  22.543  0.00  0.00    +0.000 A 
ATOM     27  C   UNL     1       0.258  13.807  21.860  0.00  0.00    +0.000 A 
ATOM     28  C   UNL     1       0.437  13.452  20.512  0.00  0.00    +0.000 A 
ATOM     29  C   UNL     1      -1.517  13.804  23.744  0.00  0.00    +0.000 C 
ATOM     30  C   UNL     1      -1.474  15.153  24.424  0.00  0.00    +0.000 C 
ENDROOT
BRANCH   1  31
ATOM     31  O   UNL     1      -6.581  17.079  24.568  0.00  0.00    +0.000 OA
ATOM     32  H   UNL     1      -6.567  16.604  25.417  0.00  0.00    +0.000 HD
ENDBRANCH   1  31
BRANCH  19  33
ATOM     33  O   UNL     1       0.290   9.840  17.823  0.00  0.00    +0.000 OA
ATOM     34  H   UNL     1       0.506   9.797  18.765  0.00  0.00    +0.000 HD
ENDBRANCH  19  33
BRANCH  28  35
ATOM     35  O   UNL     1       1.468  14.004  19.795  0.00  0.00    +0.000 OA
ATOM     36  H   UNL     1       1.767  13.347  19.139  0.00  0.00    +0.000 HD
ENDBRANCH  28  35
TORSDOF 3
ENDMDL
MODEL 4
REMARK VINA RESULT:      -7.0      2.373      7.068
REMARK  Name = 
REMARK  3 active torsions:
REMARK  status: ('A' for Active; 'I' for Inactive)
REMARK    1  A    between atoms: O_1  and  C_2
REMARK    2  A    between atoms: C_20  and  O_21
REMARK    3  A    between atoms: C_30  and  O_31
REMARK                            x       y       z     vdW  Elec       q    Type
REMARK                         _______ _______ _______ _____ _____    ______ ____
ROOT
ATOM      1  C   UNL     1       2.346  14.979  20.489  0.00  0.00    +0.000 A 
ATOM      2  C   UNL     1       2.928  14.769  19.197  0.00  0.00    +0.000 A 
ATOM      3  C   UNL     1       2.744  13.590  18.503  0.00  0.00    +0.000 A 
ATOM      4  C   UNL     1       1.952  12.636  19.140  0.00  0.00    +0.000 A 
ATOM      5  C   UNL     1       1.434  12.867  20.513  0.00  0.00    +0.000 A 
ATOM      6  C   UNL     1       1.419  14.125  21.145  0.00  0.00    +0.000 A 
ATOM      7  O   UNL     1       0.084  14.692  21.328  0.00  0.00    +0.000 OA
ATOM      8  C   UNL     1      -0.759  14.906  22.440  0.00  0.00    +0.000 A 
ATOM      9  C   UNL     1      -1.637  16.007  22.267  0.00  0.00    +0.000 A 
ATOM     10  C   UNL     1      -2.945  16.020  22.754  0.00  0.00    +0.000 A 
ATOM     11  C   UNL     1      -3.477  14.936  23.474  0.00  0.00    +0.000 A 
ATOM     12  C   UNL     1      -2.526  14.015  23.935  0.00  0.00    +0.000 A 
ATOM     13  C   UNL     1      -1.171  14.014  23.437  0.00  0.00    +0.000 A 
ATOM     14  C   UNL     1      -4.997  14.596  23.358  0.00  0.00    +0.000 C 
ATOM     15  C   UNL     1      -5.313  14.514  21.834  0.00  0.00    +0.000 C 
ATOM     16  C   UNL     1      -6.061  13.456  21.061  0.00  0.00    +0.000 A 
ATOM     17  C   UNL     1      -6.985  12.522  21.531  0.00  0.00    +0.000 A 
ATOM     18  C   UNL     1      -7.406  11.482  20.670  0.00  0.00    +0.000 A 
ATOM     19  C   UNL     1      -6.878  11.338  19.374  0.00  0.00    +0.000 A 
ATOM     20  C   UNL     1      -5.982  12.275  18.907  0.00  0.00    +0.000 A 
ATOM     21  C   UNL     1      -5.661  13.375  19.701  0.00  0.00    +0.000 A 
ATOM     22  O   UNL     1      -5.227  11.997  17.777  0.00  0.00    +0.000 OA
ATOM     23  C   UNL     1      -3.945  11.506  18.015  0.00  0.00    +0.000 A 
ATOM     24  C   UNL     1      -3.450  11.294  19.302  0.00  0.00    +0.000 A 
ATOM     25  C   UNL     1      -2.141  10.935  19.487  0.00  0.00    +0.000 A 
ATOM     26  C   UNL     1      -1.258  10.840  18.393  0.00  0.00    +0.000 A 
ATOM     27  C   UNL     1      -1.744  10.939  17.095  0.00  0.00    +0.000 A 
ATOM     28  C   UNL     1      -3.097  11.272  16.916  0.00  0.00    +0.000 A 
ATOM     29  C   UNL     1       0.144  10.988  18.864  0.00  0.00    +0.000 C 
ATOM     30  C   UNL     1       1.391  11.527  18.200  0.00  0.00    +0.000 C 
ENDROOT
BRANCH   1  31
ATOM     31  O   UNL     1       3.296  15.576  21.326  0.00  0.00    +0.000 OA
ATOM     32  H   UNL     1       2.804  15.809  22.132  0.00  0.00    +0.000 HD
ENDBRANCH   1  31
BRANCH  19  33
ATOM     33  O   UNL     1      -7.167  10.278  18.575  0.00  0.00    +0.000 OA
ATOM     34  H   UNL     1      -8.124  10.223  18.454  0.00  0.00    +0.000 HD
ENDBRANCH  19  33
BRANCH  28  35
ATOM     35  O   UNL     1      -3.598  11.423  15.647  0.00  0.00    +0.000 OA
ATOM     36  H   UNL     1      -3.141  12.175  15.228  0.00  0.00    +0.000 HD
ENDBRANCH  28  35
TORSDOF 3
ENDMDL
MODEL 5
REMARK VINA RESULT:      -6.8      2.522      6.499
REMARK  Name = 
REMARK  3 active torsions:
REMARK  status: ('A' for Active; 'I' for Inactive)
REMARK    1  A    between atoms: O_1  and  C_2
REMARK    2  A    between atoms: C_20  and  O_21
REMARK    3  A    between atoms: C_30  and  O_31
REMARK                            x       y       z     vdW  Elec       q    Type
REMARK                         _______ _______ _______ _____ _____    ______ ____
ROOT
ATOM      1  C   UNL     1       0.658  16.998  20.406  0.00  0.00    +0.000 A 
ATOM      2  C   UNL     1       1.320  16.815  19.148  0.00  0.00    +0.000 A 
ATOM      3  C   UNL     1       1.485  15.561  18.593  0.00  0.00    +0.000 A 
ATOM      4  C   UNL     1       0.960  14.503  19.332  0.00  0.00    +0.000 A 
ATOM      5  C   UNL     1       0.351  14.732  20.668  0.00  0.00    +0.000 A 
ATOM      6  C   UNL     1      -0.026  16.000  21.152  0.00  0.00    +0.000 A 
ATOM      7  O   UNL     1      -1.470  16.197  21.264  0.00  0.00    +0.000 OA
ATOM      8  C   UNL     1      -2.378  16.293  22.341  0.00  0.00    +0.000 A 
ATOM      9  C   UNL     1      -3.514  17.087  22.039  0.00  0.00    +0.000 A 
ATOM     10  C   UNL     1      -4.793  16.796  22.517  0.00  0.00    +0.000 A 
ATOM     11  C   UNL     1      -5.036  15.693  23.354  0.00  0.00    +0.000 A 
ATOM     12  C   UNL     1      -3.889  15.122  23.921  0.00  0.00    +0.000 A 
ATOM     13  C   UNL     1      -2.567  15.437  23.432  0.00  0.00    +0.000 A 
ATOM     14  C   UNL     1      -6.403  14.941  23.272  0.00  0.00    +0.000 C 
ATOM     15  C   UNL     1      -6.631  14.609  21.767  0.00  0.00    +0.000 C 
ATOM     16  C   UNL     1      -7.038  13.309  21.117  0.00  0.00    +0.000 A 
ATOM     17  C   UNL     1      -7.690  12.217  21.687  0.00  0.00    +0.000 A 
ATOM     18  C   UNL     1      -7.784  11.013  20.949  0.00  0.00    +0.000 A 
ATOM     19  C   UNL     1      -7.192  10.879  19.681  0.00  0.00    +0.000 A 
ATOM     20  C   UNL     1      -6.567  11.967  19.113  0.00  0.00    +0.000 A 
ATOM     21  C   UNL     1      -6.584  13.193  19.777  0.00  0.00    +0.000 A 
ATOM     22  O   UNL     1      -5.727  11.784  18.025  0.00  0.00    +0.000 OA
ATOM     23  C   UNL     1      -4.369  11.691  18.323  0.00  0.00    +0.000 A 
ATOM     24  C   UNL     1      -3.879  11.764  19.627  0.00  0.00    +0.000 A 
ATOM     25  C   UNL     1      -2.529  11.798  19.856  0.00  0.00    +0.000 A 
ATOM     26  C   UNL     1      -1.617  11.829  18.784  0.00  0.00    +0.000 A 
ATOM     27  C   UNL     1      -2.065  11.649  17.481  0.00  0.00    +0.000 A 
ATOM     28  C   UNL     1      -3.451  11.578  17.260  0.00  0.00    +0.000 A 
ATOM     29  C   UNL     1      -0.323  12.404  19.241  0.00  0.00    +0.000 C 
ATOM     30  C   UNL     1       0.753  13.187  18.523  0.00  0.00    +0.000 C 
ENDROOT
BRANCH   1  31
ATOM     31  O   UNL     1       1.381  17.919  21.172  0.00  0.00    +0.000 OA
ATOM     32  H   UNL     1       1.371  18.738  20.648  0.00  0.00    +0.000 HD
ENDBRANCH   1  31
BRANCH  19  33
ATOM     33  O   UNL     1      -7.155   9.700  19.007  0.00  0.00    +0.000 OA
ATOM     34  H   UNL     1      -6.674   9.823  18.177  0.00  0.00    +0.000 HD
ENDBRANCH  19  33
BRANCH  28  35
ATOM     35  O   UNL     1      -3.930  11.448  15.981  0.00  0.00    +0.000 OA
ATOM     36  H   UNL     1      -3.808  10.521  15.704  0.00  0.00    +0.000 HD
ENDBRANCH  28  35
TORSDOF 3
ENDMDL
MODEL 6
REMARK VINA RESULT:      -6.6      1.606      8.190
REMARK  Name = 
REMARK  3 active torsions:
REMARK  status: ('A' for Active; 'I' for Inactive)
REMARK    1  A    between atoms: O_1  and  C_2
REMARK    2  A    between atoms: C_20  and  O_21
REMARK    3  A    between atoms: C_30  and  O_31
REMARK                            x       y       z     vdW  Elec       q    Type
REMARK                         _______ _______ _______ _____ _____    ______ ____
ROOT
ATOM      1  C   UNL     1      -1.933  10.927  17.259  0.00  0.00    +0.000 A 
ATOM      2  C   UNL     1      -2.699  11.124  16.064  0.00  0.00    +0.000 A 
ATOM      3  C   UNL     1      -4.072  11.270  16.100  0.00  0.00    +0.000 A 
ATOM      4  C   UNL     1      -4.647  11.223  17.368  0.00  0.00    +0.000 A 
ATOM      5  C   UNL     1      -3.824  10.939  18.572  0.00  0.00    +0.000 A 
ATOM      6  C   UNL     1      -2.417  11.006  18.593  0.00  0.00    +0.000 A 
ATOM      7  O   UNL     1      -1.878  12.115  19.378  0.00  0.00    +0.000 OA
ATOM      8  C   UNL     1      -1.202  12.221  20.613  0.00  0.00    +0.000 A 
ATOM      9  C   UNL     1      -0.340  13.346  20.679  0.00  0.00    +0.000 A 
ATOM     10  C   UNL     1      -0.149  14.089  21.845  0.00  0.00    +0.000 A 
ATOM     11  C   UNL     1      -0.792  13.754  23.049  0.00  0.00    +0.000 A 
ATOM     12  C   UNL     1      -1.358  12.473  23.075  0.00  0.00    +0.000 A 
ATOM     13  C   UNL     1      -1.542  11.703  21.867  0.00  0.00    +0.000 A 
ATOM     14  C   UNL     1      -1.200  14.881  24.052  0.00  0.00    +0.000 C 
ATOM     15  C   UNL     1      -1.993  15.937  23.225  0.00  0.00    +0.000 C 
ATOM     16  C   UNL     1      -3.316  16.600  23.523  0.00  0.00    +0.000 A 
ATOM     17  C   UNL     1      -3.956  16.753  24.753  0.00  0.00    +0.000 A 
ATOM     18  C   UNL     1      -5.292  17.218  24.777  0.00  0.00    +0.000 A 
ATOM     19  C   UNL     1      -6.002  17.480  23.592  0.00  0.00    +0.000 A 
ATOM     20  C   UNL     1      -5.358  17.348  22.381  0.00  0.00    +0.000 A 
ATOM     21  C   UNL     1      -4.004  17.015  22.354  0.00  0.00    +0.000 A 
ATOM     22  O   UNL     1      -6.103  17.299  21.211  0.00  0.00    +0.000 OA
ATOM     23  C   UNL     1      -6.380  16.023  20.726  0.00  0.00    +0.000 A 
ATOM     24  C   UNL     1      -5.952  14.864  21.374  0.00  0.00    +0.000 A 
ATOM     25  C   UNL     1      -6.138  13.639  20.791  0.00  0.00    +0.000 A 
ATOM     26  C   UNL     1      -6.698  13.531  19.503  0.00  0.00    +0.000 A 
ATOM     27  C   UNL     1      -7.231  14.653  18.879  0.00  0.00    +0.000 A 
ATOM     28  C   UNL     1      -7.069  15.901  19.504  0.00  0.00    +0.000 A 
ATOM     29  C   UNL     1      -6.298  12.239  18.886  0.00  0.00    +0.000 C 
ATOM     30  C   UNL     1      -6.086  11.818  17.450  0.00  0.00    +0.000 C 
ENDROOT
BRANCH   1  31
ATOM     31  O   UNL     1      -0.982   9.926  17.032  0.00  0.00    +0.000 OA
ATOM     32  H   UNL     1      -0.133  10.333  17.274  0.00  0.00    +0.000 HD
ENDBRANCH   1  31
BRANCH  19  33
ATOM     33  O   UNL     1      -7.321  17.803  23.580  0.00  0.00    +0.000 OA
ATOM     34  H   UNL     1      -7.773  17.319  24.285  0.00  0.00    +0.000 HD
ENDBRANCH  19  33
BRANCH  28  35
ATOM     35  O   UNL     1      -7.543  17.034  18.892  0.00  0.00    +0.000 OA
ATOM     36  H   UNL     1      -8.151  16.763  18.180  0.00  0.00    +0.000 HD
ENDBRANCH  28  35
TORSDOF 3
ENDMDL
MODEL 7
REMARK VINA RESULT:      -6.5      3.067      8.008
REMARK  Name = 
REMARK  3 active torsions:
REMARK  status: ('A' for Active; 'I' for Inactive)
REMARK    1  A    between atoms: O_1  and  C_2
REMARK    2  A    between atoms: C_20  and  O_21
REMARK    3  A    between atoms: C_30  and  O_31
REMARK                            x       y       z     vdW  Elec       q    Type
REMARK                         _______ _______ _______ _____ _____    ______ ____
ROOT
ATOM      1  C   UNL     1       1.155  11.042  18.367  0.00  0.00    +0.000 A 
ATOM      2  C   UNL     1       0.538   9.764  18.567  0.00  0.00    +0.000 A 
ATOM      3  C   UNL     1       0.150   9.336  19.821  0.00  0.00    +0.000 A 
ATOM      4  C   UNL     1       0.389  10.231  20.861  0.00  0.00    +0.000 A 
ATOM      5  C   UNL     1       1.102  11.512  20.619  0.00  0.00    +0.000 A 
ATOM      6  C   UNL     1       1.308  12.066  19.341  0.00  0.00    +0.000 A 
ATOM      7  O   UNL     1       0.539  13.281  19.080  0.00  0.00    +0.000 OA
ATOM      8  C   UNL     1       0.861  14.651  18.954  0.00  0.00    +0.000 A 
ATOM      9  C   UNL     1      -0.033  15.355  18.107  0.00  0.00    +0.000 A 
ATOM     10  C   UNL     1      -0.427  16.673  18.345  0.00  0.00    +0.000 A 
ATOM     11  C   UNL     1       0.058  17.402  19.444  0.00  0.00    +0.000 A 
ATOM     12  C   UNL     1       1.179  16.842  20.072  0.00  0.00    +0.000 A 
ATOM     13  C   UNL     1       1.590  15.482  19.812  0.00  0.00    +0.000 A 
ATOM     14  C   UNL     1      -0.852  18.469  20.134  0.00  0.00    +0.000 C 
ATOM     15  C   UNL     1      -2.205  17.758  20.439  0.00  0.00    +0.000 C 
ATOM     16  C   UNL     1      -3.013  17.732  21.713  0.00  0.00    +0.000 A 
ATOM     17  C   UNL     1      -2.986  18.628  22.781  0.00  0.00    +0.000 A 
ATOM     18  C   UNL     1      -3.675  18.297  23.972  0.00  0.00    +0.000 A 
ATOM     19  C   UNL     1      -4.340  17.067  24.119  0.00  0.00    +0.000 A 
ATOM     20  C   UNL     1      -4.383  16.194  23.054  0.00  0.00    +0.000 A 
ATOM     21  C   UNL     1      -3.818  16.569  21.836  0.00  0.00    +0.000 A 
ATOM     22  O   UNL     1      -4.756  14.875  23.264  0.00  0.00    +0.000 OA
ATOM     23  C   UNL     1      -3.708  13.970  23.421  0.00  0.00    +0.000 A 
ATOM     24  C   UNL     1      -2.369  14.359  23.383  0.00  0.00    +0.000 A 
ATOM     25  C   UNL     1      -1.376  13.416  23.413  0.00  0.00    +0.000 A 
ATOM     26  C   UNL     1      -1.685  12.042  23.411  0.00  0.00    +0.000 A 
ATOM     27  C   UNL     1      -3.003  11.625  23.558  0.00  0.00    +0.000 A 
ATOM     28  C   UNL     1      -4.013  12.603  23.564  0.00  0.00    +0.000 A 
ATOM     29  C   UNL     1      -0.526  11.265  22.900  0.00  0.00    +0.000 C 
ATOM     30  C   UNL     1      -0.428   9.951  22.159  0.00  0.00    +0.000 C 
ENDROOT
BRANCH   1  31
ATOM     31  O   UNL     1       2.234  10.895  17.487  0.00  0.00    +0.000 OA
ATOM     32  H   UNL     1       2.308  11.757  17.043  0.00  0.00    +0.000 HD
ENDBRANCH   1  31
BRANCH  19  33
ATOM     33  O   UNL     1      -4.898  16.668  25.292  0.00  0.00    +0.000 OA
ATOM     34  H   UNL     1      -4.964  17.428  25.887  0.00  0.00    +0.000 HD
ENDBRANCH  19  33
BRANCH  28  35
ATOM     35  O   UNL     1      -5.327  12.222  23.660  0.00  0.00    +0.000 OA
ATOM     36  H   UNL     1      -5.630  12.402  24.569  0.00  0.00    +0.000 HD
ENDBRANCH  28  35
TORSDOF 3
ENDMDL
MODEL 8
REMARK VINA RESULT:      -6.4      1.923      6.833
REMARK  Name = 
REMARK  3 active torsions:
REMARK  status: ('A' for Active; 'I' for Inactive)
REMARK    1  A    between atoms: O_1  and  C_2
REMARK    2  A    between atoms: C_20  and  O_21
REMARK    3  A    between atoms: C_30  and  O_31
REMARK                            x       y       z     vdW  Elec       q    Type
REMARK                         _______ _______ _______ _____ _____    ______ ____
ROOT
ATOM      1  C   UNL     1      -1.357  10.284  17.872  0.00  0.00    +0.000 A 
ATOM      2  C   UNL     1      -0.038  10.079  18.393  0.00  0.00    +0.000 A 
ATOM      3  C   UNL     1       0.731  11.130  18.852  0.00  0.00    +0.000 A 
ATOM      4  C   UNL     1       0.133  12.386  18.781  0.00  0.00    +0.000 A 
ATOM      5  C   UNL     1      -1.206  12.562  18.161  0.00  0.00    +0.000 A 
ATOM      6  C   UNL     1      -2.092  11.501  17.893  0.00  0.00    +0.000 A 
ATOM      7  O   UNL     1      -3.286  11.483  18.736  0.00  0.00    +0.000 OA
ATOM      8  C   UNL     1      -4.656  11.752  18.522  0.00  0.00    +0.000 A 
ATOM      9  C   UNL     1      -5.506  11.027  19.396  0.00  0.00    +0.000 A 
ATOM     10  C   UNL     1      -6.687  11.555  19.920  0.00  0.00    +0.000 A 
ATOM     11  C   UNL     1      -7.124  12.851  19.595  0.00  0.00    +0.000 A 
ATOM     12  C   UNL     1      -6.484  13.427  18.490  0.00  0.00    +0.000 A 
ATOM     13  C   UNL     1      -5.270  12.868  17.944  0.00  0.00    +0.000 A 
ATOM     14  C   UNL     1      -7.913  13.692  20.650  0.00  0.00    +0.000 C 
ATOM     15  C   UNL     1      -7.068  13.657  21.959  0.00  0.00    +0.000 C 
ATOM     16  C   UNL     1      -6.656  14.787  22.870  0.00  0.00    +0.000 A 
ATOM     17  C   UNL     1      -7.235  16.048  23.013  0.00  0.00    +0.000 A 
ATOM     18  C   UNL     1      -6.558  17.031  23.771  0.00  0.00    +0.000 A 
ATOM     19  C   UNL     1      -5.296  16.783  24.340  0.00  0.00    +0.000 A 
ATOM     20  C   UNL     1      -4.738  15.530  24.215  0.00  0.00    +0.000 A 
ATOM     21  C   UNL     1      -5.457  14.518  23.581  0.00  0.00    +0.000 A 
ATOM     22  O   UNL     1      -3.391  15.350  24.492  0.00  0.00    +0.000 OA
ATOM     23  C   UNL     1      -2.541  15.377  23.388  0.00  0.00    +0.000 A 
ATOM     24  C   UNL     1      -3.004  15.584  22.089  0.00  0.00    +0.000 A 
ATOM     25  C   UNL     1      -2.148  15.474  21.026  0.00  0.00    +0.000 A 
ATOM     26  C   UNL     1      -0.808  15.083  21.216  0.00  0.00    +0.000 A 
ATOM     27  C   UNL     1      -0.290  14.975  22.502  0.00  0.00    +0.000 A 
ATOM     28  C   UNL     1      -1.169  15.127  23.587  0.00  0.00    +0.000 A 
ATOM     29  C   UNL     1      -0.265  14.514  19.955  0.00  0.00    +0.000 C 
ATOM     30  C   UNL     1       0.796  13.472  19.682  0.00  0.00    +0.000 C 
ENDROOT
BRANCH   1  31
ATOM     31  O   UNL     1      -1.515   9.516  16.713  0.00  0.00    +0.000 OA
ATOM     32  H   UNL     1      -1.911  10.125  16.066  0.00  0.00    +0.000 HD
ENDBRANCH   1  31
BRANCH  19  33
ATOM     33  O   UNL     1      -4.568  17.746  24.963  0.00  0.00    +0.000 OA
ATOM     34  H   UNL     1      -3.710  17.380  25.218  0.00  0.00    +0.000 HD
ENDBRANCH  19  33
BRANCH  28  35
ATOM     35  O   UNL     1      -0.700  14.981  24.868  0.00  0.00    +0.000 OA
ATOM     36  H   UNL     1       0.150  14.506  24.827  0.00  0.00    +0.000 HD
ENDBRANCH  28  35
TORSDOF 3
ENDMDL
MODEL 9
REMARK VINA RESULT:      -6.4      2.809      7.597
REMARK  Name = 
REMARK  3 active torsions:
REMARK  status: ('A' for Active; 'I' for Inactive)
REMARK    1  A    between atoms: O_1  and  C_2
REMARK    2  A    between atoms: C_20  and  O_21
REMARK    3  A    between atoms: C_30  and  O_31
REMARK                            x       y       z     vdW  Elec       q    Type
REMARK                         _______ _______ _______ _____ _____    ______ ____
ROOT
ATOM      1  C   UNL     1       2.933  16.692  19.399  0.00  0.00    +0.000 A 
ATOM      2  C   UNL     1       3.203  16.141  18.104  0.00  0.00    +0.000 A 
ATOM      3  C   UNL     1       2.964  14.811  17.818  0.00  0.00    +0.000 A 
ATOM      4  C   UNL     1       2.438  14.058  18.866  0.00  0.00    +0.000 A 
ATOM      5  C   UNL     1       2.247  14.652  20.214  0.00  0.00    +0.000 A 
ATOM      6  C   UNL     1       2.271  16.036  20.472  0.00  0.00    +0.000 A 
ATOM      7  O   UNL     1       0.974  16.605  20.834  0.00  0.00    +0.000 OA
ATOM      8  C   UNL     1       0.407  17.105  22.027  0.00  0.00    +0.000 A 
ATOM      9  C   UNL     1      -0.582  18.095  21.798  0.00  0.00    +0.000 A 
ATOM     10  C   UNL     1      -1.730  18.218  22.582  0.00  0.00    +0.000 A 
ATOM     11  C   UNL     1      -1.973  17.368  23.675  0.00  0.00    +0.000 A 
ATOM     12  C   UNL     1      -0.861  16.632  24.105  0.00  0.00    +0.000 A 
ATOM     13  C   UNL     1       0.329  16.519  23.295  0.00  0.00    +0.000 A 
ATOM     14  C   UNL     1      -3.440  16.979  24.047  0.00  0.00    +0.000 C 
ATOM     15  C   UNL     1      -4.104  16.469  22.733  0.00  0.00    +0.000 C 
ATOM     16  C   UNL     1      -4.918  15.222  22.486  0.00  0.00    +0.000 A 
ATOM     17  C   UNL     1      -5.614  14.439  23.407  0.00  0.00    +0.000 A 
ATOM     18  C   UNL     1      -6.135  13.191  22.990  0.00  0.00    +0.000 A 
ATOM     19  C   UNL     1      -5.923  12.702  21.689  0.00  0.00    +0.000 A 
ATOM     20  C   UNL     1      -5.254  13.489  20.777  0.00  0.00    +0.000 A 
ATOM     21  C   UNL     1      -4.852  14.773  21.141  0.00  0.00    +0.000 A 
ATOM     22  O   UNL     1      -4.771  12.921  19.607  0.00  0.00    +0.000 OA
ATOM     23  C   UNL     1      -3.431  12.542  19.630  0.00  0.00    +0.000 A 
ATOM     24  C   UNL     1      -2.623  12.707  20.755  0.00  0.00    +0.000 A 
ATOM     25  C   UNL     1      -1.282  12.440  20.688  0.00  0.00    +0.000 A 
ATOM     26  C   UNL     1      -0.683  12.062  19.470  0.00  0.00    +0.000 A 
ATOM     27  C   UNL     1      -1.474  11.784  18.361  0.00  0.00    +0.000 A 
ATOM     28  C   UNL     1      -2.855  12.027  18.453  0.00  0.00    +0.000 A 
ATOM     29  C   UNL     1       0.773  12.362  19.510  0.00  0.00    +0.000 C 
ATOM     30  C   UNL     1       1.769  12.719  18.430  0.00  0.00    +0.000 C 
ENDROOT
BRANCH   1  31
ATOM     31  O   UNL     1       3.999  17.517  19.775  0.00  0.00    +0.000 OA
ATOM     32  H   UNL     1       4.488  17.680  18.950  0.00  0.00    +0.000 HD
ENDBRANCH   1  31
BRANCH  19  33
ATOM     33  O   UNL     1      -6.299  11.456  21.301  0.00  0.00    +0.000 OA
ATOM     34  H   UNL     1      -6.221  11.385  20.339  0.00  0.00    +0.000 HD
ENDBRANCH  19  33
BRANCH  28  35
ATOM     35  O   UNL     1      -3.657  11.808  17.362  0.00  0.00    +0.000 OA
ATOM     36  H   UNL     1      -3.559  10.876  17.095  0.00  0.00    +0.000 HD
ENDBRANCH  28  35
TORSDOF 3
ENDMDL
