MODEL 1
REMARK VINA RESULT:      -6.9      0.000      0.000
REMARK  Name = 
REMARK  6 active torsions:
REMARK  status: ('A' for Active; 'I' for Inactive)
REMARK    1  A    between atoms: C_3  and  C_4
REMARK    2  A    between atoms: C_4  and  O_5
REMARK    3  A    between atoms: C_7  and  N_8
REMARK    4  A    between atoms: C_12  and  S_13
REMARK    5  A    between atoms: S_13  and  C_14
REMARK    6  A    between atoms: C_20  and  O_21
REMARK                            x       y       z     vdW  Elec       q    Type
REMARK                         _______ _______ _______ _____ _____    ______ ____
ROOT
ATOM      1  N   UNL     1       5.232   4.943  17.386  0.00  0.00    +0.000 N 
ATOM      2  C   UNL     1       4.905   5.892  16.454  0.00  0.00    +0.000 A 
ATOM      3  N   UNL     1       5.691   6.943  16.514  0.00  0.00    +0.000 NA
ATOM      4  C   UNL     1       6.571   6.670  17.535  0.00  0.00    +0.000 A 
ATOM      5  C   UNL     1       7.639   7.375  18.092  0.00  0.00    +0.000 A 
ATOM      6  N   UNL     1       8.344   6.822  19.112  0.00  0.00    +0.000 NA
ATOM      7  C   UNL     1       7.974   5.609  19.562  0.00  0.00    +0.000 A 
ATOM      8  N   UNL     1       8.705   5.096  20.613  0.00  0.00    +0.000 N 
ATOM      9  N   UNL     1       6.983   4.833  19.087  0.00  0.00    +0.000 NA
ATOM     10  C   UNL     1       6.310   5.424  18.086  0.00  0.00    +0.000 A 
ATOM     11  H   UNL     1       9.624   5.513  20.646  0.00  0.00    +0.000 HD
ATOM     12  H   UNL     1       8.646   4.086  20.629  0.00  0.00    +0.000 HD
ENDROOT
BRANCH   1  17
ATOM     13  C   UNL     1       2.083   2.019  19.624  0.00  0.00    +0.000 C 
ATOM     14  C   UNL     1       2.786   2.835  18.825  0.00  0.00    +0.000 C 
ATOM     15  C   UNL     1       2.274   3.438  17.558  0.00  0.00    +0.000 C 
ATOM     16  O   UNL     1       3.426   3.566  16.708  0.00  0.00    +0.000 OA
ATOM     17  C   UNL     1       4.625   3.629  17.526  0.00  0.00    +0.000 C 
ATOM     18  C   UNL     1       4.231   3.216  18.958  0.00  0.00    +0.000 C 
BRANCH  18  19
ATOM     19  O   UNL     1       4.976   2.093  19.428  0.00  0.00    +0.000 OA
ATOM     20  H   UNL     1       5.776   2.427  19.869  0.00  0.00    +0.000 HD
ENDBRANCH  18  19
BRANCH  15  21
ATOM     21  C   UNL     1       1.573   4.793  17.777  0.00  0.00    +0.000 C 
BRANCH  21  22
ATOM     22  O   UNL     1       1.998   5.437  18.977  0.00  0.00    +0.000 OA
ATOM     23  H   UNL     1       2.829   5.019  19.264  0.00  0.00    +0.000 HD
ENDBRANCH  21  22
ENDBRANCH  15  21
ENDBRANCH   1  17
BRANCH   5  24
ATOM     24  S   UNL     1       8.018   8.975  17.433  0.00  0.00    +0.000 S 
ATOM     25  C   UNL     1       8.914   9.730  18.806  0.00  0.00    +0.000 C 
ENDBRANCH   5  24
TORSDOF 5
ENDMDL
MODEL 2
REMARK VINA RESULT:      -6.9      3.394      6.067
REMARK  Name = 
REMARK  6 active torsions:
REMARK  status: ('A' for Active; 'I' for Inactive)
REMARK    1  A    between atoms: C_3  and  C_4
REMARK    2  A    between atoms: C_4  and  O_5
REMARK    3  A    between atoms: C_7  and  N_8
REMARK    4  A    between atoms: C_12  and  S_13
REMARK    5  A    between atoms: S_13  and  C_14
REMARK    6  A    between atoms: C_20  and  O_21
REMARK                            x       y       z     vdW  Elec       q    Type
REMARK                         _______ _______ _______ _____ _____    ______ ____
ROOT
ATOM      1  N   UNL     1       4.733   4.270  17.687  0.00  0.00    +0.000 N 
ATOM      2  C   UNL     1       4.437   2.936  17.599  0.00  0.00    +0.000 A 
ATOM      3  N   UNL     1       3.356   2.619  18.275  0.00  0.00    +0.000 NA
ATOM      4  C   UNL     1       2.927   3.800  18.833  0.00  0.00    +0.000 A 
ATOM      5  C   UNL     1       1.848   4.136  19.652  0.00  0.00    +0.000 A 
ATOM      6  N   UNL     1       1.680   5.426  20.040  0.00  0.00    +0.000 NA
ATOM      7  C   UNL     1       2.578   6.339  19.628  0.00  0.00    +0.000 A 
ATOM      8  N   UNL     1       2.379   7.633  20.064  0.00  0.00    +0.000 N 
ATOM      9  N   UNL     1       3.635   6.135  18.822  0.00  0.00    +0.000 NA
ATOM     10  C   UNL     1       3.765   4.845  18.471  0.00  0.00    +0.000 A 
ATOM     11  H   UNL     1       1.411   7.784  20.305  0.00  0.00    +0.000 HD
ATOM     12  H   UNL     1       2.814   8.292  19.432  0.00  0.00    +0.000 HD
ENDROOT
BRANCH   1  17
ATOM     13  C   UNL     1       7.738   8.056  17.354  0.00  0.00    +0.000 C 
ATOM     14  C   UNL     1       7.104   6.887  17.531  0.00  0.00    +0.000 C 
ATOM     15  C   UNL     1       7.697   5.686  18.191  0.00  0.00    +0.000 C 
ATOM     16  O   UNL     1       7.081   4.558  17.545  0.00  0.00    +0.000 OA
ATOM     17  C   UNL     1       5.803   4.962  16.986  0.00  0.00    +0.000 C 
ATOM     18  C   UNL     1       5.747   6.502  17.019  0.00  0.00    +0.000 C 
BRANCH  18  19
ATOM     19  O   UNL     1       5.550   7.070  15.725  0.00  0.00    +0.000 OA
ATOM     20  H   UNL     1       5.375   8.020  15.838  0.00  0.00    +0.000 HD
ENDBRANCH  18  19
BRANCH  15  21
ATOM     21  C   UNL     1       7.472   5.664  19.715  0.00  0.00    +0.000 C 
BRANCH  21  22
ATOM     22  O   UNL     1       8.622   5.214  20.428  0.00  0.00    +0.000 OA
ATOM     23  H   UNL     1       9.230   5.968  20.525  0.00  0.00    +0.000 HD
ENDBRANCH  21  22
ENDBRANCH  15  21
ENDBRANCH   1  17
BRANCH   5  24
ATOM     24  S   UNL     1       0.745   2.842  20.151  0.00  0.00    +0.000 S 
ATOM     25  C   UNL     1       1.420   2.393  21.764  0.00  0.00    +0.000 C 
ENDBRANCH   5  24
TORSDOF 5
ENDMDL
MODEL 3
REMARK VINA RESULT:      -6.7      1.651      2.533
REMARK  Name = 
REMARK  6 active torsions:
REMARK  status: ('A' for Active; 'I' for Inactive)
REMARK    1  A    between atoms: C_3  and  C_4
REMARK    2  A    between atoms: C_4  and  O_5
REMARK    3  A    between atoms: C_7  and  N_8
REMARK    4  A    between atoms: C_12  and  S_13
REMARK    5  A    between atoms: S_13  and  C_14
REMARK    6  A    between atoms: C_20  and  O_21
REMARK                            x       y       z     vdW  Elec       q    Type
REMARK                         _______ _______ _______ _____ _____    ______ ____
ROOT
ATOM      1  N   UNL     1       4.863   4.077  18.115  0.00  0.00    +0.000 N 
ATOM      2  C   UNL     1       5.039   4.568  19.381  0.00  0.00    +0.000 A 
ATOM      3  N   UNL     1       5.969   5.494  19.433  0.00  0.00    +0.000 NA
ATOM      4  C   UNL     1       6.426   5.611  18.141  0.00  0.00    +0.000 A 
ATOM      5  C   UNL     1       7.398   6.410  17.538  0.00  0.00    +0.000 A 
ATOM      6  N   UNL     1       7.618   6.301  16.203  0.00  0.00    +0.000 NA
ATOM      7  C   UNL     1       6.893   5.406  15.506  0.00  0.00    +0.000 A 
ATOM      8  N   UNL     1       7.165   5.315  14.157  0.00  0.00    +0.000 N 
ATOM      9  N   UNL     1       5.919   4.606  15.976  0.00  0.00    +0.000 NA
ATOM     10  C   UNL     1       5.742   4.744  17.301  0.00  0.00    +0.000 A 
ATOM     11  H   UNL     1       7.583   6.169  13.818  0.00  0.00    +0.000 HD
ATOM     12  H   UNL     1       6.365   4.953  13.656  0.00  0.00    +0.000 HD
ENDROOT
BRANCH   1  17
ATOM     13  C   UNL     1       1.104   1.226  19.220  0.00  0.00    +0.000 C 
ATOM     14  C   UNL     1       1.974   2.164  18.818  0.00  0.00    +0.000 C 
ATOM     15  C   UNL     1       1.594   3.493  18.253  0.00  0.00    +0.000 C 
ATOM     16  O   UNL     1       2.642   3.823  17.326  0.00  0.00    +0.000 OA
ATOM     17  C   UNL     1       3.855   3.115  17.698  0.00  0.00    +0.000 C 
ATOM     18  C   UNL     1       3.468   2.046  18.739  0.00  0.00    +0.000 C 
BRANCH  18  19
ATOM     19  O   UNL     1       3.818   0.727  18.326  0.00  0.00    +0.000 OA
ATOM     20  H   UNL     1       3.000   0.264  18.074  0.00  0.00    +0.000 HD
ENDBRANCH  18  19
BRANCH  15  21
ATOM     21  C   UNL     1       1.424   4.580  19.332  0.00  0.00    +0.000 C 
BRANCH  21  22
ATOM     22  O   UNL     1       0.532   4.179  20.371  0.00  0.00    +0.000 OA
ATOM     23  H   UNL     1      -0.153   4.865  20.460  0.00  0.00    +0.000 HD
ENDBRANCH  21  22
ENDBRANCH  15  21
ENDBRANCH   1  17
BRANCH   5  24
ATOM     24  S   UNL     1       8.307   7.534  18.562  0.00  0.00    +0.000 S 
ATOM     25  C   UNL     1       7.974   9.113  17.752  0.00  0.00    +0.000 C 
ENDBRANCH   5  24
TORSDOF 5
ENDMDL
MODEL 4
REMARK VINA RESULT:      -6.5      4.259      5.935
REMARK  Name = 
REMARK  6 active torsions:
REMARK  status: ('A' for Active; 'I' for Inactive)
REMARK    1  A    between atoms: C_3  and  C_4
REMARK    2  A    between atoms: C_4  and  O_5
REMARK    3  A    between atoms: C_7  and  N_8
REMARK    4  A    between atoms: C_12  and  S_13
REMARK    5  A    between atoms: S_13  and  C_14
REMARK    6  A    between atoms: C_20  and  O_21
REMARK                            x       y       z     vdW  Elec       q    Type
REMARK                         _______ _______ _______ _____ _____    ______ ____
ROOT
ATOM      1  N   UNL     1       2.666   6.437  18.878  0.00  0.00    +0.000 N 
ATOM      2  C   UNL     1       2.258   5.784  20.011  0.00  0.00    +0.000 A 
ATOM      3  N   UNL     1       1.586   6.567  20.823  0.00  0.00    +0.000 NA
ATOM      4  C   UNL     1       1.556   7.790  20.195  0.00  0.00    +0.000 A 
ATOM      5  C   UNL     1       1.003   9.027  20.532  0.00  0.00    +0.000 A 
ATOM      6  N   UNL     1       1.136  10.072  19.676  0.00  0.00    +0.000 NA
ATOM      7  C   UNL     1       1.814   9.879  18.530  0.00  0.00    +0.000 A 
ATOM      8  N   UNL     1       1.941  10.974  17.701  0.00  0.00    +0.000 N 
ATOM      9  N   UNL     1       2.364   8.731  18.094  0.00  0.00    +0.000 NA
ATOM     10  C   UNL     1       2.215   7.729  18.975  0.00  0.00    +0.000 A 
ATOM     11  H   UNL     1       1.207  11.644  17.879  0.00  0.00    +0.000 HD
ATOM     12  H   UNL     1       2.089  10.682  16.745  0.00  0.00    +0.000 HD
ENDROOT
BRANCH   1  17
ATOM     13  C   UNL     1       6.628   4.380  16.994  0.00  0.00    +0.000 C 
ATOM     14  C   UNL     1       5.443   4.720  17.523  0.00  0.00    +0.000 C 
ATOM     15  C   UNL     1       4.409   3.749  17.990  0.00  0.00    +0.000 C 
ATOM     16  O   UNL     1       3.148   4.402  17.762  0.00  0.00    +0.000 OA
ATOM     17  C   UNL     1       3.347   5.840  17.739  0.00  0.00    +0.000 C 
ATOM     18  C   UNL     1       4.865   6.098  17.649  0.00  0.00    +0.000 C 
BRANCH  18  19
ATOM     19  O   UNL     1       5.222   6.869  16.503  0.00  0.00    +0.000 OA
ATOM     20  H   UNL     1       5.375   7.784  16.793  0.00  0.00    +0.000 HD
ENDBRANCH  18  19
BRANCH  15  21
ATOM     21  C   UNL     1       4.584   3.349  19.468  0.00  0.00    +0.000 C 
BRANCH  21  22
ATOM     22  O   UNL     1       5.147   2.046  19.615  0.00  0.00    +0.000 OA
ATOM     23  H   UNL     1       4.421   1.399  19.572  0.00  0.00    +0.000 HD
ENDBRANCH  21  22
ENDBRANCH  15  21
ENDBRANCH   1  17
BRANCH   5  24
ATOM     24  S   UNL     1       0.153   9.167  22.080  0.00  0.00    +0.000 S 
ATOM     25  C   UNL     1      -0.366  10.896  22.053  0.00  0.00    +0.000 C 
ENDBRANCH   5  24
TORSDOF 5
ENDMDL
MODEL 5
REMARK VINA RESULT:      -6.4      1.053      1.092
REMARK  Name = 
REMARK  6 active torsions:
REMARK  status: ('A' for Active; 'I' for Inactive)
REMARK    1  A    between atoms: C_3  and  C_4
REMARK    2  A    between atoms: C_4  and  O_5
REMARK    3  A    between atoms: C_7  and  N_8
REMARK    4  A    between atoms: C_12  and  S_13
REMARK    5  A    between atoms: S_13  and  C_14
REMARK    6  A    between atoms: C_20  and  O_21
REMARK                            x       y       z     vdW  Elec       q    Type
REMARK                         _______ _______ _______ _____ _____    ______ ____
ROOT
ATOM      1  N   UNL     1       4.778   4.977  17.982  0.00  0.00    +0.000 N 
ATOM      2  C   UNL     1       4.431   5.865  17.000  0.00  0.00    +0.000 A 
ATOM      3  N   UNL     1       5.318   6.824  16.858  0.00  0.00    +0.000 NA
ATOM      4  C   UNL     1       6.288   6.552  17.794  0.00  0.00    +0.000 A 
ATOM      5  C   UNL     1       7.482   7.184  18.147  0.00  0.00    +0.000 A 
ATOM      6  N   UNL     1       8.251   6.654  19.132  0.00  0.00    +0.000 NA
ATOM      7  C   UNL     1       7.823   5.537  19.747  0.00  0.00    +0.000 A 
ATOM      8  N   UNL     1       8.627   5.046  20.755  0.00  0.00    +0.000 N 
ATOM      9  N   UNL     1       6.709   4.834  19.473  0.00  0.00    +0.000 NA
ATOM     10  C   UNL     1       5.977   5.399  18.499  0.00  0.00    +0.000 A 
ATOM     11  H   UNL     1       9.579   5.360  20.638  0.00  0.00    +0.000 HD
ATOM     12  H   UNL     1       8.472   4.055  20.883  0.00  0.00    +0.000 HD
ENDROOT
BRANCH   1  17
ATOM     13  C   UNL     1       2.429   2.308  21.273  0.00  0.00    +0.000 C 
ATOM     14  C   UNL     1       2.854   3.097  20.276  0.00  0.00    +0.000 C 
ATOM     15  C   UNL     1       1.964   3.902  19.387  0.00  0.00    +0.000 C 
ATOM     16  O   UNL     1       2.644   3.956  18.120  0.00  0.00    +0.000 OA
ATOM     17  C   UNL     1       4.067   3.756  18.329  0.00  0.00    +0.000 C 
ATOM     18  C   UNL     1       4.259   3.249  19.772  0.00  0.00    +0.000 C 
BRANCH  18  19
ATOM     19  O   UNL     1       4.921   1.987  19.825  0.00  0.00    +0.000 OA
ATOM     20  H   UNL     1       4.321   1.318  19.454  0.00  0.00    +0.000 HD
ENDBRANCH  18  19
BRANCH  15  21
ATOM     21  C   UNL     1       1.677   5.312  19.940  0.00  0.00    +0.000 C 
BRANCH  21  22
ATOM     22  O   UNL     1       2.601   5.695  20.957  0.00  0.00    +0.000 OA
ATOM     23  H   UNL     1       3.426   5.977  20.522  0.00  0.00    +0.000 HD
ENDBRANCH  21  22
ENDBRANCH  15  21
ENDBRANCH   1  17
BRANCH   5  24
ATOM     24  S   UNL     1       7.929   8.665  17.283  0.00  0.00    +0.000 S 
ATOM     25  C   UNL     1       8.752   9.609  18.585  0.00  0.00    +0.000 C 
ENDBRANCH   5  24
TORSDOF 5
ENDMDL
MODEL 6
REMARK VINA RESULT:      -6.2      2.344      3.536
REMARK  Name = 
REMARK  6 active torsions:
REMARK  status: ('A' for Active; 'I' for Inactive)
REMARK    1  A    between atoms: C_3  and  C_4
REMARK    2  A    between atoms: C_4  and  O_5
REMARK    3  A    between atoms: C_7  and  N_8
REMARK    4  A    between atoms: C_12  and  S_13
REMARK    5  A    between atoms: S_13  and  C_14
REMARK    6  A    between atoms: C_20  and  O_21
REMARK                            x       y       z     vdW  Elec       q    Type
REMARK                         _______ _______ _______ _____ _____    ______ ____
ROOT
ATOM      1  N   UNL     1       4.751   4.315  18.024  0.00  0.00    +0.000 N 
ATOM      2  C   UNL     1       4.309   3.465  17.046  0.00  0.00    +0.000 A 
ATOM      3  N   UNL     1       4.936   3.649  15.906  0.00  0.00    +0.000 NA
ATOM      4  C   UNL     1       5.826   4.668  16.149  0.00  0.00    +0.000 A 
ATOM      5  C   UNL     1       6.771   5.323  15.358  0.00  0.00    +0.000 A 
ATOM      6  N   UNL     1       7.528   6.310  15.902  0.00  0.00    +0.000 NA
ATOM      7  C   UNL     1       7.326   6.633  17.192  0.00  0.00    +0.000 A 
ATOM      8  N   UNL     1       8.103   7.656  17.697  0.00  0.00    +0.000 N 
ATOM      9  N   UNL     1       6.465   6.056  18.050  0.00  0.00    +0.000 NA
ATOM     10  C   UNL     1       5.735   5.092  17.467  0.00  0.00    +0.000 A 
ATOM     11  H   UNL     1       8.952   7.757  17.160  0.00  0.00    +0.000 HD
ATOM     12  H   UNL     1       8.189   7.576  18.701  0.00  0.00    +0.000 HD
ENDROOT
BRANCH   1  17
ATOM     13  C   UNL     1       1.417   3.274  21.382  0.00  0.00    +0.000 C 
ATOM     14  C   UNL     1       2.453   3.360  20.535  0.00  0.00    +0.000 C 
ATOM     15  C   UNL     1       3.514   2.321  20.378  0.00  0.00    +0.000 C 
ATOM     16  O   UNL     1       4.704   3.047  20.026  0.00  0.00    +0.000 OA
ATOM     17  C   UNL     1       4.335   4.313  19.418  0.00  0.00    +0.000 C 
ATOM     18  C   UNL     1       2.830   4.530  19.675  0.00  0.00    +0.000 C 
BRANCH  18  19
ATOM     19  O   UNL     1       2.564   5.742  20.378  0.00  0.00    +0.000 OA
ATOM     20  H   UNL     1       1.953   6.274  19.839  0.00  0.00    +0.000 HD
ENDBRANCH  18  19
BRANCH  15  21
ATOM     21  C   UNL     1       3.161   1.257  19.321  0.00  0.00    +0.000 C 
BRANCH  21  22
ATOM     22  O   UNL     1       4.320   0.653  18.749  0.00  0.00    +0.000 OA
ATOM     23  H   UNL     1       4.206  -0.313  18.790  0.00  0.00    +0.000 HD
ENDBRANCH  21  22
ENDBRANCH  15  21
ENDBRANCH   1  17
BRANCH   5  24
ATOM     24  S   UNL     1       6.930   4.827  13.665  0.00  0.00    +0.000 S 
ATOM     25  C   UNL     1       8.396   5.748  13.153  0.00  0.00    +0.000 C 
ENDBRANCH   5  24
TORSDOF 5
ENDMDL
MODEL 7
REMARK VINA RESULT:      -6.2      2.393      3.469
REMARK  Name = 
REMARK  6 active torsions:
REMARK  status: ('A' for Active; 'I' for Inactive)
REMARK    1  A    between atoms: C_3  and  C_4
REMARK    2  A    between atoms: C_4  and  O_5
REMARK    3  A    between atoms: C_7  and  N_8
REMARK    4  A    between atoms: C_12  and  S_13
REMARK    5  A    between atoms: S_13  and  C_14
REMARK    6  A    between atoms: C_20  and  O_21
REMARK                            x       y       z     vdW  Elec       q    Type
REMARK                         _______ _______ _______ _____ _____    ______ ____
ROOT
ATOM      1  N   UNL     1       4.741   4.202  17.906  0.00  0.00    +0.000 N 
ATOM      2  C   UNL     1       4.426   3.229  16.996  0.00  0.00    +0.000 A 
ATOM      3  N   UNL     1       5.108   3.350  15.879  0.00  0.00    +0.000 NA
ATOM      4  C   UNL     1       5.903   4.456  16.067  0.00  0.00    +0.000 A 
ATOM      5  C   UNL     1       6.845   5.104  15.267  0.00  0.00    +0.000 A 
ATOM      6  N   UNL     1       7.491   6.197  15.749  0.00  0.00    +0.000 NA
ATOM      7  C   UNL     1       7.185   6.627  16.987  0.00  0.00    +0.000 A 
ATOM      8  N   UNL     1       7.851   7.752  17.427  0.00  0.00    +0.000 N 
ATOM      9  N   UNL     1       6.317   6.069  17.850  0.00  0.00    +0.000 NA
ATOM     10  C   UNL     1       5.698   4.997  17.328  0.00  0.00    +0.000 A 
ATOM     11  H   UNL     1       8.722   7.868  16.930  0.00  0.00    +0.000 HD
ATOM     12  H   UNL     1       7.879   7.777  18.437  0.00  0.00    +0.000 HD
ENDROOT
BRANCH   1  17
ATOM     13  C   UNL     1       0.993   4.316  20.974  0.00  0.00    +0.000 C 
ATOM     14  C   UNL     1       2.057   4.052  20.202  0.00  0.00    +0.000 C 
ATOM     15  C   UNL     1       2.687   2.707  20.049  0.00  0.00    +0.000 C 
ATOM     16  O   UNL     1       4.083   2.967  19.819  0.00  0.00    +0.000 OA
ATOM     17  C   UNL     1       4.239   4.302  19.268  0.00  0.00    +0.000 C 
ATOM     18  C   UNL     1       2.895   5.037  19.440  0.00  0.00    +0.000 C 
BRANCH  18  19
ATOM     19  O   UNL     1       3.021   6.238  20.199  0.00  0.00    +0.000 OA
ATOM     20  H   UNL     1       2.134   6.624  20.300  0.00  0.00    +0.000 HD
ENDBRANCH  18  19
BRANCH  15  21
ATOM     21  C   UNL     1       2.066   1.878  18.908  0.00  0.00    +0.000 C 
BRANCH  21  22
ATOM     22  O   UNL     1       1.087   2.611  18.174  0.00  0.00    +0.000 OA
ATOM     23  H   UNL     1       0.258   2.598  18.684  0.00  0.00    +0.000 HD
ENDBRANCH  21  22
ENDBRANCH  15  21
ENDBRANCH   1  17
BRANCH   5  24
ATOM     24  S   UNL     1       7.146   4.461  13.644  0.00  0.00    +0.000 S 
ATOM     25  C   UNL     1       8.274   5.699  12.967  0.00  0.00    +0.000 C 
ENDBRANCH   5  24
TORSDOF 5
ENDMDL
MODEL 8
REMARK VINA RESULT:      -6.2      4.918      5.835
REMARK  Name = 
REMARK  6 active torsions:
REMARK  status: ('A' for Active; 'I' for Inactive)
REMARK    1  A    between atoms: C_3  and  C_4
REMARK    2  A    between atoms: C_4  and  O_5
REMARK    3  A    between atoms: C_7  and  N_8
REMARK    4  A    between atoms: C_12  and  S_13
REMARK    5  A    between atoms: S_13  and  C_14
REMARK    6  A    between atoms: C_20  and  O_21
REMARK                            x       y       z     vdW  Elec       q    Type
REMARK                         _______ _______ _______ _____ _____    ______ ____
ROOT
ATOM      1  N   UNL     1       2.225   7.676  18.790  0.00  0.00    +0.000 N 
ATOM      2  C   UNL     1       2.310   8.342  17.597  0.00  0.00    +0.000 A 
ATOM      3  N   UNL     1       1.845   9.568  17.675  0.00  0.00    +0.000 NA
ATOM      4  C   UNL     1       1.434   9.710  18.979  0.00  0.00    +0.000 A 
ATOM      5  C   UNL     1       0.857  10.762  19.693  0.00  0.00    +0.000 A 
ATOM      6  N   UNL     1       0.566  10.595  21.008  0.00  0.00    +0.000 NA
ATOM      7  C   UNL     1       0.833   9.406  21.577  0.00  0.00    +0.000 A 
ATOM      8  N   UNL     1       0.502   9.276  22.910  0.00  0.00    +0.000 N 
ATOM      9  N   UNL     1       1.407   8.337  20.996  0.00  0.00    +0.000 NA
ATOM     10  C   UNL     1       1.670   8.545  19.695  0.00  0.00    +0.000 A 
ATOM     11  H   UNL     1       0.461  10.180  23.358  0.00  0.00    +0.000 HD
ATOM     12  H   UNL     1       1.064   8.560  23.349  0.00  0.00    +0.000 HD
ENDROOT
BRANCH   1  17
ATOM     13  C   UNL     1       3.610   3.318  17.188  0.00  0.00    +0.000 C 
ATOM     14  C   UNL     1       3.468   4.569  17.651  0.00  0.00    +0.000 C 
ATOM     15  C   UNL     1       4.589   5.533  17.860  0.00  0.00    +0.000 C 
ATOM     16  O   UNL     1       4.181   6.351  18.971  0.00  0.00    +0.000 OA
ATOM     17  C   UNL     1       2.732   6.342  19.069  0.00  0.00    +0.000 C 
ATOM     18  C   UNL     1       2.211   5.215  18.155  0.00  0.00    +0.000 C 
BRANCH  18  19
ATOM     19  O   UNL     1       1.433   4.251  18.863  0.00  0.00    +0.000 OA
ATOM     20  H   UNL     1       0.773   3.889  18.248  0.00  0.00    +0.000 HD
ENDBRANCH  18  19
BRANCH  15  21
ATOM     21  C   UNL     1       4.895   6.381  16.610  0.00  0.00    +0.000 C 
BRANCH  21  22
ATOM     22  O   UNL     1       6.196   6.964  16.654  0.00  0.00    +0.000 OA
ATOM     23  H   UNL     1       6.247   7.525  17.448  0.00  0.00    +0.000 HD
ENDBRANCH  21  22
ENDBRANCH  15  21
ENDBRANCH   1  17
BRANCH   5  24
ATOM     24  S   UNL     1       0.527  12.273  18.829  0.00  0.00    +0.000 S 
ATOM     25  C   UNL     1       2.173  13.011  18.749  0.00  0.00    +0.000 C 
ENDBRANCH   5  24
TORSDOF 5
ENDMDL
MODEL 9
REMARK VINA RESULT:      -6.1      4.874      5.976
REMARK  Name = 
REMARK  6 active torsions:
REMARK  status: ('A' for Active; 'I' for Inactive)
REMARK    1  A    between atoms: C_3  and  C_4
REMARK    2  A    between atoms: C_4  and  O_5
REMARK    3  A    between atoms: C_7  and  N_8
REMARK    4  A    between atoms: C_12  and  S_13
REMARK    5  A    between atoms: S_13  and  C_14
REMARK    6  A    between atoms: C_20  and  O_21
REMARK                            x       y       z     vdW  Elec       q    Type
REMARK                         _______ _______ _______ _____ _____    ______ ____
ROOT
ATOM      1  N   UNL     1       2.067   7.097  19.615  0.00  0.00    +0.000 N 
ATOM      2  C   UNL     1       2.413   7.624  18.399  0.00  0.00    +0.000 A 
ATOM      3  N   UNL     1       2.054   8.882  18.280  0.00  0.00    +0.000 NA
ATOM      4  C   UNL     1       1.442   9.191  19.472  0.00  0.00    +0.000 A 
ATOM      5  C   UNL     1       0.849  10.352  19.970  0.00  0.00    +0.000 A 
ATOM      6  N   UNL     1       0.325  10.349  21.223  0.00  0.00    +0.000 NA
ATOM      7  C   UNL     1       0.385   9.212  21.938  0.00  0.00    +0.000 A 
ATOM      8  N   UNL     1      -0.178   9.249  23.197  0.00  0.00    +0.000 N 
ATOM      9  N   UNL     1       0.951   8.048  21.570  0.00  0.00    +0.000 NA
ATOM     10  C   UNL     1       1.448   8.096  20.323  0.00  0.00    +0.000 A 
ATOM     11  H   UNL     1      -0.212  10.197  23.545  0.00  0.00    +0.000 HD
ATOM     12  H   UNL     1       0.236   8.545  23.794  0.00  0.00    +0.000 HD
ENDROOT
BRANCH   1  17
ATOM     13  C   UNL     1       2.379   2.325  18.837  0.00  0.00    +0.000 C 
ATOM     14  C   UNL     1       2.537   3.644  19.021  0.00  0.00    +0.000 C 
ATOM     15  C   UNL     1       3.818   4.386  18.823  0.00  0.00    +0.000 C 
ATOM     16  O   UNL     1       3.780   5.466  19.771  0.00  0.00    +0.000 OA
ATOM     17  C   UNL     1       2.399   5.768  20.103  0.00  0.00    +0.000 C 
ATOM     18  C   UNL     1       1.529   4.614  19.564  0.00  0.00    +0.000 C 
BRANCH  18  19
ATOM     19  O   UNL     1       0.764   3.981  20.588  0.00  0.00    +0.000 OA
ATOM     20  H   UNL     1      -0.166   4.239  20.471  0.00  0.00    +0.000 HD
ENDBRANCH  18  19
BRANCH  15  21
ATOM     21  C   UNL     1       3.999   4.898  17.380  0.00  0.00    +0.000 C 
BRANCH  21  22
ATOM     22  O   UNL     1       4.587   3.919  16.525  0.00  0.00    +0.000 OA
ATOM     23  H   UNL     1       5.537   3.874  16.730  0.00  0.00    +0.000 HD
ENDBRANCH  21  22
ENDBRANCH  15  21
ENDBRANCH   1  17
BRANCH   5  24
ATOM     24  S   UNL     1       0.807  11.783  18.926  0.00  0.00    +0.000 S 
ATOM     25  C   UNL     1      -0.954  11.902  18.545  0.00  0.00    +0.000 C 
ENDBRANCH   5  24
TORSDOF 5
ENDMDL
