MODEL 1
REMARK VINA RESULT:      -7.2      0.000      0.000
REMARK  Name = 
REMARK  8 active torsions:
REMARK  status: ('A' for Active; 'I' for Inactive)
REMARK    1  A    between atoms: C_1  and  C_2
REMARK    2  A    between atoms: C_7  and  S_8
REMARK    3  A    between atoms: S_8  and  C_10
REMARK    4  A    between atoms: C_10  and  C_11
REMARK    5  A    between atoms: C_14  and  C_15
REMARK    6  A    between atoms: N_17  and  C_18
REMARK    7  A    between atoms: C_18  and  C_19
REMARK    8  A    between atoms: C_19  and  N_20
REMARK                            x       y       z     vdW  Elec       q    Type
REMARK                         _______ _______ _______ _____ _____    ______ ____
ROOT
ATOM      1  C   UNL     1       8.014   8.630  18.006  0.00  0.00    +0.000 A 
ATOM      2  C   UNL     1       8.492   7.568  18.749  0.00  0.00    +0.000 A 
ATOM      3  C   UNL     1       7.762   6.428  18.350  0.00  0.00    +0.000 A 
ATOM      4  C   UNL     1       6.859   6.848  17.392  0.00  0.00    +0.000 A 
ATOM      5  O   UNL     1       7.005   8.199  17.182  0.00  0.00    +0.000 OA
ENDROOT
BRANCH   4   6
ATOM      6  C   UNL     1       5.878   6.089  16.643  0.00  0.00    +0.000 C 
ATOM      7  O   UNL     1       5.587   6.336  15.473  0.00  0.00    +0.000 OA
ATOM      8  N   UNL     1       5.287   5.060  17.351  0.00  0.00    +0.000 N 
ATOM      9  H   UNL     1       5.712   4.819  18.238  0.00  0.00    +0.000 HD
BRANCH   8  10
ATOM     10  C   UNL     1       4.377   4.134  16.705  0.00  0.00    +0.000 C 
BRANCH  10  11
ATOM     11  C   UNL     1       2.994   4.080  17.386  0.00  0.00    +0.000 C 
BRANCH  11  12
ATOM     12  N   UNL     1       2.607   2.722  17.807  0.00  0.00    +0.000 NA
ATOM     13  C   UNL     1       1.275   2.655  18.451  0.00  0.00    +0.000 C 
ATOM     14  C   UNL     1       1.241   3.193  19.890  0.00  0.00    +0.000 C 
ATOM     15  O   UNL     1       2.186   2.505  20.716  0.00  0.00    +0.000 OA
ATOM     16  C   UNL     1       3.509   2.641  20.184  0.00  0.00    +0.000 C 
ATOM     17  C   UNL     1       3.595   2.125  18.736  0.00  0.00    +0.000 C 
ENDBRANCH  11  12
ENDBRANCH  10  11
ENDBRANCH   8  10
ENDBRANCH   4   6
BRANCH   1  18
ATOM     18  C   UNL     1       8.376  10.079  17.953  0.00  0.00    +0.000 C 
BRANCH  18  19
ATOM     19  S   UNL     1       9.617  10.468  19.240  0.00  0.00    +0.000 S 
ATOM     20  O   UNL     1       8.906  10.366  20.636  0.00  0.00    +0.000 OA
BRANCH  19  27
ATOM     21  C   UNL     1      12.331  12.246  19.851  0.00  0.00    +0.000 C 
ATOM     22  C   UNL     1      11.168  12.888  19.139  0.00  0.00    +0.000 A 
ATOM     23  C   UNL     1      11.347  14.215  18.700  0.00  0.00    +0.000 A 
ATOM     24  C   UNL     1      10.352  14.888  17.996  0.00  0.00    +0.000 A 
ATOM     25  C   UNL     1       9.154  14.241  17.718  0.00  0.00    +0.000 A 
ATOM     26  C   UNL     1       8.958  12.925  18.145  0.00  0.00    +0.000 A 
ATOM     27  C   UNL     1       9.947  12.229  18.869  0.00  0.00    +0.000 A 
ENDBRANCH  19  27
ENDBRANCH  18  19
ENDBRANCH   1  18
TORSDOF 7
ENDMDL
MODEL 2
REMARK VINA RESULT:      -7.2      6.807      9.139
REMARK  Name = 
REMARK  8 active torsions:
REMARK  status: ('A' for Active; 'I' for Inactive)
REMARK    1  A    between atoms: C_1  and  C_2
REMARK    2  A    between atoms: C_7  and  S_8
REMARK    3  A    between atoms: S_8  and  C_10
REMARK    4  A    between atoms: C_10  and  C_11
REMARK    5  A    between atoms: C_14  and  C_15
REMARK    6  A    between atoms: N_17  and  C_18
REMARK    7  A    between atoms: C_18  and  C_19
REMARK    8  A    between atoms: C_19  and  N_20
REMARK                            x       y       z     vdW  Elec       q    Type
REMARK                         _______ _______ _______ _____ _____    ______ ____
ROOT
ATOM      1  C   UNL     1       0.049   9.890  20.605  0.00  0.00    +0.000 A 
ATOM      2  C   UNL     1       0.163   9.078  21.717  0.00  0.00    +0.000 A 
ATOM      3  C   UNL     1       1.067   8.048  21.381  0.00  0.00    +0.000 A 
ATOM      4  C   UNL     1       1.453   8.268  20.072  0.00  0.00    +0.000 A 
ATOM      5  O   UNL     1       0.826   9.393  19.590  0.00  0.00    +0.000 OA
ENDROOT
BRANCH   4   6
ATOM      6  C   UNL     1       2.371   7.521  19.236  0.00  0.00    +0.000 C 
ATOM      7  O   UNL     1       2.575   7.793  18.053  0.00  0.00    +0.000 OA
ATOM      8  N   UNL     1       3.002   6.470  19.874  0.00  0.00    +0.000 N 
ATOM      9  H   UNL     1       2.911   6.433  20.881  0.00  0.00    +0.000 HD
BRANCH   8  10
ATOM     10  C   UNL     1       4.039   5.706  19.207  0.00  0.00    +0.000 C 
BRANCH  10  11
ATOM     11  C   UNL     1       4.023   4.212  19.592  0.00  0.00    +0.000 C 
BRANCH  11  12
ATOM     12  N   UNL     1       3.758   3.322  18.448  0.00  0.00    +0.000 NA
ATOM     13  C   UNL     1       2.846   3.906  17.437  0.00  0.00    +0.000 C 
ATOM     14  C   UNL     1       1.368   3.929  17.859  0.00  0.00    +0.000 C 
ATOM     15  O   UNL     1       0.910   2.613  18.187  0.00  0.00    +0.000 OA
ATOM     16  C   UNL     1       1.702   2.055  19.243  0.00  0.00    +0.000 C 
ATOM     17  C   UNL     1       3.196   2.020  18.874  0.00  0.00    +0.000 C 
ENDBRANCH  11  12
ENDBRANCH  10  11
ENDBRANCH   8  10
ENDBRANCH   4   6
BRANCH   1  18
ATOM     18  C   UNL     1      -0.733  11.134  20.330  0.00  0.00    +0.000 C 
BRANCH  18  19
ATOM     19  S   UNL     1      -0.786  11.462  18.530  0.00  0.00    +0.000 S 
ATOM     20  O   UNL     1      -0.101  12.852  18.278  0.00  0.00    +0.000 OA
BRANCH  19  27
ATOM     21  C   UNL     1      -2.606  10.549  15.932  0.00  0.00    +0.000 C 
ATOM     22  C   UNL     1      -3.280  11.168  17.130  0.00  0.00    +0.000 A 
ATOM     23  C   UNL     1      -4.687  11.248  17.096  0.00  0.00    +0.000 A 
ATOM     24  C   UNL     1      -5.412  11.764  18.166  0.00  0.00    +0.000 A 
ATOM     25  C   UNL     1      -4.738  12.211  19.296  0.00  0.00    +0.000 A 
ATOM     26  C   UNL     1      -3.343  12.140  19.349  0.00  0.00    +0.000 A 
ATOM     27  C   UNL     1      -2.589  11.632  18.273  0.00  0.00    +0.000 A 
ENDBRANCH  19  27
ENDBRANCH  18  19
ENDBRANCH   1  18
TORSDOF 7
ENDMDL
MODEL 3
REMARK VINA RESULT:      -7.1      5.928      9.023
REMARK  Name = 
REMARK  8 active torsions:
REMARK  status: ('A' for Active; 'I' for Inactive)
REMARK    1  A    between atoms: C_1  and  C_2
REMARK    2  A    between atoms: C_7  and  S_8
REMARK    3  A    between atoms: S_8  and  C_10
REMARK    4  A    between atoms: C_10  and  C_11
REMARK    5  A    between atoms: C_14  and  C_15
REMARK    6  A    between atoms: N_17  and  C_18
REMARK    7  A    between atoms: C_18  and  C_19
REMARK    8  A    between atoms: C_19  and  N_20
REMARK                            x       y       z     vdW  Elec       q    Type
REMARK                         _______ _______ _______ _____ _____    ______ ____
ROOT
ATOM      1  C   UNL     1       2.557   6.397  19.262  0.00  0.00    +0.000 A 
ATOM      2  C   UNL     1       2.514   7.205  18.143  0.00  0.00    +0.000 A 
ATOM      3  C   UNL     1       1.910   8.419  18.537  0.00  0.00    +0.000 A 
ATOM      4  C   UNL     1       1.597   8.291  19.877  0.00  0.00    +0.000 A 
ATOM      5  O   UNL     1       1.987   7.051  20.325  0.00  0.00    +0.000 OA
ENDROOT
BRANCH   4   6
ATOM      6  C   UNL     1       0.976   9.238  20.781  0.00  0.00    +0.000 C 
ATOM      7  O   UNL     1       1.320   9.372  21.955  0.00  0.00    +0.000 OA
ATOM      8  N   UNL     1      -0.044   9.983  20.219  0.00  0.00    +0.000 N 
ATOM      9  H   UNL     1      -0.136   9.934  19.212  0.00  0.00    +0.000 HD
BRANCH   8  10
ATOM     10  C   UNL     1      -0.680  11.057  20.958  0.00  0.00    +0.000 C 
BRANCH  10  11
ATOM     11  C   UNL     1      -0.032  12.431  20.694  0.00  0.00    +0.000 C 
BRANCH  11  12
ATOM     12  N   UNL     1       0.501  12.568  19.327  0.00  0.00    +0.000 NA
ATOM     13  C   UNL     1       1.950  12.874  19.281  0.00  0.00    +0.000 C 
ATOM     14  C   UNL     1       2.301  14.325  19.644  0.00  0.00    +0.000 C 
ATOM     15  O   UNL     1       1.609  15.247  18.796  0.00  0.00    +0.000 OA
ATOM     16  C   UNL     1       0.193  15.056  18.898  0.00  0.00    +0.000 C 
ATOM     17  C   UNL     1      -0.212  13.611  18.553  0.00  0.00    +0.000 C 
ENDBRANCH  11  12
ENDBRANCH  10  11
ENDBRANCH   8  10
ENDBRANCH   4   6
BRANCH   1  18
ATOM     18  C   UNL     1       3.079   5.017  19.501  0.00  0.00    +0.000 C 
BRANCH  18  19
ATOM     19  S   UNL     1       3.866   4.367  17.982  0.00  0.00    +0.000 S 
ATOM     20  O   UNL     1       4.112   2.831  18.191  0.00  0.00    +0.000 OA
BRANCH  19  27
ATOM     21  C   UNL     1       5.182   6.436  15.771  0.00  0.00    +0.000 C 
ATOM     22  C   UNL     1       5.928   6.142  17.048  0.00  0.00    +0.000 A 
ATOM     23  C   UNL     1       7.131   6.846  17.257  0.00  0.00    +0.000 A 
ATOM     24  C   UNL     1       7.876   6.680  18.420  0.00  0.00    +0.000 A 
ATOM     25  C   UNL     1       7.429   5.803  19.401  0.00  0.00    +0.000 A 
ATOM     26  C   UNL     1       6.238   5.096  19.212  0.00  0.00    +0.000 A 
ATOM     27  C   UNL     1       5.473   5.239  18.037  0.00  0.00    +0.000 A 
ENDBRANCH  19  27
ENDBRANCH  18  19
ENDBRANCH   1  18
TORSDOF 7
ENDMDL
MODEL 4
REMARK VINA RESULT:      -7.1      3.155      9.672
REMARK  Name = 
REMARK  8 active torsions:
REMARK  status: ('A' for Active; 'I' for Inactive)
REMARK    1  A    between atoms: C_1  and  C_2
REMARK    2  A    between atoms: C_7  and  S_8
REMARK    3  A    between atoms: S_8  and  C_10
REMARK    4  A    between atoms: C_10  and  C_11
REMARK    5  A    between atoms: C_14  and  C_15
REMARK    6  A    between atoms: N_17  and  C_18
REMARK    7  A    between atoms: C_18  and  C_19
REMARK    8  A    between atoms: C_19  and  N_20
REMARK                            x       y       z     vdW  Elec       q    Type
REMARK                         _______ _______ _______ _____ _____    ______ ____
ROOT
ATOM      1  C   UNL     1       5.367   4.551  16.505  0.00  0.00    +0.000 A 
ATOM      2  C   UNL     1       6.310   4.616  15.498  0.00  0.00    +0.000 A 
ATOM      3  C   UNL     1       7.362   5.428  15.974  0.00  0.00    +0.000 A 
ATOM      4  C   UNL     1       7.007   5.834  17.246  0.00  0.00    +0.000 A 
ATOM      5  O   UNL     1       5.781   5.305  17.574  0.00  0.00    +0.000 OA
ENDROOT
BRANCH   4   6
ATOM      6  C   UNL     1       7.725   6.668  18.189  0.00  0.00    +0.000 C 
ATOM      7  O   UNL     1       8.200   6.238  19.240  0.00  0.00    +0.000 OA
ATOM      8  N   UNL     1       7.833   7.995  17.816  0.00  0.00    +0.000 N 
ATOM      9  H   UNL     1       7.573   8.218  16.864  0.00  0.00    +0.000 HD
BRANCH   8  10
ATOM     10  C   UNL     1       8.626   8.927  18.593  0.00  0.00    +0.000 C 
BRANCH  10  11
ATOM     11  C   UNL     1       8.875  10.260  17.857  0.00  0.00    +0.000 C 
BRANCH  11  12
ATOM     12  N   UNL     1       9.084  11.396  18.771  0.00  0.00    +0.000 NA
ATOM     13  C   UNL     1       9.109  12.711  18.090  0.00  0.00    +0.000 C 
ATOM     14  C   UNL     1      10.406  12.997  17.317  0.00  0.00    +0.000 C 
ATOM     15  O   UNL     1      11.546  12.903  18.177  0.00  0.00    +0.000 OA
ATOM     16  C   UNL     1      11.619  11.601  18.771  0.00  0.00    +0.000 C 
ATOM     17  C   UNL     1      10.336  11.261  19.552  0.00  0.00    +0.000 C 
ENDBRANCH  11  12
ENDBRANCH  10  11
ENDBRANCH   8  10
ENDBRANCH   4   6
BRANCH   1  18
ATOM     18  C   UNL     1       4.051   3.852  16.623  0.00  0.00    +0.000 C 
BRANCH  18  19
ATOM     19  S   UNL     1       3.916   3.028  18.252  0.00  0.00    +0.000 S 
ATOM     20  O   UNL     1       3.053   1.730  18.061  0.00  0.00    +0.000 OA
BRANCH  19  27
ATOM     21  C   UNL     1       2.523   2.769  21.233  0.00  0.00    +0.000 C 
ATOM     22  C   UNL     1       2.412   4.065  20.472  0.00  0.00    +0.000 A 
ATOM     23  C   UNL     1       1.772   5.135  21.131  0.00  0.00    +0.000 A 
ATOM     24  C   UNL     1       1.651   6.386  20.535  0.00  0.00    +0.000 A 
ATOM     25  C   UNL     1       2.172   6.592  19.263  0.00  0.00    +0.000 A 
ATOM     26  C   UNL     1       2.811   5.544  18.594  0.00  0.00    +0.000 A 
ATOM     27  C   UNL     1       2.934   4.265  19.174  0.00  0.00    +0.000 A 
ENDBRANCH  19  27
ENDBRANCH  18  19
ENDBRANCH   1  18
TORSDOF 7
ENDMDL
MODEL 5
REMARK VINA RESULT:      -7.0      7.391      9.478
REMARK  Name = 
REMARK  8 active torsions:
REMARK  status: ('A' for Active; 'I' for Inactive)
REMARK    1  A    between atoms: C_1  and  C_2
REMARK    2  A    between atoms: C_7  and  S_8
REMARK    3  A    between atoms: S_8  and  C_10
REMARK    4  A    between atoms: C_10  and  C_11
REMARK    5  A    between atoms: C_14  and  C_15
REMARK    6  A    between atoms: N_17  and  C_18
REMARK    7  A    between atoms: C_18  and  C_19
REMARK    8  A    between atoms: C_19  and  N_20
REMARK                            x       y       z     vdW  Elec       q    Type
REMARK                         _______ _______ _______ _____ _____    ______ ____
ROOT
ATOM      1  C   UNL     1       2.146   7.701  19.150  0.00  0.00    +0.000 A 
ATOM      2  C   UNL     1       2.057   8.370  17.945  0.00  0.00    +0.000 A 
ATOM      3  C   UNL     1       1.554   9.658  18.229  0.00  0.00    +0.000 A 
ATOM      4  C   UNL     1       1.345   9.713  19.594  0.00  0.00    +0.000 A 
ATOM      5  O   UNL     1       1.701   8.512  20.163  0.00  0.00    +0.000 OA
ENDROOT
BRANCH   4   6
ATOM      6  C   UNL     1       0.852  10.799  20.416  0.00  0.00    +0.000 C 
ATOM      7  O   UNL     1       0.885  10.779  21.647  0.00  0.00    +0.000 OA
ATOM      8  N   UNL     1       0.335  11.867  19.707  0.00  0.00    +0.000 N 
ATOM      9  H   UNL     1       0.512  11.874  18.710  0.00  0.00    +0.000 HD
BRANCH   8  10
ATOM     10  C   UNL     1      -0.083  13.080  20.382  0.00  0.00    +0.000 C 
BRANCH  10  11
ATOM     11  C   UNL     1      -1.615  13.256  20.401  0.00  0.00    +0.000 C 
BRANCH  11  12
ATOM     12  N   UNL     1      -2.108  13.916  21.622  0.00  0.00    +0.000 NA
ATOM     13  C   UNL     1      -1.675  13.252  22.874  0.00  0.00    +0.000 C 
ATOM     14  C   UNL     1      -2.422  11.946  23.187  0.00  0.00    +0.000 C 
ATOM     15  O   UNL     1      -3.835  12.166  23.248  0.00  0.00    +0.000 OA
ATOM     16  C   UNL     1      -4.312  12.707  22.010  0.00  0.00    +0.000 C 
ATOM     17  C   UNL     1      -3.586  14.015  21.645  0.00  0.00    +0.000 C 
ENDBRANCH  11  12
ENDBRANCH  10  11
ENDBRANCH   8  10
ENDBRANCH   4   6
BRANCH   1  18
ATOM     18  C   UNL     1       2.608   6.328  19.519  0.00  0.00    +0.000 C 
BRANCH  18  19
ATOM     19  S   UNL     1       3.090   5.398  18.018  0.00  0.00    +0.000 S 
ATOM     20  O   UNL     1       2.766   3.883  18.270  0.00  0.00    +0.000 OA
BRANCH  19  27
ATOM     21  C   UNL     1       5.047   6.744  15.724  0.00  0.00    +0.000 C 
ATOM     22  C   UNL     1       5.646   6.260  17.020  0.00  0.00    +0.000 A 
ATOM     23  C   UNL     1       7.024   6.489  17.206  0.00  0.00    +0.000 A 
ATOM     24  C   UNL     1       7.669   6.119  18.383  0.00  0.00    +0.000 A 
ATOM     25  C   UNL     1       6.943   5.511  19.400  0.00  0.00    +0.000 A 
ATOM     26  C   UNL     1       5.575   5.276  19.233  0.00  0.00    +0.000 A 
ATOM     27  C   UNL     1       4.904   5.631  18.046  0.00  0.00    +0.000 A 
ENDBRANCH  19  27
ENDBRANCH  18  19
ENDBRANCH   1  18
TORSDOF 7
ENDMDL
MODEL 6
REMARK VINA RESULT:      -7.0      2.015      2.463
REMARK  Name = 
REMARK  8 active torsions:
REMARK  status: ('A' for Active; 'I' for Inactive)
REMARK    1  A    between atoms: C_1  and  C_2
REMARK    2  A    between atoms: C_7  and  S_8
REMARK    3  A    between atoms: S_8  and  C_10
REMARK    4  A    between atoms: C_10  and  C_11
REMARK    5  A    between atoms: C_14  and  C_15
REMARK    6  A    between atoms: N_17  and  C_18
REMARK    7  A    between atoms: C_18  and  C_19
REMARK    8  A    between atoms: C_19  and  N_20
REMARK                            x       y       z     vdW  Elec       q    Type
REMARK                         _______ _______ _______ _____ _____    ______ ____
ROOT
ATOM      1  C   UNL     1       8.478   8.790  18.464  0.00  0.00    +0.000 A 
ATOM      2  C   UNL     1       7.653   8.932  17.366  0.00  0.00    +0.000 A 
ATOM      3  C   UNL     1       7.019   7.687  17.165  0.00  0.00    +0.000 A 
ATOM      4  C   UNL     1       7.497   6.835  18.143  0.00  0.00    +0.000 A 
ATOM      5  O   UNL     1       8.397   7.505  18.938  0.00  0.00    +0.000 OA
ENDROOT
BRANCH   4   6
ATOM      6  C   UNL     1       7.173   5.447  18.405  0.00  0.00    +0.000 C 
ATOM      7  O   UNL     1       8.029   4.575  18.559  0.00  0.00    +0.000 OA
ATOM      8  N   UNL     1       5.820   5.175  18.466  0.00  0.00    +0.000 N 
ATOM      9  H   UNL     1       5.201   5.975  18.506  0.00  0.00    +0.000 HD
BRANCH   8  10
ATOM     10  C   UNL     1       5.338   3.860  18.842  0.00  0.00    +0.000 C 
BRANCH  10  11
ATOM     11  C   UNL     1       3.805   3.731  18.734  0.00  0.00    +0.000 C 
BRANCH  11  12
ATOM     12  N   UNL     1       3.287   2.479  19.313  0.00  0.00    +0.000 NA
ATOM     13  C   UNL     1       1.878   2.195  18.954  0.00  0.00    +0.000 C 
ATOM     14  C   UNL     1       0.849   3.057  19.703  0.00  0.00    +0.000 C 
ATOM     15  O   UNL     1       1.000   2.917  21.120  0.00  0.00    +0.000 OA
ATOM     16  C   UNL     1       2.323   3.292  21.522  0.00  0.00    +0.000 C 
ATOM     17  C   UNL     1       3.395   2.463  20.791  0.00  0.00    +0.000 C 
ENDBRANCH  11  12
ENDBRANCH  10  11
ENDBRANCH   8  10
ENDBRANCH   4   6
BRANCH   1  18
ATOM     18  C   UNL     1       9.393   9.732  19.178  0.00  0.00    +0.000 C 
BRANCH  18  19
ATOM     19  S   UNL     1       9.441  11.344  18.314  0.00  0.00    +0.000 S 
ATOM     20  O   UNL     1      10.790  11.417  17.514  0.00  0.00    +0.000 OA
BRANCH  19  27
ATOM     21  C   UNL     1       9.712  14.634  18.321  0.00  0.00    +0.000 C 
ATOM     22  C   UNL     1       9.608  13.895  19.631  0.00  0.00    +0.000 A 
ATOM     23  C   UNL     1       9.552  14.680  20.800  0.00  0.00    +0.000 A 
ATOM     24  C   UNL     1       9.414  14.101  22.058  0.00  0.00    +0.000 A 
ATOM     25  C   UNL     1       9.328  12.718  22.169  0.00  0.00    +0.000 A 
ATOM     26  C   UNL     1       9.380  11.923  21.021  0.00  0.00    +0.000 A 
ATOM     27  C   UNL     1       9.532  12.487  19.739  0.00  0.00    +0.000 A 
ENDBRANCH  19  27
ENDBRANCH  18  19
ENDBRANCH   1  18
TORSDOF 7
ENDMDL
MODEL 7
REMARK VINA RESULT:      -6.9      1.046      1.670
REMARK  Name = 
REMARK  8 active torsions:
REMARK  status: ('A' for Active; 'I' for Inactive)
REMARK    1  A    between atoms: C_1  and  C_2
REMARK    2  A    between atoms: C_7  and  S_8
REMARK    3  A    between atoms: S_8  and  C_10
REMARK    4  A    between atoms: C_10  and  C_11
REMARK    5  A    between atoms: C_14  and  C_15
REMARK    6  A    between atoms: N_17  and  C_18
REMARK    7  A    between atoms: C_18  and  C_19
REMARK    8  A    between atoms: C_19  and  N_20
REMARK                            x       y       z     vdW  Elec       q    Type
REMARK                         _______ _______ _______ _____ _____    ______ ____
ROOT
ATOM      1  C   UNL     1       8.088   8.887  17.990  0.00  0.00    +0.000 A 
ATOM      2  C   UNL     1       8.546   7.892  18.831  0.00  0.00    +0.000 A 
ATOM      3  C   UNL     1       7.883   6.703  18.457  0.00  0.00    +0.000 A 
ATOM      4  C   UNL     1       7.038   7.029  17.414  0.00  0.00    +0.000 A 
ATOM      5  O   UNL     1       7.155   8.369  17.127  0.00  0.00    +0.000 OA
ENDROOT
BRANCH   4   6
ATOM      6  C   UNL     1       6.136   6.190  16.651  0.00  0.00    +0.000 C 
ATOM      7  O   UNL     1       5.490   6.601  15.687  0.00  0.00    +0.000 OA
ATOM      8  N   UNL     1       6.055   4.883  17.094  0.00  0.00    +0.000 N 
ATOM      9  H   UNL     1       6.749   4.593  17.772  0.00  0.00    +0.000 HD
BRANCH   8  10
ATOM     10  C   UNL     1       5.292   3.892  16.361  0.00  0.00    +0.000 C 
BRANCH  10  11
ATOM     11  C   UNL     1       3.828   3.793  16.835  0.00  0.00    +0.000 C 
BRANCH  11  12
ATOM     12  N   UNL     1       3.674   3.984  18.288  0.00  0.00    +0.000 NA
ATOM     13  C   UNL     1       3.974   2.771  19.083  0.00  0.00    +0.000 C 
ATOM     14  C   UNL     1       2.876   1.696  19.033  0.00  0.00    +0.000 C 
ATOM     15  O   UNL     1       1.618   2.228  19.461  0.00  0.00    +0.000 OA
ATOM     16  C   UNL     1       1.239   3.340  18.640  0.00  0.00    +0.000 C 
ATOM     17  C   UNL     1       2.312   4.444  18.648  0.00  0.00    +0.000 C 
ENDBRANCH  11  12
ENDBRANCH  10  11
ENDBRANCH   8  10
ENDBRANCH   4   6
BRANCH   1  18
ATOM     18  C   UNL     1       8.407  10.342  17.868  0.00  0.00    +0.000 C 
BRANCH  18  19
ATOM     19  S   UNL     1       9.730  10.800  19.047  0.00  0.00    +0.000 S 
ATOM     20  O   UNL     1       9.059  11.053  20.443  0.00  0.00    +0.000 OA
BRANCH  19  27
ATOM     21  C   UNL     1       8.860  13.855  19.948  0.00  0.00    +0.000 C 
ATOM     22  C   UNL     1       9.859  13.666  18.836  0.00  0.00    +0.000 A 
ATOM     23  C   UNL     1      10.431  14.833  18.291  0.00  0.00    +0.000 A 
ATOM     24  C   UNL     1      11.394  14.770  17.288  0.00  0.00    +0.000 A 
ATOM     25  C   UNL     1      11.805  13.531  16.811  0.00  0.00    +0.000 A 
ATOM     26  C   UNL     1      11.249  12.362  17.339  0.00  0.00    +0.000 A 
ATOM     27  C   UNL     1      10.265  12.403  18.346  0.00  0.00    +0.000 A 
ENDBRANCH  19  27
ENDBRANCH  18  19
ENDBRANCH   1  18
TORSDOF 7
ENDMDL
MODEL 8
REMARK VINA RESULT:      -6.9      6.711      9.162
REMARK  Name = 
REMARK  8 active torsions:
REMARK  status: ('A' for Active; 'I' for Inactive)
REMARK    1  A    between atoms: C_1  and  C_2
REMARK    2  A    between atoms: C_7  and  S_8
REMARK    3  A    between atoms: S_8  and  C_10
REMARK    4  A    between atoms: C_10  and  C_11
REMARK    5  A    between atoms: C_14  and  C_15
REMARK    6  A    between atoms: N_17  and  C_18
REMARK    7  A    between atoms: C_18  and  C_19
REMARK    8  A    between atoms: C_19  and  N_20
REMARK                            x       y       z     vdW  Elec       q    Type
REMARK                         _______ _______ _______ _____ _____    ______ ____
ROOT
ATOM      1  C   UNL     1       0.882  10.059  19.339  0.00  0.00    +0.000 A 
ATOM      2  C   UNL     1       1.575   9.980  18.147  0.00  0.00    +0.000 A 
ATOM      3  C   UNL     1       2.189   8.710  18.113  0.00  0.00    +0.000 A 
ATOM      4  C   UNL     1       1.857   8.075  19.295  0.00  0.00    +0.000 A 
ATOM      5  O   UNL     1       1.060   8.900  20.053  0.00  0.00    +0.000 OA
ENDROOT
BRANCH   4   6
ATOM      6  C   UNL     1       2.210   6.753  19.770  0.00  0.00    +0.000 C 
ATOM      7  O   UNL     1       1.769   6.275  20.816  0.00  0.00    +0.000 OA
ATOM      8  N   UNL     1       3.089   6.066  18.955  0.00  0.00    +0.000 N 
ATOM      9  H   UNL     1       3.256   6.460  18.038  0.00  0.00    +0.000 HD
BRANCH   8  10
ATOM     10  C   UNL     1       3.442   4.687  19.231  0.00  0.00    +0.000 C 
BRANCH  10  11
ATOM     11  C   UNL     1       4.800   4.282  18.622  0.00  0.00    +0.000 C 
BRANCH  11  12
ATOM     12  N   UNL     1       5.451   5.375  17.880  0.00  0.00    +0.000 NA
ATOM     13  C   UNL     1       5.461   5.176  16.412  0.00  0.00    +0.000 C 
ATOM     14  C   UNL     1       6.480   4.135  15.923  0.00  0.00    +0.000 C 
ATOM     15  O   UNL     1       7.804   4.476  16.350  0.00  0.00    +0.000 OA
ATOM     16  C   UNL     1       7.861   4.569  17.779  0.00  0.00    +0.000 C 
ATOM     17  C   UNL     1       6.849   5.593  18.322  0.00  0.00    +0.000 C 
ENDBRANCH  11  12
ENDBRANCH  10  11
ENDBRANCH   8  10
ENDBRANCH   4   6
BRANCH   1  18
ATOM     18  C   UNL     1       0.031  11.123  19.953  0.00  0.00    +0.000 C 
BRANCH  18  19
ATOM     19  S   UNL     1      -0.423  12.373  18.696  0.00  0.00    +0.000 S 
ATOM     20  O   UNL     1      -0.508  13.766  19.417  0.00  0.00    +0.000 OA
BRANCH  19  27
ATOM     21  C   UNL     1      -3.226  12.763  20.396  0.00  0.00    +0.000 C 
ATOM     22  C   UNL     1      -3.261  12.077  19.054  0.00  0.00    +0.000 A 
ATOM     23  C   UNL     1      -4.529  11.706  18.564  0.00  0.00    +0.000 A 
ATOM     24  C   UNL     1      -4.678  11.104  17.318  0.00  0.00    +0.000 A 
ATOM     25  C   UNL     1      -3.555  10.861  16.536  0.00  0.00    +0.000 A 
ATOM     26  C   UNL     1      -2.289  11.222  17.005  0.00  0.00    +0.000 A 
ATOM     27  C   UNL     1      -2.113  11.822  18.268  0.00  0.00    +0.000 A 
ENDBRANCH  19  27
ENDBRANCH  18  19
ENDBRANCH   1  18
TORSDOF 7
ENDMDL
MODEL 9
REMARK VINA RESULT:      -6.8      6.272      8.907
REMARK  Name = 
REMARK  8 active torsions:
REMARK  status: ('A' for Active; 'I' for Inactive)
REMARK    1  A    between atoms: C_1  and  C_2
REMARK    2  A    between atoms: C_7  and  S_8
REMARK    3  A    between atoms: S_8  and  C_10
REMARK    4  A    between atoms: C_10  and  C_11
REMARK    5  A    between atoms: C_14  and  C_15
REMARK    6  A    between atoms: N_17  and  C_18
REMARK    7  A    between atoms: C_18  and  C_19
REMARK    8  A    between atoms: C_19  and  N_20
REMARK                            x       y       z     vdW  Elec       q    Type
REMARK                         _______ _______ _______ _____ _____    ______ ____
ROOT
ATOM      1  C   UNL     1       0.798   9.675  20.650  0.00  0.00    +0.000 A 
ATOM      2  C   UNL     1       0.767   8.684  21.611  0.00  0.00    +0.000 A 
ATOM      3  C   UNL     1       1.416   7.558  21.060  0.00  0.00    +0.000 A 
ATOM      4  C   UNL     1       1.802   7.908  19.780  0.00  0.00    +0.000 A 
ATOM      5  O   UNL     1       1.419   9.203  19.521  0.00  0.00    +0.000 OA
ENDROOT
BRANCH   4   6
ATOM      6  C   UNL     1       2.511   7.136  18.779  0.00  0.00    +0.000 C 
ATOM      7  O   UNL     1       3.048   7.644  17.795  0.00  0.00    +0.000 OA
ATOM      8  N   UNL     1       2.535   5.774  19.015  0.00  0.00    +0.000 N 
ATOM      9  H   UNL     1       2.226   5.470  19.930  0.00  0.00    +0.000 HD
BRANCH   8  10
ATOM     10  C   UNL     1       3.308   4.883  18.172  0.00  0.00    +0.000 C 
BRANCH  10  11
ATOM     11  C   UNL     1       4.766   4.724  18.648  0.00  0.00    +0.000 C 
BRANCH  11  12
ATOM     12  N   UNL     1       5.668   4.223  17.597  0.00  0.00    +0.000 NA
ATOM     13  C   UNL     1       7.069   4.679  17.746  0.00  0.00    +0.000 C 
ATOM     14  C   UNL     1       7.301   6.146  17.352  0.00  0.00    +0.000 C 
ATOM     15  O   UNL     1       6.880   6.386  16.004  0.00  0.00    +0.000 OA
ATOM     16  C   UNL     1       5.494   6.060  15.847  0.00  0.00    +0.000 C 
ATOM     17  C   UNL     1       5.206   4.600  16.240  0.00  0.00    +0.000 C 
ENDBRANCH  11  12
ENDBRANCH  10  11
ENDBRANCH   8  10
ENDBRANCH   4   6
BRANCH   1  18
ATOM     18  C   UNL     1       0.297  11.083  20.624  0.00  0.00    +0.000 C 
BRANCH  18  19
ATOM     19  S   UNL     1       0.201  11.688  18.900  0.00  0.00    +0.000 S 
ATOM     20  O   UNL     1       0.311  13.254  18.936  0.00  0.00    +0.000 OA
BRANCH  19  27
ATOM     21  C   UNL     1      -2.632  12.941  20.041  0.00  0.00    +0.000 C 
ATOM     22  C   UNL     1      -2.669  11.855  18.996  0.00  0.00    +0.000 A 
ATOM     23  C   UNL     1      -3.938  11.489  18.505  0.00  0.00    +0.000 A 
ATOM     24  C   UNL     1      -4.082  10.527  17.510  0.00  0.00    +0.000 A 
ATOM     25  C   UNL     1      -2.952   9.911  16.986  0.00  0.00    +0.000 A 
ATOM     26  C   UNL     1      -1.685  10.260  17.460  0.00  0.00    +0.000 A 
ATOM     27  C   UNL     1      -1.516  11.223  18.475  0.00  0.00    +0.000 A 
ENDBRANCH  19  27
ENDBRANCH  18  19
ENDBRANCH   1  18
TORSDOF 7
ENDMDL
