MODEL 1
REMARK VINA RESULT:      -7.8      0.000      0.000
REMARK  Name = 
REMARK  10 active torsions:
REMARK  status: ('A' for Active; 'I' for Inactive)
REMARK    1  A    between atoms: C_1  and  C_2
REMARK    2  A    between atoms: C_2  and  C_3
REMARK    3  A    between atoms: C_3  and  O_4
REMARK    4  A    between atoms: O_4  and  N_5
REMARK    5  A    between atoms: N_8  and  C_9
REMARK    6  A    between atoms: C_18  and  C_19
REMARK    7  A    between atoms: C_19  and  O_21
REMARK    8  A    between atoms: N_23  and  C_24
REMARK    9  A    between atoms: C_28  and  C_29
REMARK   10  A    between atoms: C_29  and  N_30
REMARK                            x       y       z     vdW  Elec       q    Type
REMARK                         _______ _______ _______ _____ _____    ______ ____
ROOT
ATOM      1  C   UNL     1       1.536   8.330  19.799  0.00  0.00    +0.000 A 
ATOM      2  N   UNL     1       2.444   7.768  18.960  0.00  0.00    +0.000 NA
ATOM      3  C   UNL     1       2.776   6.457  19.071  0.00  0.00    +0.000 A 
ATOM      4  C   UNL     1       2.216   5.656  20.070  0.00  0.00    +0.000 A 
ATOM      5  C   UNL     1       1.291   6.208  20.951  0.00  0.00    +0.000 A 
ATOM      6  C   UNL     1       0.957   7.549  20.810  0.00  0.00    +0.000 A 
ATOM      7  F   UNL     1       0.072   8.070  21.675  0.00  0.00    +0.000 F 
ATOM      8  C   UNL     1       2.618   4.240  20.191  0.00  0.00    +0.000 A 
ATOM      9  O   UNL     1       2.136   3.510  21.054  0.00  0.00    +0.000 OA
ATOM     10  C   UNL     1       3.641   3.713  19.260  0.00  0.00    +0.000 A 
ATOM     11  C   UNL     1       4.113   4.561  18.336  0.00  0.00    +0.000 A 
ATOM     12  N   UNL     1       3.711   5.871  18.167  0.00  0.00    +0.000 N 
ENDROOT
BRANCH   1  16
ATOM     13  N   UNL     1      -1.697  11.550  18.852  0.00  0.00    +0.000 NA
ATOM     14  C   UNL     1      -0.546  11.107  19.260  0.00  0.00    +0.000 C 
ATOM     15  C   UNL     1       0.302  10.058  18.581  0.00  0.00    +0.000 C 
ATOM     16  N   UNL     1       1.248   9.675  19.628  0.00  0.00    +0.000 N 
ATOM     17  C   UNL     1       1.199  10.588  20.775  0.00  0.00    +0.000 C 
ATOM     18  C   UNL     1       0.134  11.659  20.486  0.00  0.00    +0.000 C 
BRANCH  13  19
ATOM     19  O   UNL     1      -2.095  10.885  17.680  0.00  0.00    +0.000 OA
BRANCH  19  20
ATOM     20  C   UNL     1      -3.519  10.966  17.568  0.00  0.00    +0.000 C 
BRANCH  20  22
ATOM     21  C   UNL     1      -2.826  10.222  15.260  0.00  0.00    +0.000 C 
ATOM     22  C   UNL     1      -3.894  10.911  16.091  0.00  0.00    +0.000 C 
ENDBRANCH  20  22
ENDBRANCH  19  20
ENDBRANCH  13  19
BRANCH  18  23
ATOM     23  C   UNL     1      -0.833  11.880  21.647  0.00  0.00    +0.000 C 
BRANCH  23  24
ATOM     24  N   UNL     1      -0.417  11.167  22.857  0.00  0.00    +0.000 NA
ATOM     25  H   UNL     1      -1.015  11.407  23.647  0.00  0.00    +0.000 HD
ATOM     26  H   UNL     1       0.520  11.478  23.120  0.00  0.00    +0.000 HD
ENDBRANCH  23  24
ENDBRANCH  18  23
ENDBRANCH   1  16
BRANCH  12  27
ATOM     27  C   UNL     1       4.356   6.726  17.157  0.00  0.00    +0.000 C 
ATOM     28  C   UNL     1       5.845   6.943  17.047  0.00  0.00    +0.000 C 
ATOM     29  C   UNL     1       5.139   6.113  16.021  0.00  0.00    +0.000 C 
ENDBRANCH  12  27
BRANCH  10  30
ATOM     30  C   UNL     1       4.154   2.330  19.297  0.00  0.00    +0.000 C 
ATOM     31  O   UNL     1       3.674   1.416  18.640  0.00  0.00    +0.000 OA
BRANCH  30  32
ATOM     32  O   UNL     1       5.206   2.143  20.122  0.00  0.00    +0.000 OA
ATOM     33  H   UNL     1       6.084   2.127  19.667  0.00  0.00    +0.000 HD
ENDBRANCH  30  32
ENDBRANCH  10  30
TORSDOF 9
ENDMDL
MODEL 2
REMARK VINA RESULT:      -7.8      2.836      8.124
REMARK  Name = 
REMARK  10 active torsions:
REMARK  status: ('A' for Active; 'I' for Inactive)
REMARK    1  A    between atoms: C_1  and  C_2
REMARK    2  A    between atoms: C_2  and  C_3
REMARK    3  A    between atoms: C_3  and  O_4
REMARK    4  A    between atoms: O_4  and  N_5
REMARK    5  A    between atoms: N_8  and  C_9
REMARK    6  A    between atoms: C_18  and  C_19
REMARK    7  A    between atoms: C_19  and  O_21
REMARK    8  A    between atoms: N_23  and  C_24
REMARK    9  A    between atoms: C_28  and  C_29
REMARK   10  A    between atoms: C_29  and  N_30
REMARK                            x       y       z     vdW  Elec       q    Type
REMARK                         _______ _______ _______ _____ _____    ______ ____
ROOT
ATOM      1  C   UNL     1       2.043   7.375  19.498  0.00  0.00    +0.000 A 
ATOM      2  N   UNL     1       1.753   8.674  19.231  0.00  0.00    +0.000 NA
ATOM      3  C   UNL     1       1.126   9.450  20.150  0.00  0.00    +0.000 A 
ATOM      4  C   UNL     1       0.734   8.926  21.385  0.00  0.00    +0.000 A 
ATOM      5  C   UNL     1       1.008   7.595  21.682  0.00  0.00    +0.000 A 
ATOM      6  C   UNL     1       1.663   6.823  20.731  0.00  0.00    +0.000 A 
ATOM      7  F   UNL     1       1.910   5.538  21.028  0.00  0.00    +0.000 F 
ATOM      8  C   UNL     1       0.022   9.783  22.356  0.00  0.00    +0.000 A 
ATOM      9  O   UNL     1      -0.327   9.352  23.453  0.00  0.00    +0.000 OA
ATOM     10  C   UNL     1      -0.288  11.179  21.974  0.00  0.00    +0.000 A 
ATOM     11  C   UNL     1       0.134  11.584  20.768  0.00  0.00    +0.000 A 
ATOM     12  N   UNL     1       0.850  10.820  19.868  0.00  0.00    +0.000 N 
ENDROOT
BRANCH   1  16
ATOM     13  N   UNL     1       5.284   4.187  18.472  0.00  0.00    +0.000 NA
ATOM     14  C   UNL     1       4.258   4.952  18.249  0.00  0.00    +0.000 C 
ATOM     15  C   UNL     1       4.120   6.403  18.641  0.00  0.00    +0.000 C 
ATOM     16  N   UNL     1       2.684   6.641  18.512  0.00  0.00    +0.000 N 
ATOM     17  C   UNL     1       2.002   5.537  17.829  0.00  0.00    +0.000 C 
ATOM     18  C   UNL     1       3.053   4.469  17.484  0.00  0.00    +0.000 C 
BRANCH  13  19
ATOM     19  O   UNL     1       6.275   4.884  19.183  0.00  0.00    +0.000 OA
BRANCH  19  20
ATOM     20  C   UNL     1       7.369   5.152  18.301  0.00  0.00    +0.000 C 
BRANCH  20  22
ATOM     21  C   UNL     1       7.602   7.550  17.554  0.00  0.00    +0.000 C 
ATOM     22  C   UNL     1       7.933   6.531  18.630  0.00  0.00    +0.000 C 
ENDBRANCH  20  22
ENDBRANCH  19  20
ENDBRANCH  13  19
BRANCH  18  23
ATOM     23  C   UNL     1       2.632   3.055  17.879  0.00  0.00    +0.000 C 
BRANCH  23  24
ATOM     24  N   UNL     1       2.640   2.860  19.330  0.00  0.00    +0.000 NA
ATOM     25  H   UNL     1       3.478   3.261  19.749  0.00  0.00    +0.000 HD
ATOM     26  H   UNL     1       2.687   1.858  19.530  0.00  0.00    +0.000 HD
ENDBRANCH  23  24
ENDBRANCH  18  23
ENDBRANCH   1  16
BRANCH  12  27
ATOM     27  C   UNL     1       1.198  11.359  18.543  0.00  0.00    +0.000 C 
ATOM     28  C   UNL     1       1.126  12.819  18.169  0.00  0.00    +0.000 C 
ATOM     29  C   UNL     1       2.461  12.165  18.351  0.00  0.00    +0.000 C 
ENDBRANCH  12  27
BRANCH  10  30
ATOM     30  C   UNL     1      -1.022  12.125  22.836  0.00  0.00    +0.000 C 
ATOM     31  O   UNL     1      -0.544  13.175  23.243  0.00  0.00    +0.000 OA
BRANCH  30  32
ATOM     32  O   UNL     1      -2.278  11.742  23.149  0.00  0.00    +0.000 OA
ATOM     33  H   UNL     1      -2.386  10.768  23.285  0.00  0.00    +0.000 HD
ENDBRANCH  30  32
ENDBRANCH  10  30
TORSDOF 9
ENDMDL
MODEL 3
REMARK VINA RESULT:      -7.8      3.252      8.044
REMARK  Name = 
REMARK  10 active torsions:
REMARK  status: ('A' for Active; 'I' for Inactive)
REMARK    1  A    between atoms: C_1  and  C_2
REMARK    2  A    between atoms: C_2  and  C_3
REMARK    3  A    between atoms: C_3  and  O_4
REMARK    4  A    between atoms: O_4  and  N_5
REMARK    5  A    between atoms: N_8  and  C_9
REMARK    6  A    between atoms: C_18  and  C_19
REMARK    7  A    between atoms: C_19  and  O_21
REMARK    8  A    between atoms: N_23  and  C_24
REMARK    9  A    between atoms: C_28  and  C_29
REMARK   10  A    between atoms: C_29  and  N_30
REMARK                            x       y       z     vdW  Elec       q    Type
REMARK                         _______ _______ _______ _____ _____    ______ ____
ROOT
ATOM      1  C   UNL     1       2.056   7.599  19.183  0.00  0.00    +0.000 A 
ATOM      2  N   UNL     1       1.724   8.904  19.012  0.00  0.00    +0.000 NA
ATOM      3  C   UNL     1       1.112   9.602  20.001  0.00  0.00    +0.000 A 
ATOM      4  C   UNL     1       0.779   8.990  21.212  0.00  0.00    +0.000 A 
ATOM      5  C   UNL     1       1.098   7.650  21.412  0.00  0.00    +0.000 A 
ATOM      6  C   UNL     1       1.736   6.959  20.390  0.00  0.00    +0.000 A 
ATOM      7  F   UNL     1       2.026   5.664  20.594  0.00  0.00    +0.000 F 
ATOM      8  C   UNL     1       0.083   9.763  22.261  0.00  0.00    +0.000 A 
ATOM      9  O   UNL     1      -0.214   9.253  23.340  0.00  0.00    +0.000 OA
ATOM     10  C   UNL     1      -0.276  11.171  21.982  0.00  0.00    +0.000 A 
ATOM     11  C   UNL     1       0.091  11.664  20.791  0.00  0.00    +0.000 A 
ATOM     12  N   UNL     1       0.791  10.979  19.818  0.00  0.00    +0.000 N 
ENDROOT
BRANCH   1  16
ATOM     13  N   UNL     1       6.071   6.444  17.116  0.00  0.00    +0.000 NA
ATOM     14  C   UNL     1       4.793   6.387  17.345  0.00  0.00    +0.000 C 
ATOM     15  C   UNL     1       3.863   7.561  17.532  0.00  0.00    +0.000 C 
ATOM     16  N   UNL     1       2.678   6.948  18.129  0.00  0.00    +0.000 N 
ATOM     17  C   UNL     1       2.727   5.483  18.069  0.00  0.00    +0.000 C 
ATOM     18  C   UNL     1       4.048   5.078  17.394  0.00  0.00    +0.000 C 
BRANCH  13  19
ATOM     19  O   UNL     1       6.510   7.778  17.101  0.00  0.00    +0.000 OA
BRANCH  19  20
ATOM     20  C   UNL     1       7.789   7.846  17.738  0.00  0.00    +0.000 C 
BRANCH  20  22
ATOM     21  C   UNL     1       8.985   9.638  19.050  0.00  0.00    +0.000 C 
ATOM     22  C   UNL     1       8.240   9.303  17.770  0.00  0.00    +0.000 C 
ENDBRANCH  20  22
ENDBRANCH  19  20
ENDBRANCH  13  19
BRANCH  18  23
ATOM     23  C   UNL     1       4.809   3.994  18.153  0.00  0.00    +0.000 C 
BRANCH  23  24
ATOM     24  N   UNL     1       5.593   4.542  19.262  0.00  0.00    +0.000 NA
ATOM     25  H   UNL     1       6.562   4.229  19.216  0.00  0.00    +0.000 HD
ATOM     26  H   UNL     1       5.227   4.171  20.142  0.00  0.00    +0.000 HD
ENDBRANCH  23  24
ENDBRANCH  18  23
ENDBRANCH   1  16
BRANCH  12  27
ATOM     27  C   UNL     1       1.077  11.611  18.519  0.00  0.00    +0.000 C 
ATOM     28  C   UNL     1       1.057  13.100  18.271  0.00  0.00    +0.000 C 
ATOM     29  C   UNL     1       2.364  12.370  18.303  0.00  0.00    +0.000 C 
ENDBRANCH  12  27
BRANCH  10  30
ATOM     30  C   UNL     1      -1.002  12.040  22.929  0.00  0.00    +0.000 C 
ATOM     31  O   UNL     1      -0.552  13.095  23.353  0.00  0.00    +0.000 OA
BRANCH  30  32
ATOM     32  O   UNL     1      -2.215  11.577  23.300  0.00  0.00    +0.000 OA
ATOM     33  H   UNL     1      -2.657  12.113  24.004  0.00  0.00    +0.000 HD
ENDBRANCH  30  32
ENDBRANCH  10  30
TORSDOF 9
ENDMDL
MODEL 4
REMARK VINA RESULT:      -7.7      0.834      1.022
REMARK  Name = 
REMARK  10 active torsions:
REMARK  status: ('A' for Active; 'I' for Inactive)
REMARK    1  A    between atoms: C_1  and  C_2
REMARK    2  A    between atoms: C_2  and  C_3
REMARK    3  A    between atoms: C_3  and  O_4
REMARK    4  A    between atoms: O_4  and  N_5
REMARK    5  A    between atoms: N_8  and  C_9
REMARK    6  A    between atoms: C_18  and  C_19
REMARK    7  A    between atoms: C_19  and  O_21
REMARK    8  A    between atoms: N_23  and  C_24
REMARK    9  A    between atoms: C_28  and  C_29
REMARK   10  A    between atoms: C_29  and  N_30
REMARK                            x       y       z     vdW  Elec       q    Type
REMARK                         _______ _______ _______ _____ _____    ______ ____
ROOT
ATOM      1  C   UNL     1       1.677   8.073  19.687  0.00  0.00    +0.000 A 
ATOM      2  N   UNL     1       2.644   7.492  18.931  0.00  0.00    +0.000 NA
ATOM      3  C   UNL     1       3.009   6.202  19.139  0.00  0.00    +0.000 A 
ATOM      4  C   UNL     1       2.422   5.445  20.157  0.00  0.00    +0.000 A 
ATOM      5  C   UNL     1       1.436   6.018  20.955  0.00  0.00    +0.000 A 
ATOM      6  C   UNL     1       1.070   7.336  20.714  0.00  0.00    +0.000 A 
ATOM      7  F   UNL     1       0.126   7.878  21.500  0.00  0.00    +0.000 F 
ATOM      8  C   UNL     1       2.861   4.053  20.386  0.00  0.00    +0.000 A 
ATOM      9  O   UNL     1       2.356   3.361  21.267  0.00  0.00    +0.000 OA
ATOM     10  C   UNL     1       3.945   3.505  19.542  0.00  0.00    +0.000 A 
ATOM     11  C   UNL     1       4.439   4.312  18.592  0.00  0.00    +0.000 A 
ATOM     12  N   UNL     1       4.007   5.595  18.322  0.00  0.00    +0.000 N 
ENDROOT
BRANCH   1  16
ATOM     13  N   UNL     1      -1.488  11.082  18.058  0.00  0.00    +0.000 NA
ATOM     14  C   UNL     1      -0.409  10.715  18.682  0.00  0.00    +0.000 C 
ATOM     15  C   UNL     1       0.599   9.697  18.206  0.00  0.00    +0.000 C 
ATOM     16  N   UNL     1       1.357   9.395  19.419  0.00  0.00    +0.000 N 
ATOM     17  C   UNL     1       1.056  10.335  20.504  0.00  0.00    +0.000 C 
ATOM     18  C   UNL     1       0.008  11.336  19.991  0.00  0.00    +0.000 C 
BRANCH  13  19
ATOM     19  O   UNL     1      -1.632  10.366  16.859  0.00  0.00    +0.000 OA
BRANCH  19  20
ATOM     20  C   UNL     1      -3.025  10.136  16.626  0.00  0.00    +0.000 C 
BRANCH  20  22
ATOM     21  C   UNL     1      -3.542  10.060  14.159  0.00  0.00    +0.000 C 
ATOM     22  C   UNL     1      -3.451  10.934  15.398  0.00  0.00    +0.000 C 
ENDBRANCH  20  22
ENDBRANCH  19  20
ENDBRANCH  13  19
BRANCH  18  23
ATOM     23  C   UNL     1      -1.164  11.533  20.950  0.00  0.00    +0.000 C 
BRANCH  23  24
ATOM     24  N   UNL     1      -1.973  12.702  20.601  0.00  0.00    +0.000 NA
ATOM     25  H   UNL     1      -2.465  13.064  21.417  0.00  0.00    +0.000 HD
ATOM     26  H   UNL     1      -2.705  12.416  19.946  0.00  0.00    +0.000 HD
ENDBRANCH  23  24
ENDBRANCH  18  23
ENDBRANCH   1  16
BRANCH  12  27
ATOM     27  C   UNL     1       4.678   6.408  17.293  0.00  0.00    +0.000 C 
ATOM     28  C   UNL     1       6.151   6.335  16.974  0.00  0.00    +0.000 C 
ATOM     29  C   UNL     1       5.153   5.777  16.007  0.00  0.00    +0.000 C 
ENDBRANCH  12  27
BRANCH  10  30
ATOM     30  C   UNL     1       4.498   2.145  19.690  0.00  0.00    +0.000 C 
ATOM     31  O   UNL     1       5.196   1.801  20.634  0.00  0.00    +0.000 OA
BRANCH  30  32
ATOM     32  O   UNL     1       4.175   1.295  18.692  0.00  0.00    +0.000 OA
ATOM     33  H   UNL     1       3.203   1.173  18.558  0.00  0.00    +0.000 HD
ENDBRANCH  30  32
ENDBRANCH  10  30
TORSDOF 9
ENDMDL
MODEL 5
REMARK VINA RESULT:      -7.6      2.591      4.216
REMARK  Name = 
REMARK  10 active torsions:
REMARK  status: ('A' for Active; 'I' for Inactive)
REMARK    1  A    between atoms: C_1  and  C_2
REMARK    2  A    between atoms: C_2  and  C_3
REMARK    3  A    between atoms: C_3  and  O_4
REMARK    4  A    between atoms: O_4  and  N_5
REMARK    5  A    between atoms: N_8  and  C_9
REMARK    6  A    between atoms: C_18  and  C_19
REMARK    7  A    between atoms: C_19  and  O_21
REMARK    8  A    between atoms: N_23  and  C_24
REMARK    9  A    between atoms: C_28  and  C_29
REMARK   10  A    between atoms: C_29  and  N_30
REMARK                            x       y       z     vdW  Elec       q    Type
REMARK                         _______ _______ _______ _____ _____    ______ ____
ROOT
ATOM      1  C   UNL     1       1.378   9.054  19.199  0.00  0.00    +0.000 A 
ATOM      2  N   UNL     1       1.592   7.796  19.662  0.00  0.00    +0.000 NA
ATOM      3  C   UNL     1       2.528   6.995  19.094  0.00  0.00    +0.000 A 
ATOM      4  C   UNL     1       3.277   7.431  17.998  0.00  0.00    +0.000 A 
ATOM      5  C   UNL     1       3.072   8.712  17.495  0.00  0.00    +0.000 A 
ATOM      6  C   UNL     1       2.117   9.518  18.100  0.00  0.00    +0.000 A 
ATOM      7  F   UNL     1       1.922  10.747  17.596  0.00  0.00    +0.000 F 
ATOM      8  C   UNL     1       4.267   6.527  17.376  0.00  0.00    +0.000 A 
ATOM      9  O   UNL     1       4.946   6.887  16.417  0.00  0.00    +0.000 OA
ATOM     10  C   UNL     1       4.415   5.159  17.918  0.00  0.00    +0.000 A 
ATOM     11  C   UNL     1       3.651   4.840  18.973  0.00  0.00    +0.000 A 
ATOM     12  N   UNL     1       2.761   5.685  19.606  0.00  0.00    +0.000 N 
ENDROOT
BRANCH   1  16
ATOM     13  N   UNL     1      -0.161  13.316  20.288  0.00  0.00    +0.000 NA
ATOM     14  C   UNL     1      -0.235  12.027  20.146  0.00  0.00    +0.000 C 
ATOM     15  C   UNL     1       0.816  11.020  20.545  0.00  0.00    +0.000 C 
ATOM     16  N   UNL     1       0.405   9.815  19.826  0.00  0.00    +0.000 N 
ATOM     17  C   UNL     1      -0.937   9.950  19.249  0.00  0.00    +0.000 C 
ATOM     18  C   UNL     1      -1.464  11.353  19.592  0.00  0.00    +0.000 C 
BRANCH  13  19
ATOM     19  O   UNL     1       1.077  13.681  20.843  0.00  0.00    +0.000 OA
BRANCH  19  20
ATOM     20  C   UNL     1       1.446  14.967  20.334  0.00  0.00    +0.000 C 
BRANCH  20  22
ATOM     21  C   UNL     1       2.934  13.709  18.733  0.00  0.00    +0.000 C 
ATOM     22  C   UNL     1       1.895  14.806  18.886  0.00  0.00    +0.000 C 
ENDBRANCH  20  22
ENDBRANCH  19  20
ENDBRANCH  13  19
BRANCH  18  23
ATOM     23  C   UNL     1      -2.050  12.092  18.391  0.00  0.00    +0.000 C 
BRANCH  23  24
ATOM     24  N   UNL     1      -1.014  12.712  17.564  0.00  0.00    +0.000 NA
ATOM     25  H   UNL     1      -0.962  13.716  17.734  0.00  0.00    +0.000 HD
ATOM     26  H   UNL     1      -1.273  12.616  16.579  0.00  0.00    +0.000 HD
ENDBRANCH  23  24
ENDBRANCH  18  23
ENDBRANCH   1  16
BRANCH  12  27
ATOM     27  C   UNL     1       1.928   5.195  20.717  0.00  0.00    +0.000 C 
ATOM     28  C   UNL     1       1.003   4.006  20.630  0.00  0.00    +0.000 C 
ATOM     29  C   UNL     1       2.270   3.903  21.420  0.00  0.00    +0.000 C 
ENDBRANCH  12  27
BRANCH  10  30
ATOM     30  C   UNL     1       5.340   4.149  17.368  0.00  0.00    +0.000 C 
ATOM     31  O   UNL     1       5.143   3.560  16.314  0.00  0.00    +0.000 OA
BRANCH  30  32
ATOM     32  O   UNL     1       6.434   3.918  18.124  0.00  0.00    +0.000 OA
ATOM     33  H   UNL     1       6.577   4.578  18.847  0.00  0.00    +0.000 HD
ENDBRANCH  30  32
ENDBRANCH  10  30
TORSDOF 9
ENDMDL
MODEL 6
REMARK VINA RESULT:      -7.4      3.182      8.120
REMARK  Name = 
REMARK  10 active torsions:
REMARK  status: ('A' for Active; 'I' for Inactive)
REMARK    1  A    between atoms: C_1  and  C_2
REMARK    2  A    between atoms: C_2  and  C_3
REMARK    3  A    between atoms: C_3  and  O_4
REMARK    4  A    between atoms: O_4  and  N_5
REMARK    5  A    between atoms: N_8  and  C_9
REMARK    6  A    between atoms: C_18  and  C_19
REMARK    7  A    between atoms: C_19  and  O_21
REMARK    8  A    between atoms: N_23  and  C_24
REMARK    9  A    between atoms: C_28  and  C_29
REMARK   10  A    between atoms: C_29  and  N_30
REMARK                            x       y       z     vdW  Elec       q    Type
REMARK                         _______ _______ _______ _____ _____    ______ ____
ROOT
ATOM      1  C   UNL     1       1.856   7.669  19.206  0.00  0.00    +0.000 A 
ATOM      2  N   UNL     1       1.550   8.979  19.027  0.00  0.00    +0.000 NA
ATOM      3  C   UNL     1       0.982   9.705  20.023  0.00  0.00    +0.000 A 
ATOM      4  C   UNL     1       0.669   9.116  21.251  0.00  0.00    +0.000 A 
ATOM      5  C   UNL     1       0.961   7.771  21.460  0.00  0.00    +0.000 A 
ATOM      6  C   UNL     1       1.554   7.053  20.430  0.00  0.00    +0.000 A 
ATOM      7  F   UNL     1       1.819   5.754  20.643  0.00  0.00    +0.000 F 
ATOM      8  C   UNL     1       0.020   9.918  22.308  0.00  0.00    +0.000 A 
ATOM      9  O   UNL     1      -0.259   9.429  23.401  0.00  0.00    +0.000 OA
ATOM     10  C   UNL     1      -0.313  11.331  22.021  0.00  0.00    +0.000 A 
ATOM     11  C   UNL     1       0.032  11.800  20.813  0.00  0.00    +0.000 A 
ATOM     12  N   UNL     1       0.689  11.087  19.831  0.00  0.00    +0.000 N 
ENDROOT
BRANCH   1  16
ATOM     13  N   UNL     1       5.772   6.099  17.227  0.00  0.00    +0.000 NA
ATOM     14  C   UNL     1       4.489   6.197  17.408  0.00  0.00    +0.000 C 
ATOM     15  C   UNL     1       3.709   7.472  17.619  0.00  0.00    +0.000 C 
ATOM     16  N   UNL     1       2.432   6.990  18.144  0.00  0.00    +0.000 N 
ATOM     17  C   UNL     1       2.298   5.535  18.015  0.00  0.00    +0.000 C 
ATOM     18  C   UNL     1       3.583   4.994  17.367  0.00  0.00    +0.000 C 
BRANCH  13  19
ATOM     19  O   UNL     1       6.378   7.365  17.292  0.00  0.00    +0.000 OA
BRANCH  19  20
ATOM     20  C   UNL     1       7.643   7.235  17.946  0.00  0.00    +0.000 C 
BRANCH  20  22
ATOM     21  C   UNL     1       8.049   5.639  19.857  0.00  0.00    +0.000 C 
ATOM     22  C   UNL     1       7.830   5.779  18.361  0.00  0.00    +0.000 C 
ENDBRANCH  20  22
ENDBRANCH  19  20
ENDBRANCH  13  19
BRANCH  18  23
ATOM     23  C   UNL     1       4.169   3.789  18.099  0.00  0.00    +0.000 C 
BRANCH  23  24
ATOM     24  N   UNL     1       4.721   4.151  19.407  0.00  0.00    +0.000 NA
ATOM     25  H   UNL     1       5.550   3.596  19.620  0.00  0.00    +0.000 HD
ATOM     26  H   UNL     1       4.040   3.914  20.131  0.00  0.00    +0.000 HD
ENDBRANCH  23  24
ENDBRANCH  18  23
ENDBRANCH   1  16
BRANCH  12  27
ATOM     27  C   UNL     1       0.953  11.695  18.516  0.00  0.00    +0.000 C 
ATOM     28  C   UNL     1       1.005  13.181  18.259  0.00  0.00    +0.000 C 
ATOM     29  C   UNL     1       2.270  12.380  18.239  0.00  0.00    +0.000 C 
ENDBRANCH  12  27
BRANCH  10  30
ATOM     30  C   UNL     1      -0.992  12.228  22.975  0.00  0.00    +0.000 C 
ATOM     31  O   UNL     1      -0.501  13.273  23.382  0.00  0.00    +0.000 OA
BRANCH  30  32
ATOM     32  O   UNL     1      -2.210  11.806  23.376  0.00  0.00    +0.000 OA
ATOM     33  H   UNL     1      -2.481  10.932  23.002  0.00  0.00    +0.000 HD
ENDBRANCH  30  32
ENDBRANCH  10  30
TORSDOF 9
ENDMDL
MODEL 7
REMARK VINA RESULT:      -7.3      4.298      8.301
REMARK  Name = 
REMARK  10 active torsions:
REMARK  status: ('A' for Active; 'I' for Inactive)
REMARK    1  A    between atoms: C_1  and  C_2
REMARK    2  A    between atoms: C_2  and  C_3
REMARK    3  A    between atoms: C_3  and  O_4
REMARK    4  A    between atoms: O_4  and  N_5
REMARK    5  A    between atoms: N_8  and  C_9
REMARK    6  A    between atoms: C_18  and  C_19
REMARK    7  A    between atoms: C_19  and  O_21
REMARK    8  A    between atoms: N_23  and  C_24
REMARK    9  A    between atoms: C_28  and  C_29
REMARK   10  A    between atoms: C_29  and  N_30
REMARK                            x       y       z     vdW  Elec       q    Type
REMARK                         _______ _______ _______ _____ _____    ______ ____
ROOT
ATOM      1  C   UNL     1       4.451   5.543  17.129  0.00  0.00    +0.000 A 
ATOM      2  N   UNL     1       3.849   5.088  18.258  0.00  0.00    +0.000 NA
ATOM      3  C   UNL     1       3.026   5.891  18.979  0.00  0.00    +0.000 A 
ATOM      4  C   UNL     1       2.799   7.216  18.598  0.00  0.00    +0.000 A 
ATOM      5  C   UNL     1       3.412   7.713  17.451  0.00  0.00    +0.000 A 
ATOM      6  C   UNL     1       4.240   6.869  16.722  0.00  0.00    +0.000 A 
ATOM      7  F   UNL     1       4.833   7.366  15.625  0.00  0.00    +0.000 F 
ATOM      8  C   UNL     1       1.925   8.079  19.419  0.00  0.00    +0.000 A 
ATOM      9  O   UNL     1       1.700   9.246  19.103  0.00  0.00    +0.000 OA
ATOM     10  C   UNL     1       1.335   7.518  20.654  0.00  0.00    +0.000 A 
ATOM     11  C   UNL     1       1.612   6.236  20.929  0.00  0.00    +0.000 A 
ATOM     12  N   UNL     1       2.378   5.394  20.148  0.00  0.00    +0.000 N 
ENDROOT
BRANCH   1  16
ATOM     13  N   UNL     1       5.875   3.926  12.997  0.00  0.00    +0.000 NA
ATOM     14  C   UNL     1       5.923   4.105  14.283  0.00  0.00    +0.000 C 
ATOM     15  C   UNL     1       4.763   4.013  15.244  0.00  0.00    +0.000 C 
ATOM     16  N   UNL     1       5.280   4.669  16.444  0.00  0.00    +0.000 N 
ATOM     17  C   UNL     1       6.726   4.905  16.363  0.00  0.00    +0.000 C 
ATOM     18  C   UNL     1       7.218   4.383  15.003  0.00  0.00    +0.000 C 
BRANCH  13  19
ATOM     19  O   UNL     1       4.559   3.663  12.584  0.00  0.00    +0.000 OA
BRANCH  19  20
ATOM     20  C   UNL     1       4.601   2.947  11.346  0.00  0.00    +0.000 C 
BRANCH  20  22
ATOM     21  C   UNL     1       3.101   4.249   9.791  0.00  0.00    +0.000 C 
ATOM     22  C   UNL     1       3.227   3.030  10.689  0.00  0.00    +0.000 C 
ENDBRANCH  20  22
ENDBRANCH  19  20
ENDBRANCH  13  19
BRANCH  18  23
ATOM     23  C   UNL     1       8.106   5.377  14.258  0.00  0.00    +0.000 C 
BRANCH  23  24
ATOM     24  N   UNL     1       7.868   5.355  12.813  0.00  0.00    +0.000 NA
ATOM     25  H   UNL     1       8.457   4.660  12.355  0.00  0.00    +0.000 HD
ATOM     26  H   UNL     1       8.149   6.255  12.417  0.00  0.00    +0.000 HD
ENDBRANCH  23  24
ENDBRANCH  18  23
ENDBRANCH   1  16
BRANCH  12  27
ATOM     27  C   UNL     1       2.667   4.020  20.594  0.00  0.00    +0.000 C 
ATOM     28  C   UNL     1       1.927   3.307  21.699  0.00  0.00    +0.000 C 
ATOM     29  C   UNL     1       1.712   2.894  20.276  0.00  0.00    +0.000 C 
ENDBRANCH  12  27
BRANCH  10  30
ATOM     30  C   UNL     1       0.475   8.283  21.578  0.00  0.00    +0.000 C 
ATOM     31  O   UNL     1      -0.716   8.052  21.735  0.00  0.00    +0.000 OA
BRANCH  30  32
ATOM     32  O   UNL     1       1.107   9.273  22.244  0.00  0.00    +0.000 OA
ATOM     33  H   UNL     1       0.747   9.450  23.148  0.00  0.00    +0.000 HD
ENDBRANCH  30  32
ENDBRANCH  10  30
TORSDOF 9
ENDMDL
MODEL 8
REMARK VINA RESULT:      -7.2      2.853      8.191
REMARK  Name = 
REMARK  10 active torsions:
REMARK  status: ('A' for Active; 'I' for Inactive)
REMARK    1  A    between atoms: C_1  and  C_2
REMARK    2  A    between atoms: C_2  and  C_3
REMARK    3  A    between atoms: C_3  and  O_4
REMARK    4  A    between atoms: O_4  and  N_5
REMARK    5  A    between atoms: N_8  and  C_9
REMARK    6  A    between atoms: C_18  and  C_19
REMARK    7  A    between atoms: C_19  and  O_21
REMARK    8  A    between atoms: N_23  and  C_24
REMARK    9  A    between atoms: C_28  and  C_29
REMARK   10  A    between atoms: C_29  and  N_30
REMARK                            x       y       z     vdW  Elec       q    Type
REMARK                         _______ _______ _______ _____ _____    ______ ____
ROOT
ATOM      1  C   UNL     1       1.813   7.751  19.234  0.00  0.00    +0.000 A 
ATOM      2  N   UNL     1       1.071   8.858  18.972  0.00  0.00    +0.000 NA
ATOM      3  C   UNL     1       0.564   9.610  19.981  0.00  0.00    +0.000 A 
ATOM      4  C   UNL     1       0.765   9.250  21.316  0.00  0.00    +0.000 A 
ATOM      5  C   UNL     1       1.513   8.115  21.614  0.00  0.00    +0.000 A 
ATOM      6  C   UNL     1       2.033   7.368  20.565  0.00  0.00    +0.000 A 
ATOM      7  F   UNL     1       2.742   6.269  20.868  0.00  0.00    +0.000 F 
ATOM      8  C   UNL     1       0.174  10.067  22.396  0.00  0.00    +0.000 A 
ATOM      9  O   UNL     1       0.342   9.780  23.579  0.00  0.00    +0.000 OA
ATOM     10  C   UNL     1      -0.652  11.238  22.026  0.00  0.00    +0.000 A 
ATOM     11  C   UNL     1      -0.781  11.499  20.718  0.00  0.00    +0.000 A 
ATOM     12  N   UNL     1      -0.192  10.784  19.694  0.00  0.00    +0.000 N 
ENDROOT
BRANCH   1  16
ATOM     13  N   UNL     1       5.547   6.067  17.009  0.00  0.00    +0.000 NA
ATOM     14  C   UNL     1       4.283   6.187  17.286  0.00  0.00    +0.000 C 
ATOM     15  C   UNL     1       3.534   7.478  17.514  0.00  0.00    +0.000 C 
ATOM     16  N   UNL     1       2.298   7.030  18.153  0.00  0.00    +0.000 N 
ATOM     17  C   UNL     1       2.139   5.574  18.085  0.00  0.00    +0.000 C 
ATOM     18  C   UNL     1       3.364   4.994  17.358  0.00  0.00    +0.000 C 
BRANCH  13  19
ATOM     19  O   UNL     1       6.168   7.326  16.983  0.00  0.00    +0.000 OA
BRANCH  19  20
ATOM     20  C   UNL     1       7.468   7.208  17.568  0.00  0.00    +0.000 C 
BRANCH  20  22
ATOM     21  C   UNL     1       7.964   5.725  19.547  0.00  0.00    +0.000 C 
ATOM     22  C   UNL     1       7.652   5.777  18.061  0.00  0.00    +0.000 C 
ENDBRANCH  20  22
ENDBRANCH  19  20
ENDBRANCH  13  19
BRANCH  18  23
ATOM     23  C   UNL     1       3.994   3.807  18.083  0.00  0.00    +0.000 C 
BRANCH  23  24
ATOM     24  N   UNL     1       4.656   4.207  19.327  0.00  0.00    +0.000 NA
ATOM     25  H   UNL     1       5.562   4.633  19.138  0.00  0.00    +0.000 HD
ATOM     26  H   UNL     1       4.858   3.370  19.878  0.00  0.00    +0.000 HD
ENDBRANCH  23  24
ENDBRANCH  18  23
ENDBRANCH   1  16
BRANCH  12  27
ATOM     27  C   UNL     1      -0.466  11.130  18.289  0.00  0.00    +0.000 C 
ATOM     28  C   UNL     1      -1.555  10.503  17.452  0.00  0.00    +0.000 C 
ATOM     29  C   UNL     1      -1.700  11.918  17.920  0.00  0.00    +0.000 C 
ENDBRANCH  12  27
BRANCH  10  30
ATOM     30  C   UNL     1      -1.326  12.113  23.005  0.00  0.00    +0.000 C 
ATOM     31  O   UNL     1      -0.812  13.121  23.472  0.00  0.00    +0.000 OA
BRANCH  30  32
ATOM     32  O   UNL     1      -2.567  11.714  23.355  0.00  0.00    +0.000 OA
ATOM     33  H   UNL     1      -2.628  11.318  24.260  0.00  0.00    +0.000 HD
ENDBRANCH  30  32
ENDBRANCH  10  30
TORSDOF 9
ENDMDL
MODEL 9
REMARK VINA RESULT:      -7.2      2.904      8.211
REMARK  Name = 
REMARK  10 active torsions:
REMARK  status: ('A' for Active; 'I' for Inactive)
REMARK    1  A    between atoms: C_1  and  C_2
REMARK    2  A    between atoms: C_2  and  C_3
REMARK    3  A    between atoms: C_3  and  O_4
REMARK    4  A    between atoms: O_4  and  N_5
REMARK    5  A    between atoms: N_8  and  C_9
REMARK    6  A    between atoms: C_18  and  C_19
REMARK    7  A    between atoms: C_19  and  O_21
REMARK    8  A    between atoms: N_23  and  C_24
REMARK    9  A    between atoms: C_28  and  C_29
REMARK   10  A    between atoms: C_29  and  N_30
REMARK                            x       y       z     vdW  Elec       q    Type
REMARK                         _______ _______ _______ _____ _____    ______ ____
ROOT
ATOM      1  C   UNL     1       1.821   7.805  19.267  0.00  0.00    +0.000 A 
ATOM      2  N   UNL     1       1.047   8.889  19.002  0.00  0.00    +0.000 NA
ATOM      3  C   UNL     1       0.494   9.612  20.009  0.00  0.00    +0.000 A 
ATOM      4  C   UNL     1       0.680   9.243  21.344  0.00  0.00    +0.000 A 
ATOM      5  C   UNL     1       1.460   8.130  21.644  0.00  0.00    +0.000 A 
ATOM      6  C   UNL     1       2.026   7.414  20.598  0.00  0.00    +0.000 A 
ATOM      7  F   UNL     1       2.766   6.336  20.904  0.00  0.00    +0.000 F 
ATOM      8  C   UNL     1       0.040  10.027  22.420  0.00  0.00    +0.000 A 
ATOM      9  O   UNL     1       0.193   9.732  23.604  0.00  0.00    +0.000 OA
ATOM     10  C   UNL     1      -0.818  11.173  22.047  0.00  0.00    +0.000 A 
ATOM     11  C   UNL     1      -0.929  11.445  20.739  0.00  0.00    +0.000 A 
ATOM     12  N   UNL     1      -0.296  10.763  19.719  0.00  0.00    +0.000 N 
ENDROOT
BRANCH   1  16
ATOM     13  N   UNL     1       5.656   6.356  17.051  0.00  0.00    +0.000 NA
ATOM     14  C   UNL     1       4.387   6.396  17.326  0.00  0.00    +0.000 C 
ATOM     15  C   UNL     1       3.558   7.637  17.550  0.00  0.00    +0.000 C 
ATOM     16  N   UNL     1       2.352   7.114  18.189  0.00  0.00    +0.000 N 
ATOM     17  C   UNL     1       2.285   5.650  18.124  0.00  0.00    +0.000 C 
ATOM     18  C   UNL     1       3.545   5.148  17.400  0.00  0.00    +0.000 C 
BRANCH  13  19
ATOM     19  O   UNL     1       6.196   7.651  17.022  0.00  0.00    +0.000 OA
BRANCH  19  20
ATOM     20  C   UNL     1       7.483   7.626  17.648  0.00  0.00    +0.000 C 
BRANCH  20  22
ATOM     21  C   UNL     1       8.862   9.358  18.856  0.00  0.00    +0.000 C 
ATOM     22  C   UNL     1       8.077   9.030  17.598  0.00  0.00    +0.000 C 
ENDBRANCH  20  22
ENDBRANCH  19  20
ENDBRANCH  13  19
BRANCH  18  23
ATOM     23  C   UNL     1       4.248   4.005  18.128  0.00  0.00    +0.000 C 
BRANCH  23  24
ATOM     24  N   UNL     1       5.136   3.248  17.243  0.00  0.00    +0.000 NA
ATOM     25  H   UNL     1       4.619   2.846  16.462  0.00  0.00    +0.000 HD
ATOM     26  H   UNL     1       5.517   2.451  17.757  0.00  0.00    +0.000 HD
ENDBRANCH  23  24
ENDBRANCH  18  23
ENDBRANCH   1  16
BRANCH  12  27
ATOM     27  C   UNL     1      -0.552  11.116  18.313  0.00  0.00    +0.000 C 
ATOM     28  C   UNL     1      -1.621  10.483  17.455  0.00  0.00    +0.000 C 
ATOM     29  C   UNL     1      -1.790  11.893  17.931  0.00  0.00    +0.000 C 
ENDBRANCH  12  27
BRANCH  10  30
ATOM     30  C   UNL     1      -1.541  12.013  23.021  0.00  0.00    +0.000 C 
ATOM     31  O   UNL     1      -2.641  11.726  23.471  0.00  0.00    +0.000 OA
BRANCH  30  32
ATOM     32  O   UNL     1      -0.891  13.141  23.382  0.00  0.00    +0.000 OA
ATOM     33  H   UNL     1      -1.439  13.778  23.904  0.00  0.00    +0.000 HD
ENDBRANCH  30  32
ENDBRANCH  10  30
TORSDOF 9
ENDMDL
