MODEL 1
REMARK VINA RESULT:      -8.1      0.000      0.000
REMARK  Name = 
REMARK  9 active torsions:
REMARK  status: ('A' for Active; 'I' for Inactive)
REMARK    1  A    between atoms: C_1  and  O_2
REMARK    2  A    between atoms: O_2  and  C_3
REMARK    3  A    between atoms: C_5  and  C_6
REMARK    4  A    between atoms: C_6  and  N_7
REMARK    5  A    between atoms: C_12  and  O_13
REMARK    6  A    between atoms: O_13  and  C_14
REMARK    7  A    between atoms: C_15  and  O_16
REMARK    8  A    between atoms: O_16  and  C_17
REMARK    9  A    between atoms: C_27  and  O_28
REMARK                            x       y       z     vdW  Elec       q    Type
REMARK                         _______ _______ _______ _____ _____    ______ ____
ROOT
ATOM      1  N   UNL     1       1.912   6.817  19.323  0.00  0.00    +0.000 NA
ATOM      2  C   UNL     1       2.193   5.403  19.695  0.00  0.00    +0.000 C 
ATOM      3  C   UNL     1       2.535   4.543  18.516  0.00  0.00    +0.000 C 
ATOM      4  C   UNL     1       3.827   5.112  18.041  0.00  0.00    +0.000 A 
ATOM      5  C   UNL     1       5.060   4.519  18.285  0.00  0.00    +0.000 A 
ATOM      6  C   UNL     1       6.160   5.089  17.701  0.00  0.00    +0.000 A 
ATOM      7  C   UNL     1       5.983   5.989  16.649  0.00  0.00    +0.000 A 
ATOM      8  C   UNL     1       4.826   6.763  16.642  0.00  0.00    +0.000 A 
ATOM      9  C   UNL     1       3.813   6.416  17.563  0.00  0.00    +0.000 A 
ATOM     10  C   UNL     1       2.797   7.372  18.225  0.00  0.00    +0.000 C 
ENDROOT
BRANCH   6  11
ATOM     11  O   UNL     1       7.410   4.742  18.166  0.00  0.00    +0.000 OA
ATOM     12  C   UNL     1       7.877   5.716  19.120  0.00  0.00    +0.000 C 
ENDBRANCH   6  11
BRANCH   1  13
ATOM     13  C   UNL     1       1.971   7.517  20.627  0.00  0.00    +0.000 C 
BRANCH  13  16
ATOM     14  C   UNL     1      -0.280  10.621  20.267  0.00  0.00    +0.000 A 
ATOM     15  C   UNL     1       0.610   9.578  19.932  0.00  0.00    +0.000 A 
ATOM     16  C   UNL     1       1.157   8.750  20.914  0.00  0.00    +0.000 A 
ATOM     17  C   UNL     1       0.756   8.946  22.250  0.00  0.00    +0.000 A 
ATOM     18  C   UNL     1      -0.126   9.964  22.596  0.00  0.00    +0.000 A 
ATOM     19  C   UNL     1      -0.637  10.802  21.602  0.00  0.00    +0.000 A 
BRANCH  14  21
ATOM     20  C   UNL     1      -1.895  10.866  18.520  0.00  0.00    +0.000 C 
ATOM     21  O   UNL     1      -0.715  11.319  19.170  0.00  0.00    +0.000 OA
ENDBRANCH  14  21
BRANCH  19  22
ATOM     22  O   UNL     1      -1.516  11.781  22.005  0.00  0.00    +0.000 OA
ATOM     23  H   UNL     1      -1.693  11.681  22.953  0.00  0.00    +0.000 HD
ENDBRANCH  19  22
ENDBRANCH  13  16
ENDBRANCH   1  13
BRANCH   7  24
ATOM     24  O   UNL     1       6.890   5.773  15.669  0.00  0.00    +0.000 OA
BRANCH  24  25
ATOM     25  C   UNL     1       7.029   4.619  14.868  0.00  0.00    +0.000 C 
ATOM     26  C   UNL     1       5.581   4.271  14.477  0.00  0.00    +0.000 C 
ATOM     27  C   UNL     1       5.624   3.705  13.076  0.00  0.00    +0.000 C 
ATOM     28  C   UNL     1       6.890   4.254  12.440  0.00  0.00    +0.000 C 
ATOM     29  C   UNL     1       7.705   4.931  13.541  0.00  0.00    +0.000 C 
ENDBRANCH  24  25
ENDBRANCH   7  24
TORSDOF 7
ENDMDL
MODEL 2
REMARK VINA RESULT:      -8.0      0.843      1.602
REMARK  Name = 
REMARK  9 active torsions:
REMARK  status: ('A' for Active; 'I' for Inactive)
REMARK    1  A    between atoms: C_1  and  O_2
REMARK    2  A    between atoms: O_2  and  C_3
REMARK    3  A    between atoms: C_5  and  C_6
REMARK    4  A    between atoms: C_6  and  N_7
REMARK    5  A    between atoms: C_12  and  O_13
REMARK    6  A    between atoms: O_13  and  C_14
REMARK    7  A    between atoms: C_15  and  O_16
REMARK    8  A    between atoms: O_16  and  C_17
REMARK    9  A    between atoms: C_27  and  O_28
REMARK                            x       y       z     vdW  Elec       q    Type
REMARK                         _______ _______ _______ _____ _____    ______ ____
ROOT
ATOM      1  N   UNL     1       2.000   6.776  18.977  0.00  0.00    +0.000 NA
ATOM      2  C   UNL     1       2.295   5.389  19.433  0.00  0.00    +0.000 C 
ATOM      3  C   UNL     1       2.715   4.481  18.317  0.00  0.00    +0.000 C 
ATOM      4  C   UNL     1       4.016   5.058  17.879  0.00  0.00    +0.000 A 
ATOM      5  C   UNL     1       5.248   4.510  18.214  0.00  0.00    +0.000 A 
ATOM      6  C   UNL     1       6.364   5.079  17.657  0.00  0.00    +0.000 A 
ATOM      7  C   UNL     1       6.220   5.920  16.553  0.00  0.00    +0.000 A 
ATOM      8  C   UNL     1       5.047   6.664  16.449  0.00  0.00    +0.000 A 
ATOM      9  C   UNL     1       3.996   6.337  17.335  0.00  0.00    +0.000 A 
ATOM     10  C   UNL     1       2.926   7.298  17.897  0.00  0.00    +0.000 C 
ENDROOT
BRANCH   6  11
ATOM     11  O   UNL     1       7.596   4.787  18.200  0.00  0.00    +0.000 OA
ATOM     12  C   UNL     1       7.960   5.782  19.177  0.00  0.00    +0.000 C 
ENDBRANCH   6  11
BRANCH   1  13
ATOM     13  C   UNL     1       1.976   7.540  20.245  0.00  0.00    +0.000 C 
BRANCH  13  16
ATOM     14  C   UNL     1       0.186  10.624  21.699  0.00  0.00    +0.000 A 
ATOM     15  C   UNL     1       0.753   9.334  21.611  0.00  0.00    +0.000 A 
ATOM     16  C   UNL     1       1.208   8.826  20.393  0.00  0.00    +0.000 A 
ATOM     17  C   UNL     1       1.138   9.655  19.257  0.00  0.00    +0.000 A 
ATOM     18  C   UNL     1       0.590  10.931  19.328  0.00  0.00    +0.000 A 
ATOM     19  C   UNL     1       0.110  11.408  20.551  0.00  0.00    +0.000 A 
BRANCH  14  21
ATOM     20  C   UNL     1      -1.580  11.127  23.231  0.00  0.00    +0.000 C 
ATOM     21  O   UNL     1      -0.194  10.949  22.976  0.00  0.00    +0.000 OA
ENDBRANCH  14  21
BRANCH  19  22
ATOM     22  O   UNL     1      -0.407  12.684  20.560  0.00  0.00    +0.000 OA
ATOM     23  H   UNL     1      -0.638  12.942  19.655  0.00  0.00    +0.000 HD
ENDBRANCH  19  22
ENDBRANCH  13  16
ENDBRANCH   1  13
BRANCH   7  24
ATOM     24  O   UNL     1       7.180   5.679  15.632  0.00  0.00    +0.000 OA
BRANCH  24  25
ATOM     25  C   UNL     1       7.270   4.577  14.754  0.00  0.00    +0.000 C 
ATOM     26  C   UNL     1       5.801   4.180  14.518  0.00  0.00    +0.000 C 
ATOM     27  C   UNL     1       5.699   3.691  13.090  0.00  0.00    +0.000 C 
ATOM     28  C   UNL     1       6.856   4.333  12.342  0.00  0.00    +0.000 C 
ATOM     29  C   UNL     1       7.768   4.991  13.377  0.00  0.00    +0.000 C 
ENDBRANCH  24  25
ENDBRANCH   7  24
TORSDOF 7
ENDMDL
MODEL 3
REMARK VINA RESULT:      -7.7      0.843      1.155
REMARK  Name = 
REMARK  9 active torsions:
REMARK  status: ('A' for Active; 'I' for Inactive)
REMARK    1  A    between atoms: C_1  and  O_2
REMARK    2  A    between atoms: O_2  and  C_3
REMARK    3  A    between atoms: C_5  and  C_6
REMARK    4  A    between atoms: C_6  and  N_7
REMARK    5  A    between atoms: C_12  and  O_13
REMARK    6  A    between atoms: O_13  and  C_14
REMARK    7  A    between atoms: C_15  and  O_16
REMARK    8  A    between atoms: O_16  and  C_17
REMARK    9  A    between atoms: C_27  and  O_28
REMARK                            x       y       z     vdW  Elec       q    Type
REMARK                         _______ _______ _______ _____ _____    ______ ____
ROOT
ATOM      1  N   UNL     1       1.587   7.196  20.079  0.00  0.00    +0.000 NA
ATOM      2  C   UNL     1       1.821   5.854  20.682  0.00  0.00    +0.000 C 
ATOM      3  C   UNL     1       1.996   4.774  19.657  0.00  0.00    +0.000 C 
ATOM      4  C   UNL     1       3.267   5.151  18.978  0.00  0.00    +0.000 A 
ATOM      5  C   UNL     1       4.481   4.521  19.222  0.00  0.00    +0.000 A 
ATOM      6  C   UNL     1       5.551   4.894  18.452  0.00  0.00    +0.000 A 
ATOM      7  C   UNL     1       5.325   5.602  17.270  0.00  0.00    +0.000 A 
ATOM      8  C   UNL     1       4.220   6.446  17.218  0.00  0.00    +0.000 A 
ATOM      9  C   UNL     1       3.282   6.346  18.269  0.00  0.00    +0.000 A 
ATOM     10  C   UNL     1       2.392   7.478  18.827  0.00  0.00    +0.000 C 
ENDROOT
BRANCH   6  11
ATOM     11  O   UNL     1       6.818   4.543  18.865  0.00  0.00    +0.000 OA
ATOM     12  C   UNL     1       7.562   5.718  19.247  0.00  0.00    +0.000 C 
ENDBRANCH   6  11
BRANCH   1  13
ATOM     13  C   UNL     1       1.812   8.112  21.221  0.00  0.00    +0.000 C 
BRANCH  13  16
ATOM     14  C   UNL     1      -0.520  11.153  20.838  0.00  0.00    +0.000 A 
ATOM     15  C   UNL     1       0.458  10.181  20.536  0.00  0.00    +0.000 A 
ATOM     16  C   UNL     1       0.906   9.281  21.504  0.00  0.00    +0.000 A 
ATOM     17  C   UNL     1       0.318   9.329  22.783  0.00  0.00    +0.000 A 
ATOM     18  C   UNL     1      -0.652  10.275  23.094  0.00  0.00    +0.000 A 
ATOM     19  C   UNL     1      -1.063  11.188  22.120  0.00  0.00    +0.000 A 
BRANCH  14  21
ATOM     20  C   UNL     1      -1.967  11.574  18.981  0.00  0.00    +0.000 C 
ATOM     21  O   UNL     1      -0.836  11.939  19.760  0.00  0.00    +0.000 OA
ENDBRANCH  14  21
BRANCH  19  22
ATOM     22  O   UNL     1      -2.037  12.090  22.485  0.00  0.00    +0.000 OA
ATOM     23  H   UNL     1      -2.647  11.667  23.109  0.00  0.00    +0.000 HD
ENDBRANCH  19  22
ENDBRANCH  13  16
ENDBRANCH   1  13
BRANCH   7  24
ATOM     24  O   UNL     1       6.120   5.146  16.274  0.00  0.00    +0.000 OA
BRANCH  24  25
ATOM     25  C   UNL     1       5.906   5.266  14.884  0.00  0.00    +0.000 C 
ATOM     26  C   UNL     1       7.328   5.237  14.294  0.00  0.00    +0.000 C 
ATOM     27  C   UNL     1       7.241   4.524  12.963  0.00  0.00    +0.000 C 
ATOM     28  C   UNL     1       6.005   3.642  13.040  0.00  0.00    +0.000 C 
ATOM     29  C   UNL     1       5.240   4.026  14.306  0.00  0.00    +0.000 C 
ENDBRANCH  24  25
ENDBRANCH   7  24
TORSDOF 7
ENDMDL
MODEL 4
REMARK VINA RESULT:      -7.5      1.294      1.674
REMARK  Name = 
REMARK  9 active torsions:
REMARK  status: ('A' for Active; 'I' for Inactive)
REMARK    1  A    between atoms: C_1  and  O_2
REMARK    2  A    between atoms: O_2  and  C_3
REMARK    3  A    between atoms: C_5  and  C_6
REMARK    4  A    between atoms: C_6  and  N_7
REMARK    5  A    between atoms: C_12  and  O_13
REMARK    6  A    between atoms: O_13  and  C_14
REMARK    7  A    between atoms: C_15  and  O_16
REMARK    8  A    between atoms: O_16  and  C_17
REMARK    9  A    between atoms: C_27  and  O_28
REMARK                            x       y       z     vdW  Elec       q    Type
REMARK                         _______ _______ _______ _____ _____    ______ ____
ROOT
ATOM      1  N   UNL     1       2.267   5.093  19.423  0.00  0.00    +0.000 NA
ATOM      2  C   UNL     1       3.265   4.111  19.930  0.00  0.00    +0.000 C 
ATOM      3  C   UNL     1       3.895   3.299  18.839  0.00  0.00    +0.000 C 
ATOM      4  C   UNL     1       4.666   4.309  18.063  0.00  0.00    +0.000 A 
ATOM      5  C   UNL     1       6.044   4.460  18.158  0.00  0.00    +0.000 A 
ATOM      6  C   UNL     1       6.640   5.356  17.309  0.00  0.00    +0.000 A 
ATOM      7  C   UNL     1       5.936   5.808  16.192  0.00  0.00    +0.000 A 
ATOM      8  C   UNL     1       4.550   5.898  16.289  0.00  0.00    +0.000 A 
ATOM      9  C   UNL     1       3.942   5.306  17.418  0.00  0.00    +0.000 A 
ATOM     10  C   UNL     1       2.642   5.761  18.116  0.00  0.00    +0.000 C 
ENDROOT
BRANCH   6  11
ATOM     11  O   UNL     1       7.926   5.769  17.581  0.00  0.00    +0.000 OA
ATOM     12  C   UNL     1       7.911   7.067  18.208  0.00  0.00    +0.000 C 
ENDBRANCH   6  11
BRANCH   1  13
ATOM     13  C   UNL     1       2.071   5.991  20.584  0.00  0.00    +0.000 C 
BRANCH  13  16
ATOM     14  C   UNL     1       1.268   9.471  19.145  0.00  0.00    +0.000 A 
ATOM     15  C   UNL     1       1.856   8.197  19.291  0.00  0.00    +0.000 A 
ATOM     16  C   UNL     1       1.625   7.420  20.428  0.00  0.00    +0.000 A 
ATOM     17  C   UNL     1       0.745   7.918  21.408  0.00  0.00    +0.000 A 
ATOM     18  C   UNL     1       0.151   9.169  21.275  0.00  0.00    +0.000 A 
ATOM     19  C   UNL     1       0.421   9.943  20.144  0.00  0.00    +0.000 A 
BRANCH  14  21
ATOM     20  C   UNL     1       2.322  11.302  18.023  0.00  0.00    +0.000 C 
ATOM     21  O   UNL     1       1.605  10.077  17.961  0.00  0.00    +0.000 OA
ENDBRANCH  14  21
BRANCH  19  22
ATOM     22  O   UNL     1      -0.208  11.165  20.063  0.00  0.00    +0.000 OA
ATOM     23  H   UNL     1      -0.282  11.426  19.132  0.00  0.00    +0.000 HD
ENDBRANCH  19  22
ENDBRANCH  13  16
ENDBRANCH   1  13
BRANCH   7  24
ATOM     24  O   UNL     1       6.736   5.859  15.103  0.00  0.00    +0.000 OA
BRANCH  24  25
ATOM     25  C   UNL     1       7.222   4.772  14.344  0.00  0.00    +0.000 C 
ATOM     26  C   UNL     1       5.945   4.028  13.917  0.00  0.00    +0.000 C 
ATOM     27  C   UNL     1       6.200   3.465  12.536  0.00  0.00    +0.000 C 
ATOM     28  C   UNL     1       7.289   4.332  11.925  0.00  0.00    +0.000 C 
ATOM     29  C   UNL     1       7.839   5.232  13.031  0.00  0.00    +0.000 C 
ENDBRANCH  24  25
ENDBRANCH   7  24
TORSDOF 7
ENDMDL
MODEL 5
REMARK VINA RESULT:      -7.5      1.905      8.434
REMARK  Name = 
REMARK  9 active torsions:
REMARK  status: ('A' for Active; 'I' for Inactive)
REMARK    1  A    between atoms: C_1  and  O_2
REMARK    2  A    between atoms: O_2  and  C_3
REMARK    3  A    between atoms: C_5  and  C_6
REMARK    4  A    between atoms: C_6  and  N_7
REMARK    5  A    between atoms: C_12  and  O_13
REMARK    6  A    between atoms: O_13  and  C_14
REMARK    7  A    between atoms: C_15  and  O_16
REMARK    8  A    between atoms: O_16  and  C_17
REMARK    9  A    between atoms: C_27  and  O_28
REMARK                            x       y       z     vdW  Elec       q    Type
REMARK                         _______ _______ _______ _____ _____    ______ ____
ROOT
ATOM      1  N   UNL     1       3.699   3.505  19.140  0.00  0.00    +0.000 NA
ATOM      2  C   UNL     1       3.392   3.981  17.762  0.00  0.00    +0.000 C 
ATOM      3  C   UNL     1       2.002   4.523  17.625  0.00  0.00    +0.000 C 
ATOM      4  C   UNL     1       2.021   5.736  18.488  0.00  0.00    +0.000 A 
ATOM      5  C   UNL     1       2.112   7.030  17.988  0.00  0.00    +0.000 A 
ATOM      6  C   UNL     1       2.012   8.061  18.885  0.00  0.00    +0.000 A 
ATOM      7  C   UNL     1       1.496   7.809  20.157  0.00  0.00    +0.000 A 
ATOM      8  C   UNL     1       1.707   6.547  20.708  0.00  0.00    +0.000 A 
ATOM      9  C   UNL     1       2.217   5.547  19.851  0.00  0.00    +0.000 A 
ATOM     10  C   UNL     1       3.116   4.357  20.250  0.00  0.00    +0.000 C 
ENDROOT
BRANCH   6  11
ATOM     11  O   UNL     1       2.414   9.319  18.493  0.00  0.00    +0.000 OA
ATOM     12  C   UNL     1       1.382   9.951  17.709  0.00  0.00    +0.000 C 
ENDBRANCH   6  11
BRANCH   1  13
ATOM     13  C   UNL     1       5.174   3.375  19.122  0.00  0.00    +0.000 C 
BRANCH  13  16
ATOM     14  C   UNL     1       7.057   5.471  16.497  0.00  0.00    +0.000 A 
ATOM     15  C   UNL     1       6.354   4.398  17.086  0.00  0.00    +0.000 A 
ATOM     16  C   UNL     1       6.062   4.389  18.452  0.00  0.00    +0.000 A 
ATOM     17  C   UNL     1       6.439   5.505  19.222  0.00  0.00    +0.000 A 
ATOM     18  C   UNL     1       7.125   6.574  18.655  0.00  0.00    +0.000 A 
ATOM     19  C   UNL     1       7.436   6.549  17.293  0.00  0.00    +0.000 A 
BRANCH  14  21
ATOM     20  C   UNL     1       6.546   4.244  14.508  0.00  0.00    +0.000 C 
ATOM     21  O   UNL     1       7.242   5.305  15.149  0.00  0.00    +0.000 OA
ENDBRANCH  14  21
BRANCH  19  22
ATOM     22  O   UNL     1       8.103   7.642  16.788  0.00  0.00    +0.000 OA
ATOM     23  H   UNL     1       7.461   8.256  16.400  0.00  0.00    +0.000 HD
ENDBRANCH  19  22
ENDBRANCH  13  16
ENDBRANCH   1  13
BRANCH   7  24
ATOM     24  O   UNL     1       0.655   8.796  20.542  0.00  0.00    +0.000 OA
BRANCH  24  25
ATOM     25  C   UNL     1       0.742   9.590  21.707  0.00  0.00    +0.000 C 
ATOM     26  C   UNL     1       0.338  10.994  21.220  0.00  0.00    +0.000 C 
ATOM     27  C   UNL     1      -0.410  11.658  22.354  0.00  0.00    +0.000 C 
ATOM     28  C   UNL     1      -0.964  10.530  23.209  0.00  0.00    +0.000 C 
ATOM     29  C   UNL     1      -0.334   9.226  22.719  0.00  0.00    +0.000 C 
ENDBRANCH  24  25
ENDBRANCH   7  24
TORSDOF 7
ENDMDL
MODEL 6
REMARK VINA RESULT:      -7.5      1.072      1.904
REMARK  Name = 
REMARK  9 active torsions:
REMARK  status: ('A' for Active; 'I' for Inactive)
REMARK    1  A    between atoms: C_1  and  O_2
REMARK    2  A    between atoms: O_2  and  C_3
REMARK    3  A    between atoms: C_5  and  C_6
REMARK    4  A    between atoms: C_6  and  N_7
REMARK    5  A    between atoms: C_12  and  O_13
REMARK    6  A    between atoms: O_13  and  C_14
REMARK    7  A    between atoms: C_15  and  O_16
REMARK    8  A    between atoms: O_16  and  C_17
REMARK    9  A    between atoms: C_27  and  O_28
REMARK                            x       y       z     vdW  Elec       q    Type
REMARK                         _______ _______ _______ _____ _____    ______ ____
ROOT
ATOM      1  N   UNL     1       1.849   6.047  19.686  0.00  0.00    +0.000 NA
ATOM      2  C   UNL     1       2.433   4.841  20.337  0.00  0.00    +0.000 C 
ATOM      3  C   UNL     1       2.794   3.765  19.359  0.00  0.00    +0.000 C 
ATOM      4  C   UNL     1       3.893   4.380  18.565  0.00  0.00    +0.000 A 
ATOM      5  C   UNL     1       5.235   4.069  18.746  0.00  0.00    +0.000 A 
ATOM      6  C   UNL     1       6.135   4.628  17.876  0.00  0.00    +0.000 A 
ATOM      7  C   UNL     1       5.673   5.180  16.681  0.00  0.00    +0.000 A 
ATOM      8  C   UNL     1       4.397   5.738  16.671  0.00  0.00    +0.000 A 
ATOM      9  C   UNL     1       3.579   5.494  17.796  0.00  0.00    +0.000 A 
ATOM     10  C   UNL     1       2.483   6.423  18.362  0.00  0.00    +0.000 C 
ENDROOT
BRANCH   6  11
ATOM     11  O   UNL     1       7.473   4.611  18.208  0.00  0.00    +0.000 OA
ATOM     12  C   UNL     1       7.842   5.846  18.854  0.00  0.00    +0.000 C 
ENDBRANCH   6  11
BRANCH   1  13
ATOM     13  C   UNL     1       1.922   7.066  20.759  0.00  0.00    +0.000 C 
BRANCH  13  16
ATOM     14  C   UNL     1       0.415  10.532  21.497  0.00  0.00    +0.000 A 
ATOM     15  C   UNL     1       0.832   9.197  21.684  0.00  0.00    +0.000 A 
ATOM     16  C   UNL     1       1.300   8.430  20.615  0.00  0.00    +0.000 A 
ATOM     17  C   UNL     1       1.399   9.039  19.350  0.00  0.00    +0.000 A 
ATOM     18  C   UNL     1       0.999  10.356  19.151  0.00  0.00    +0.000 A 
ATOM     19  C   UNL     1       0.503  11.096  20.226  0.00  0.00    +0.000 A 
BRANCH  14  21
ATOM     20  C   UNL     1      -1.222  10.668  23.236  0.00  0.00    +0.000 C 
ATOM     21  O   UNL     1      -0.005  11.123  22.661  0.00  0.00    +0.000 OA
ENDBRANCH  14  21
BRANCH  19  22
ATOM     22  O   UNL     1       0.138  12.398  19.969  0.00  0.00    +0.000 OA
ATOM     23  H   UNL     1       0.606  12.988  20.580  0.00  0.00    +0.000 HD
ENDBRANCH  19  22
ENDBRANCH  13  16
ENDBRANCH   1  13
BRANCH   7  24
ATOM     24  O   UNL     1       6.488   4.856  15.651  0.00  0.00    +0.000 OA
BRANCH  24  25
ATOM     25  C   UNL     1       6.236   5.023  14.272  0.00  0.00    +0.000 C 
ATOM     26  C   UNL     1       7.642   5.091  13.651  0.00  0.00    +0.000 C 
ATOM     27  C   UNL     1       7.560   4.430  12.293  0.00  0.00    +0.000 C 
ATOM     28  C   UNL     1       6.372   3.484  12.359  0.00  0.00    +0.000 C 
ATOM     29  C   UNL     1       5.619   3.775  13.656  0.00  0.00    +0.000 C 
ENDBRANCH  24  25
ENDBRANCH   7  24
TORSDOF 7
ENDMDL
MODEL 7
REMARK VINA RESULT:      -7.4      2.008      8.533
REMARK  Name = 
REMARK  9 active torsions:
REMARK  status: ('A' for Active; 'I' for Inactive)
REMARK    1  A    between atoms: C_1  and  O_2
REMARK    2  A    between atoms: O_2  and  C_3
REMARK    3  A    between atoms: C_5  and  C_6
REMARK    4  A    between atoms: C_6  and  N_7
REMARK    5  A    between atoms: C_12  and  O_13
REMARK    6  A    between atoms: O_13  and  C_14
REMARK    7  A    between atoms: C_15  and  O_16
REMARK    8  A    between atoms: O_16  and  C_17
REMARK    9  A    between atoms: C_27  and  O_28
REMARK                            x       y       z     vdW  Elec       q    Type
REMARK                         _______ _______ _______ _____ _____    ______ ____
ROOT
ATOM      1  N   UNL     1       3.121   3.053  18.464  0.00  0.00    +0.000 NA
ATOM      2  C   UNL     1       2.503   3.682  17.264  0.00  0.00    +0.000 C 
ATOM      3  C   UNL     1       1.249   4.440  17.581  0.00  0.00    +0.000 C 
ATOM      4  C   UNL     1       1.734   5.561  18.433  0.00  0.00    +0.000 A 
ATOM      5  C   UNL     1       1.892   6.862  17.970  0.00  0.00    +0.000 A 
ATOM      6  C   UNL     1       2.244   7.819  18.886  0.00  0.00    +0.000 A 
ATOM      7  C   UNL     1       2.097   7.545  20.247  0.00  0.00    +0.000 A 
ATOM      8  C   UNL     1       2.244   6.225  20.665  0.00  0.00    +0.000 A 
ATOM      9  C   UNL     1       2.294   5.233  19.662  0.00  0.00    +0.000 A 
ATOM     10  C   UNL     1       3.053   3.889  19.726  0.00  0.00    +0.000 C 
ENDROOT
BRANCH   6  11
ATOM     11  O   UNL     1       2.719   9.029  18.429  0.00  0.00    +0.000 OA
ATOM     12  C   UNL     1       1.694   9.720  17.687  0.00  0.00    +0.000 C 
ENDBRANCH   6  11
BRANCH   1  13
ATOM     13  C   UNL     1       4.478   2.699  17.986  0.00  0.00    +0.000 C 
BRANCH  13  16
ATOM     14  C   UNL     1       6.979   5.324  16.688  0.00  0.00    +0.000 A 
ATOM     15  C   UNL     1       6.131   4.616  17.567  0.00  0.00    +0.000 A 
ATOM     16  C   UNL     1       5.281   3.612  17.099  0.00  0.00    +0.000 A 
ATOM     17  C   UNL     1       5.328   3.282  15.731  0.00  0.00    +0.000 A 
ATOM     18  C   UNL     1       6.164   3.964  14.853  0.00  0.00    +0.000 A 
ATOM     19  C   UNL     1       6.983   4.988  15.336  0.00  0.00    +0.000 A 
BRANCH  14  21
ATOM     20  C   UNL     1       7.211   7.575  17.460  0.00  0.00    +0.000 C 
ATOM     21  O   UNL     1       7.742   6.263  17.331  0.00  0.00    +0.000 OA
ENDBRANCH  14  21
BRANCH  19  22
ATOM     22  O   UNL     1       7.798   5.615  14.422  0.00  0.00    +0.000 OA
ATOM     23  H   UNL     1       7.989   5.006  13.692  0.00  0.00    +0.000 HD
ENDBRANCH  19  22
ENDBRANCH  13  16
ENDBRANCH   1  13
BRANCH   7  24
ATOM     24  O   UNL     1       1.593   8.615  20.904  0.00  0.00    +0.000 OA
BRANCH  24  25
ATOM     25  C   UNL     1       0.247   8.846  21.261  0.00  0.00    +0.000 C 
ATOM     26  C   UNL     1       0.321   9.183  22.761  0.00  0.00    +0.000 C 
ATOM     27  C   UNL     1      -0.753  10.211  23.038  0.00  0.00    +0.000 C 
ATOM     28  C   UNL     1      -1.024  10.902  21.712  0.00  0.00    +0.000 C 
ATOM     29  C   UNL     1      -0.296  10.116  20.622  0.00  0.00    +0.000 C 
ENDBRANCH  24  25
ENDBRANCH   7  24
TORSDOF 7
ENDMDL
MODEL 8
REMARK VINA RESULT:      -7.4      1.952      8.329
REMARK  Name = 
REMARK  9 active torsions:
REMARK  status: ('A' for Active; 'I' for Inactive)
REMARK    1  A    between atoms: C_1  and  O_2
REMARK    2  A    between atoms: O_2  and  C_3
REMARK    3  A    between atoms: C_5  and  C_6
REMARK    4  A    between atoms: C_6  and  N_7
REMARK    5  A    between atoms: C_12  and  O_13
REMARK    6  A    between atoms: O_13  and  C_14
REMARK    7  A    between atoms: C_15  and  O_16
REMARK    8  A    between atoms: O_16  and  C_17
REMARK    9  A    between atoms: C_27  and  O_28
REMARK                            x       y       z     vdW  Elec       q    Type
REMARK                         _______ _______ _______ _____ _____    ______ ____
ROOT
ATOM      1  N   UNL     1       3.118   3.038  18.451  0.00  0.00    +0.000 NA
ATOM      2  C   UNL     1       2.492   3.713  17.280  0.00  0.00    +0.000 C 
ATOM      3  C   UNL     1       1.234   4.449  17.631  0.00  0.00    +0.000 C 
ATOM      4  C   UNL     1       1.715   5.537  18.528  0.00  0.00    +0.000 A 
ATOM      5  C   UNL     1       1.863   6.857  18.120  0.00  0.00    +0.000 A 
ATOM      6  C   UNL     1       2.212   7.777  19.074  0.00  0.00    +0.000 A 
ATOM      7  C   UNL     1       2.070   7.445  20.422  0.00  0.00    +0.000 A 
ATOM      8  C   UNL     1       2.227   6.110  20.785  0.00  0.00    +0.000 A 
ATOM      9  C   UNL     1       2.280   5.161  19.741  0.00  0.00    +0.000 A 
ATOM     10  C   UNL     1       3.048   3.821  19.746  0.00  0.00    +0.000 C 
ENDROOT
BRANCH   6  11
ATOM     11  O   UNL     1       2.678   9.007  18.666  0.00  0.00    +0.000 OA
ATOM     12  C   UNL     1       1.829   9.546  17.632  0.00  0.00    +0.000 C 
ENDBRANCH   6  11
BRANCH   1  13
ATOM     13  C   UNL     1       4.475   2.713  17.955  0.00  0.00    +0.000 C 
BRANCH  13  16
ATOM     14  C   UNL     1       6.501   5.210  15.836  0.00  0.00    +0.000 A 
ATOM     15  C   UNL     1       5.709   4.093  16.178  0.00  0.00    +0.000 A 
ATOM     16  C   UNL     1       5.444   3.776  17.512  0.00  0.00    +0.000 A 
ATOM     17  C   UNL     1       5.944   4.632  18.512  0.00  0.00    +0.000 A 
ATOM     18  C   UNL     1       6.719   5.741  18.191  0.00  0.00    +0.000 A 
ATOM     19  C   UNL     1       7.000   6.022  16.852  0.00  0.00    +0.000 A 
BRANCH  14  21
ATOM     20  C   UNL     1       6.508   4.207  13.664  0.00  0.00    +0.000 C 
ATOM     21  O   UNL     1       6.643   5.362  14.480  0.00  0.00    +0.000 OA
ENDBRANCH  14  21
BRANCH  19  22
ATOM     22  O   UNL     1       7.760   7.141  16.597  0.00  0.00    +0.000 OA
ATOM     23  H   UNL     1       8.573   6.877  16.139  0.00  0.00    +0.000 HD
ENDBRANCH  19  22
ENDBRANCH  13  16
ENDBRANCH   1  13
BRANCH   7  24
ATOM     24  O   UNL     1       1.562   8.484  21.124  0.00  0.00    +0.000 OA
BRANCH  24  25
ATOM     25  C   UNL     1       0.201   8.810  21.308  0.00  0.00    +0.000 C 
ATOM     26  C   UNL     1       0.117   9.201  22.794  0.00  0.00    +0.000 C 
ATOM     27  C   UNL     1      -0.913  10.302  22.906  0.00  0.00    +0.000 C 
ATOM     28  C   UNL     1      -0.978  10.956  21.536  0.00  0.00    +0.000 C 
ATOM     29  C   UNL     1      -0.179  10.085  20.568  0.00  0.00    +0.000 C 
ENDBRANCH  24  25
ENDBRANCH   7  24
TORSDOF 7
ENDMDL
MODEL 9
REMARK VINA RESULT:      -7.4      1.348      2.297
REMARK  Name = 
REMARK  9 active torsions:
REMARK  status: ('A' for Active; 'I' for Inactive)
REMARK    1  A    between atoms: C_1  and  O_2
REMARK    2  A    between atoms: O_2  and  C_3
REMARK    3  A    between atoms: C_5  and  C_6
REMARK    4  A    between atoms: C_6  and  N_7
REMARK    5  A    between atoms: C_12  and  O_13
REMARK    6  A    between atoms: O_13  and  C_14
REMARK    7  A    between atoms: C_15  and  O_16
REMARK    8  A    between atoms: O_16  and  C_17
REMARK    9  A    between atoms: C_27  and  O_28
REMARK                            x       y       z     vdW  Elec       q    Type
REMARK                         _______ _______ _______ _____ _____    ______ ____
ROOT
ATOM      1  N   UNL     1       2.610   4.962  19.426  0.00  0.00    +0.000 NA
ATOM      2  C   UNL     1       3.797   4.357  20.093  0.00  0.00    +0.000 C 
ATOM      3  C   UNL     1       4.606   3.491  19.177  0.00  0.00    +0.000 C 
ATOM      4  C   UNL     1       5.140   4.456  18.177  0.00  0.00    +0.000 A 
ATOM      5  C   UNL     1       6.448   4.925  18.188  0.00  0.00    +0.000 A 
ATOM      6  C   UNL     1       6.840   5.727  17.148  0.00  0.00    +0.000 A 
ATOM      7  C   UNL     1       6.066   5.762  15.987  0.00  0.00    +0.000 A 
ATOM      8  C   UNL     1       4.694   5.562  16.113  0.00  0.00    +0.000 A 
ATOM      9  C   UNL     1       4.220   5.106  17.363  0.00  0.00    +0.000 A 
ATOM     10  C   UNL     1       2.842   5.401  17.994  0.00  0.00    +0.000 C 
ENDROOT
BRANCH   6  11
ATOM     11  O   UNL     1       7.997   6.464  17.281  0.00  0.00    +0.000 OA
ATOM     12  C   UNL     1       7.683   7.835  17.595  0.00  0.00    +0.000 C 
ENDBRANCH   6  11
BRANCH   1  13
ATOM     13  C   UNL     1       2.203   6.022  20.377  0.00  0.00    +0.000 C 
BRANCH  13  16
ATOM     14  C   UNL     1       0.916   9.650  20.297  0.00  0.00    +0.000 A 
ATOM     15  C   UNL     1       1.175   8.341  20.757  0.00  0.00    +0.000 A 
ATOM     16  C   UNL     1       1.740   7.378  19.919  0.00  0.00    +0.000 A 
ATOM     17  C   UNL     1       2.098   7.760  18.611  0.00  0.00    +0.000 A 
ATOM     18  C   UNL     1       1.857   9.048  18.145  0.00  0.00    +0.000 A 
ATOM     19  C   UNL     1       1.261   9.987  18.990  0.00  0.00    +0.000 A 
BRANCH  14  21
ATOM     20  C   UNL     1      -0.404   9.832  22.283  0.00  0.00    +0.000 C 
ATOM     21  O   UNL     1       0.368  10.453  21.264  0.00  0.00    +0.000 OA
ENDBRANCH  14  21
BRANCH  19  22
ATOM     22  O   UNL     1       1.062  11.248  18.476  0.00  0.00    +0.000 OA
ATOM     23  H   UNL     1       0.921  11.872  19.204  0.00  0.00    +0.000 HD
ENDBRANCH  19  22
ENDBRANCH  13  16
ENDBRANCH   1  13
BRANCH   7  24
ATOM     24  O   UNL     1       6.848   5.755  14.884  0.00  0.00    +0.000 OA
BRANCH  24  25
ATOM     25  C   UNL     1       7.235   4.637  14.113  0.00  0.00    +0.000 C 
ATOM     26  C   UNL     1       5.901   3.942  13.787  0.00  0.00    +0.000 C 
ATOM     27  C   UNL     1       6.038   3.349  12.402  0.00  0.00    +0.000 C 
ATOM     28  C   UNL     1       7.119   4.157  11.704  0.00  0.00    +0.000 C 
ATOM     29  C   UNL     1       7.781   5.049  12.754  0.00  0.00    +0.000 C 
ENDBRANCH  24  25
ENDBRANCH   7  24
TORSDOF 7
ENDMDL
