MODEL 1
REMARK VINA RESULT:      -7.1      0.000      0.000
REMARK  Name = 
REMARK  11 active torsions:
REMARK  status: ('A' for Active; 'I' for Inactive)
REMARK    1  A    between atoms: C_1  and  C_2
REMARK    2  A    between atoms: C_2  and  O_3
REMARK    3  A    between atoms: O_3  and  C_4
REMARK    4  A    between atoms: C_4  and  C_6
REMARK    5  A    between atoms: C_11  and  O_12
REMARK    6  A    between atoms: O_12  and  C_13
REMARK    7  A    between atoms: C_16  and  N_17
REMARK    8  A    between atoms: C_18  and  S_19
REMARK    9  A    between atoms: N_23  and  C_24
REMARK   10  A    between atoms: C_29  and  O_30
REMARK   11  A    between atoms: O_30  and  C_31
REMARK                            x       y       z     vdW  Elec       q    Type
REMARK                         _______ _______ _______ _____ _____    ______ ____
ROOT
ATOM      1  N   UNL     1      -0.056  10.828  19.485  0.00  0.00    +0.000 NA
ATOM      2  C   UNL     1       1.055  10.563  18.854  0.00  0.00    +0.000 C 
ATOM      3  N   UNL     1       1.549   9.269  18.877  0.00  0.00    +0.000 N 
ATOM      4  C   UNL     1       1.867   8.528  17.641  0.00  0.00    +0.000 C 
ATOM      5  C   UNL     1       2.966   7.489  17.930  0.00  0.00    +0.000 C 
ATOM      6  N   UNL     1       2.464   6.565  18.965  0.00  0.00    +0.000 N 
ATOM      7  C   UNL     1       2.194   7.259  20.242  0.00  0.00    +0.000 C 
ATOM      8  C   UNL     1       1.158   8.397  20.008  0.00  0.00    +0.000 C 
ENDROOT
BRANCH   1  17
ATOM      9  C   UNL     1      -1.751  12.551  19.310  0.00  0.00    +0.000 A 
ATOM     10  N   UNL     1      -1.909  13.825  19.817  0.00  0.00    +0.000 N 
ATOM     11  C   UNL     1      -0.798  14.219  20.535  0.00  0.00    +0.000 A 
ATOM     12  C   UNL     1      -0.557  15.375  21.273  0.00  0.00    +0.000 A 
ATOM     13  C   UNL     1       0.692  15.484  21.916  0.00  0.00    +0.000 A 
ATOM     14  C   UNL     1       1.674  14.518  21.737  0.00  0.00    +0.000 A 
ATOM     15  C   UNL     1       1.438  13.422  20.899  0.00  0.00    +0.000 A 
ATOM     16  C   UNL     1       0.141  13.204  20.385  0.00  0.00    +0.000 A 
ATOM     17  C   UNL     1      -0.523  12.113  19.768  0.00  0.00    +0.000 A 
ATOM     18  H   UNL     1      -2.726  14.395  19.661  0.00  0.00    +0.000 HD
BRANCH   9  19
ATOM     19  C   UNL     1      -2.707  11.908  18.437  0.00  0.00    +0.000 C 
ATOM     20  O   UNL     1      -3.839  11.543  18.725  0.00  0.00    +0.000 OA
BRANCH  19  21
ATOM     21  O   UNL     1      -2.110  11.669  17.227  0.00  0.00    +0.000 OA
BRANCH  21  23
ATOM     22  C   UNL     1      -2.938  10.627  15.235  0.00  0.00    +0.000 C 
ATOM     23  C   UNL     1      -2.405  10.391  16.637  0.00  0.00    +0.000 C 
ENDBRANCH  21  23
ENDBRANCH  19  21
ENDBRANCH   9  19
BRANCH  14  24
ATOM     24  O   UNL     1       2.902  14.487  22.335  0.00  0.00    +0.000 OA
ATOM     25  C   UNL     1       4.032  14.667  21.494  0.00  0.00    +0.000 C 
ENDBRANCH  14  24
ENDBRANCH   1  17
BRANCH   6  26
ATOM     26  C   UNL     1       2.864   5.233  18.948  0.00  0.00    +0.000 A 
ATOM     27  C   UNL     1       1.939   4.223  18.600  0.00  0.00    +0.000 A 
ATOM     28  C   UNL     1       2.235   2.859  18.702  0.00  0.00    +0.000 A 
ATOM     29  C   UNL     1       3.486   2.457  19.142  0.00  0.00    +0.000 A 
ATOM     30  C   UNL     1       4.442   3.422  19.437  0.00  0.00    +0.000 A 
ATOM     31  C   UNL     1       4.148   4.794  19.345  0.00  0.00    +0.000 A 
BRANCH  31  32
ATOM     32  O   UNL     1       5.235   5.577  19.644  0.00  0.00    +0.000 OA
ATOM     33  C   UNL     1       6.434   5.286  18.943  0.00  0.00    +0.000 C 
ENDBRANCH  31  32
ENDBRANCH   6  26
BRANCH   2  34
ATOM     34  S   UNL     1       2.167  11.669  18.048  0.00  0.00    +0.000 S 
ATOM     35  H   UNL     1       2.984  11.920  19.068  0.00  0.00    +0.000 HD
ENDBRANCH   2  34
TORSDOF 8
ENDMDL
MODEL 2
REMARK VINA RESULT:      -7.0      2.773      9.116
REMARK  Name = 
REMARK  11 active torsions:
REMARK  status: ('A' for Active; 'I' for Inactive)
REMARK    1  A    between atoms: C_1  and  C_2
REMARK    2  A    between atoms: C_2  and  O_3
REMARK    3  A    between atoms: O_3  and  C_4
REMARK    4  A    between atoms: C_4  and  C_6
REMARK    5  A    between atoms: C_11  and  O_12
REMARK    6  A    between atoms: O_12  and  C_13
REMARK    7  A    between atoms: C_16  and  N_17
REMARK    8  A    between atoms: C_18  and  S_19
REMARK    9  A    between atoms: N_23  and  C_24
REMARK   10  A    between atoms: C_29  and  O_30
REMARK   11  A    between atoms: O_30  and  C_31
REMARK                            x       y       z     vdW  Elec       q    Type
REMARK                         _______ _______ _______ _____ _____    ______ ____
ROOT
ATOM      1  N   UNL     1       2.373   6.568  18.305  0.00  0.00    +0.000 NA
ATOM      2  C   UNL     1       2.186   6.793  19.578  0.00  0.00    +0.000 C 
ATOM      3  N   UNL     1       1.519   7.942  19.967  0.00  0.00    +0.000 N 
ATOM      4  C   UNL     1       0.335   7.902  20.846  0.00  0.00    +0.000 C 
ATOM      5  C   UNL     1       0.230   9.223  21.631  0.00  0.00    +0.000 C 
ATOM      6  N   UNL     1       0.107  10.326  20.659  0.00  0.00    +0.000 N 
ATOM      7  C   UNL     1       1.304  10.440  19.799  0.00  0.00    +0.000 C 
ATOM      8  C   UNL     1       1.533   9.100  19.044  0.00  0.00    +0.000 C 
ENDROOT
BRANCH   1  17
ATOM      9  C   UNL     1       2.864   4.286  17.656  0.00  0.00    +0.000 A 
ATOM     10  N   UNL     1       3.934   3.644  17.066  0.00  0.00    +0.000 N 
ATOM     11  C   UNL     1       4.990   4.510  16.869  0.00  0.00    +0.000 A 
ATOM     12  C   UNL     1       6.220   4.315  16.246  0.00  0.00    +0.000 A 
ATOM     13  C   UNL     1       7.099   5.414  16.191  0.00  0.00    +0.000 A 
ATOM     14  C   UNL     1       6.785   6.613  16.820  0.00  0.00    +0.000 A 
ATOM     15  C   UNL     1       5.587   6.740  17.532  0.00  0.00    +0.000 A 
ATOM     16  C   UNL     1       4.618   5.715  17.455  0.00  0.00    +0.000 A 
ATOM     17  C   UNL     1       3.243   5.608  17.787  0.00  0.00    +0.000 A 
ATOM     18  H   UNL     1       3.941   2.663  16.830  0.00  0.00    +0.000 HD
BRANCH   9  19
ATOM     19  C   UNL     1       1.652   3.615  18.070  0.00  0.00    +0.000 C 
ATOM     20  O   UNL     1       0.537   3.741  17.584  0.00  0.00    +0.000 OA
BRANCH  19  21
ATOM     21  O   UNL     1       1.921   2.867  19.187  0.00  0.00    +0.000 OA
BRANCH  21  23
ATOM     22  C   UNL     1       1.555   2.568  21.535  0.00  0.00    +0.000 C 
ATOM     23  C   UNL     1       0.904   2.889  20.202  0.00  0.00    +0.000 C 
ENDBRANCH  21  23
ENDBRANCH  19  21
ENDBRANCH   9  19
BRANCH  14  24
ATOM     24  O   UNL     1       7.528   7.760  16.802  0.00  0.00    +0.000 OA
ATOM     25  C   UNL     1       8.072   8.192  18.041  0.00  0.00    +0.000 C 
ENDBRANCH  14  24
ENDBRANCH   1  17
BRANCH   6  26
ATOM     26  C   UNL     1      -0.646  11.448  20.986  0.00  0.00    +0.000 A 
ATOM     27  C   UNL     1      -0.708  11.890  22.328  0.00  0.00    +0.000 A 
ATOM     28  C   UNL     1      -1.558  12.921  22.746  0.00  0.00    +0.000 A 
ATOM     29  C   UNL     1      -2.368  13.562  21.823  0.00  0.00    +0.000 A 
ATOM     30  C   UNL     1      -2.292  13.195  20.484  0.00  0.00    +0.000 A 
ATOM     31  C   UNL     1      -1.446  12.154  20.059  0.00  0.00    +0.000 A 
BRANCH  31  32
ATOM     32  O   UNL     1      -1.493  11.973  18.699  0.00  0.00    +0.000 OA
ATOM     33  C   UNL     1      -2.627  11.288  18.192  0.00  0.00    +0.000 C 
ENDBRANCH  31  32
ENDBRANCH   6  26
BRANCH   2  34
ATOM     34  S   UNL     1       2.802   5.896  20.966  0.00  0.00    +0.000 S 
ATOM     35  H   UNL     1       4.031   6.403  21.012  0.00  0.00    +0.000 HD
ENDBRANCH   2  34
TORSDOF 8
ENDMDL
MODEL 3
REMARK VINA RESULT:      -6.9      2.782      9.044
REMARK  Name = 
REMARK  11 active torsions:
REMARK  status: ('A' for Active; 'I' for Inactive)
REMARK    1  A    between atoms: C_1  and  C_2
REMARK    2  A    between atoms: C_2  and  O_3
REMARK    3  A    between atoms: O_3  and  C_4
REMARK    4  A    between atoms: C_4  and  C_6
REMARK    5  A    between atoms: C_11  and  O_12
REMARK    6  A    between atoms: O_12  and  C_13
REMARK    7  A    between atoms: C_16  and  N_17
REMARK    8  A    between atoms: C_18  and  S_19
REMARK    9  A    between atoms: N_23  and  C_24
REMARK   10  A    between atoms: C_29  and  O_30
REMARK   11  A    between atoms: O_30  and  C_31
REMARK                            x       y       z     vdW  Elec       q    Type
REMARK                         _______ _______ _______ _____ _____    ______ ____
ROOT
ATOM      1  N   UNL     1       3.157   6.894  19.898  0.00  0.00    +0.000 NA
ATOM      2  C   UNL     1       2.262   7.586  19.247  0.00  0.00    +0.000 C 
ATOM      3  N   UNL     1       1.516   8.532  19.929  0.00  0.00    +0.000 N 
ATOM      4  C   UNL     1       1.437   9.937  19.487  0.00  0.00    +0.000 C 
ATOM      5  C   UNL     1       0.104  10.551  19.953  0.00  0.00    +0.000 C 
ATOM      6  N   UNL     1       0.053  10.475  21.426  0.00  0.00    +0.000 N 
ATOM      7  C   UNL     1       0.064   9.078  21.907  0.00  0.00    +0.000 C 
ATOM      8  C   UNL     1       1.343   8.359  21.390  0.00  0.00    +0.000 C 
ENDROOT
BRANCH   1  17
ATOM      9  C   UNL     1       3.317   4.482  19.726  0.00  0.00    +0.000 A 
ATOM     10  N   UNL     1       4.126   3.601  19.038  0.00  0.00    +0.000 N 
ATOM     11  C   UNL     1       5.115   4.267  18.343  0.00  0.00    +0.000 A 
ATOM     12  C   UNL     1       6.089   3.791  17.469  0.00  0.00    +0.000 A 
ATOM     13  C   UNL     1       6.963   4.736  16.897  0.00  0.00    +0.000 A 
ATOM     14  C   UNL     1       6.912   6.074  17.270  0.00  0.00    +0.000 A 
ATOM     15  C   UNL     1       5.993   6.500  18.235  0.00  0.00    +0.000 A 
ATOM     16  C   UNL     1       4.997   5.608  18.692  0.00  0.00    +0.000 A 
ATOM     17  C   UNL     1       3.783   5.745  19.411  0.00  0.00    +0.000 A 
ATOM     18  H   UNL     1       4.014   2.599  19.061  0.00  0.00    +0.000 HD
BRANCH   9  19
ATOM     19  C   UNL     1       2.255   4.072  20.618  0.00  0.00    +0.000 C 
ATOM     20  O   UNL     1       2.377   3.581  21.731  0.00  0.00    +0.000 OA
BRANCH  19  21
ATOM     21  O   UNL     1       1.054   4.228  19.976  0.00  0.00    +0.000 OA
BRANCH  21  23
ATOM     22  C   UNL     1       0.700   2.142  18.852  0.00  0.00    +0.000 C 
ATOM     23  C   UNL     1       0.970   3.625  18.673  0.00  0.00    +0.000 C 
ENDBRANCH  21  23
ENDBRANCH  19  21
ENDBRANCH   9  19
BRANCH  14  24
ATOM     24  O   UNL     1       7.671   7.090  16.760  0.00  0.00    +0.000 OA
ATOM     25  C   UNL     1       7.861   8.228  17.587  0.00  0.00    +0.000 C 
ENDBRANCH  14  24
ENDBRANCH   1  17
BRANCH   6  26
ATOM     26  C   UNL     1      -0.603  11.472  22.142  0.00  0.00    +0.000 A 
ATOM     27  C   UNL     1      -1.799  11.173  22.833  0.00  0.00    +0.000 A 
ATOM     28  C   UNL     1      -2.581  12.156  23.451  0.00  0.00    +0.000 A 
ATOM     29  C   UNL     1      -2.177  13.480  23.412  0.00  0.00    +0.000 A 
ATOM     30  C   UNL     1      -0.976  13.805  22.792  0.00  0.00    +0.000 A 
ATOM     31  C   UNL     1      -0.190  12.824  22.162  0.00  0.00    +0.000 A 
BRANCH  31  32
ATOM     32  O   UNL     1       0.969  13.344  21.643  0.00  0.00    +0.000 OA
ATOM     33  C   UNL     1       0.839  14.115  20.458  0.00  0.00    +0.000 C 
ENDBRANCH  31  32
ENDBRANCH   6  26
BRANCH   2  34
ATOM     34  S   UNL     1       1.717   7.407  17.579  0.00  0.00    +0.000 S 
ATOM     35  H   UNL     1       0.403   7.435  17.786  0.00  0.00    +0.000 HD
ENDBRANCH   2  34
TORSDOF 8
ENDMDL
MODEL 4
REMARK VINA RESULT:      -6.9      2.704      9.126
REMARK  Name = 
REMARK  11 active torsions:
REMARK  status: ('A' for Active; 'I' for Inactive)
REMARK    1  A    between atoms: C_1  and  C_2
REMARK    2  A    between atoms: C_2  and  O_3
REMARK    3  A    between atoms: O_3  and  C_4
REMARK    4  A    between atoms: C_4  and  C_6
REMARK    5  A    between atoms: C_11  and  O_12
REMARK    6  A    between atoms: O_12  and  C_13
REMARK    7  A    between atoms: C_16  and  N_17
REMARK    8  A    between atoms: C_18  and  S_19
REMARK    9  A    between atoms: N_23  and  C_24
REMARK   10  A    between atoms: C_29  and  O_30
REMARK   11  A    between atoms: O_30  and  C_31
REMARK                            x       y       z     vdW  Elec       q    Type
REMARK                         _______ _______ _______ _____ _____    ______ ____
ROOT
ATOM      1  N   UNL     1       2.540   6.565  18.081  0.00  0.00    +0.000 NA
ATOM      2  C   UNL     1       2.336   6.886  19.330  0.00  0.00    +0.000 C 
ATOM      3  N   UNL     1       1.726   8.094  19.623  0.00  0.00    +0.000 N 
ATOM      4  C   UNL     1       0.521   8.179  20.470  0.00  0.00    +0.000 C 
ATOM      5  C   UNL     1       0.472   9.554  21.162  0.00  0.00    +0.000 C 
ATOM      6  N   UNL     1       0.435  10.594  20.115  0.00  0.00    +0.000 N 
ATOM      7  C   UNL     1       1.657  10.583  19.283  0.00  0.00    +0.000 C 
ATOM      8  C   UNL     1       1.828   9.183  18.625  0.00  0.00    +0.000 C 
ENDROOT
BRANCH   1  17
ATOM      9  C   UNL     1       2.916   4.220  17.598  0.00  0.00    +0.000 A 
ATOM     10  N   UNL     1       3.961   3.482  17.083  0.00  0.00    +0.000 N 
ATOM     11  C   UNL     1       5.070   4.273  16.858  0.00  0.00    +0.000 A 
ATOM     12  C   UNL     1       6.302   3.969  16.285  0.00  0.00    +0.000 A 
ATOM     13  C   UNL     1       7.243   5.011  16.181  0.00  0.00    +0.000 A 
ATOM     14  C   UNL     1       6.982   6.266  16.721  0.00  0.00    +0.000 A 
ATOM     15  C   UNL     1       5.777   6.506  17.389  0.00  0.00    +0.000 A 
ATOM     16  C   UNL     1       4.753   5.533  17.353  0.00  0.00    +0.000 A 
ATOM     17  C   UNL     1       3.367   5.526  17.652  0.00  0.00    +0.000 A 
ATOM     18  H   UNL     1       3.919   2.489  16.912  0.00  0.00    +0.000 HD
BRANCH   9  19
ATOM     19  C   UNL     1       1.658   3.647  18.022  0.00  0.00    +0.000 C 
ATOM     20  O   UNL     1       0.557   3.838  17.525  0.00  0.00    +0.000 OA
BRANCH  19  21
ATOM     21  O   UNL     1       1.868   2.912  19.160  0.00  0.00    +0.000 OA
BRANCH  21  23
ATOM     22  C   UNL     1       1.411   2.649  21.497  0.00  0.00    +0.000 C 
ATOM     23  C   UNL     1       0.817   2.979  20.138  0.00  0.00    +0.000 C 
ENDBRANCH  21  23
ENDBRANCH  19  21
ENDBRANCH   9  19
BRANCH  14  24
ATOM     24  O   UNL     1       7.790   7.365  16.648  0.00  0.00    +0.000 OA
ATOM     25  C   UNL     1       7.830   8.210  17.789  0.00  0.00    +0.000 C 
ENDBRANCH  14  24
ENDBRANCH   1  17
BRANCH   6  26
ATOM     26  C   UNL     1      -0.261  11.776  20.346  0.00  0.00    +0.000 A 
ATOM     27  C   UNL     1      -1.625  11.872  19.991  0.00  0.00    +0.000 A 
ATOM     28  C   UNL     1      -2.343  13.071  20.063  0.00  0.00    +0.000 A 
ATOM     29  C   UNL     1      -1.716  14.221  20.515  0.00  0.00    +0.000 A 
ATOM     30  C   UNL     1      -0.391  14.153  20.929  0.00  0.00    +0.000 A 
ATOM     31  C   UNL     1       0.338  12.953  20.850  0.00  0.00    +0.000 A 
BRANCH  31  32
ATOM     32  O   UNL     1       1.613  13.090  21.340  0.00  0.00    +0.000 OA
ATOM     33  C   UNL     1       2.119  14.413  21.419  0.00  0.00    +0.000 C 
ENDBRANCH  31  32
ENDBRANCH   6  26
BRANCH   2  34
ATOM     34  S   UNL     1       2.866   6.053  20.792  0.00  0.00    +0.000 S 
ATOM     35  H   UNL     1       1.721   5.459  21.119  0.00  0.00    +0.000 HD
ENDBRANCH   2  34
TORSDOF 8
ENDMDL
MODEL 5
REMARK VINA RESULT:      -6.8      2.058      2.618
REMARK  Name = 
REMARK  11 active torsions:
REMARK  status: ('A' for Active; 'I' for Inactive)
REMARK    1  A    between atoms: C_1  and  C_2
REMARK    2  A    between atoms: C_2  and  O_3
REMARK    3  A    between atoms: O_3  and  C_4
REMARK    4  A    between atoms: C_4  and  C_6
REMARK    5  A    between atoms: C_11  and  O_12
REMARK    6  A    between atoms: O_12  and  C_13
REMARK    7  A    between atoms: C_16  and  N_17
REMARK    8  A    between atoms: C_18  and  S_19
REMARK    9  A    between atoms: N_23  and  C_24
REMARK   10  A    between atoms: C_29  and  O_30
REMARK   11  A    between atoms: O_30  and  C_31
REMARK                            x       y       z     vdW  Elec       q    Type
REMARK                         _______ _______ _______ _____ _____    ______ ____
ROOT
ATOM      1  N   UNL     1      -1.554  10.839  19.628  0.00  0.00    +0.000 NA
ATOM      2  C   UNL     1      -0.372  10.970  19.089  0.00  0.00    +0.000 C 
ATOM      3  N   UNL     1       0.504   9.898  19.118  0.00  0.00    +0.000 N 
ATOM      4  C   UNL     1       1.131   9.364  17.895  0.00  0.00    +0.000 C 
ATOM      5  C   UNL     1       2.479   8.708  18.249  0.00  0.00    +0.000 C 
ATOM      6  N   UNL     1       2.221   7.617  19.209  0.00  0.00    +0.000 N 
ATOM      7  C   UNL     1       1.650   8.120  20.477  0.00  0.00    +0.000 C 
ATOM      8  C   UNL     1       0.327   8.886  20.185  0.00  0.00    +0.000 C 
ENDROOT
BRANCH   1  17
ATOM      9  C   UNL     1      -3.551  12.120  19.138  0.00  0.00    +0.000 A 
ATOM     10  N   UNL     1      -4.195  13.191  19.723  0.00  0.00    +0.000 N 
ATOM     11  C   UNL     1      -3.483  13.676  20.802  0.00  0.00    +0.000 A 
ATOM     12  C   UNL     1      -3.791  14.680  21.716  0.00  0.00    +0.000 A 
ATOM     13  C   UNL     1      -2.850  14.941  22.732  0.00  0.00    +0.000 A 
ATOM     14  C   UNL     1      -1.624  14.287  22.756  0.00  0.00    +0.000 A 
ATOM     15  C   UNL     1      -1.302  13.362  21.757  0.00  0.00    +0.000 A 
ATOM     16  C   UNL     1      -2.292  12.959  20.833  0.00  0.00    +0.000 A 
ATOM     17  C   UNL     1      -2.423  11.895  19.905  0.00  0.00    +0.000 A 
ATOM     18  H   UNL     1      -5.065  13.576  19.388  0.00  0.00    +0.000 HD
BRANCH   9  19
ATOM     19  C   UNL     1      -4.008  11.466  17.933  0.00  0.00    +0.000 C 
ATOM     20  O   UNL     1      -5.047  10.836  17.786  0.00  0.00    +0.000 OA
BRANCH  19  21
ATOM     21  O   UNL     1      -3.034  11.573  16.975  0.00  0.00    +0.000 OA
BRANCH  21  23
ATOM     22  C   UNL     1      -3.070  10.460  14.854  0.00  0.00    +0.000 C 
ATOM     23  C   UNL     1      -2.681  10.345  16.317  0.00  0.00    +0.000 C 
ENDBRANCH  21  23
ENDBRANCH  19  21
ENDBRANCH   9  19
BRANCH  14  24
ATOM     24  O   UNL     1      -0.651  14.419  23.706  0.00  0.00    +0.000 OA
ATOM     25  C   UNL     1      -0.886  15.365  24.739  0.00  0.00    +0.000 C 
ENDBRANCH  14  24
ENDBRANCH   1  17
BRANCH   6  26
ATOM     26  C   UNL     1       3.023   6.481  19.189  0.00  0.00    +0.000 A 
ATOM     27  C   UNL     1       4.221   6.477  18.440  0.00  0.00    +0.000 A 
ATOM     28  C   UNL     1       4.998   5.326  18.261  0.00  0.00    +0.000 A 
ATOM     29  C   UNL     1       4.605   4.134  18.848  0.00  0.00    +0.000 A 
ATOM     30  C   UNL     1       3.463   4.112  19.641  0.00  0.00    +0.000 A 
ATOM     31  C   UNL     1       2.674   5.264  19.817  0.00  0.00    +0.000 A 
BRANCH  31  32
ATOM     32  O   UNL     1       1.615   5.040  20.661  0.00  0.00    +0.000 OA
ATOM     33  C   UNL     1       1.098   3.719  20.688  0.00  0.00    +0.000 C 
ENDBRANCH  31  32
ENDBRANCH   6  26
BRANCH   2  34
ATOM     34  S   UNL     1       0.388  12.412  18.417  0.00  0.00    +0.000 S 
ATOM     35  H   UNL     1      -0.695  13.005  17.920  0.00  0.00    +0.000 HD
ENDBRANCH   2  34
TORSDOF 8
ENDMDL
MODEL 6
REMARK VINA RESULT:      -6.8      2.482      9.230
REMARK  Name = 
REMARK  11 active torsions:
REMARK  status: ('A' for Active; 'I' for Inactive)
REMARK    1  A    between atoms: C_1  and  C_2
REMARK    2  A    between atoms: C_2  and  O_3
REMARK    3  A    between atoms: O_3  and  C_4
REMARK    4  A    between atoms: C_4  and  C_6
REMARK    5  A    between atoms: C_11  and  O_12
REMARK    6  A    between atoms: O_12  and  C_13
REMARK    7  A    between atoms: C_16  and  N_17
REMARK    8  A    between atoms: C_18  and  S_19
REMARK    9  A    between atoms: N_23  and  C_24
REMARK   10  A    between atoms: C_29  and  O_30
REMARK   11  A    between atoms: O_30  and  C_31
REMARK                            x       y       z     vdW  Elec       q    Type
REMARK                         _______ _______ _______ _____ _____    ______ ____
ROOT
ATOM      1  N   UNL     1       2.557   7.048  17.820  0.00  0.00    +0.000 NA
ATOM      2  C   UNL     1       2.271   7.490  19.014  0.00  0.00    +0.000 C 
ATOM      3  N   UNL     1       1.759   8.770  19.152  0.00  0.00    +0.000 N 
ATOM      4  C   UNL     1       0.496   9.038  19.863  0.00  0.00    +0.000 C 
ATOM      5  C   UNL     1       0.520  10.465  20.441  0.00  0.00    +0.000 C 
ATOM      6  N   UNL     1       0.686  11.411  19.321  0.00  0.00    +0.000 N 
ATOM      7  C   UNL     1       1.973  11.218  18.620  0.00  0.00    +0.000 C 
ATOM      8  C   UNL     1       2.064   9.757  18.091  0.00  0.00    +0.000 C 
ENDROOT
BRANCH   1  17
ATOM      9  C   UNL     1       2.750   4.643  17.599  0.00  0.00    +0.000 A 
ATOM     10  N   UNL     1       3.755   3.770  17.235  0.00  0.00    +0.000 N 
ATOM     11  C   UNL     1       4.943   4.438  17.015  0.00  0.00    +0.000 A 
ATOM     12  C   UNL     1       6.176   3.973  16.565  0.00  0.00    +0.000 A 
ATOM     13  C   UNL     1       7.212   4.917  16.428  0.00  0.00    +0.000 A 
ATOM     14  C   UNL     1       7.032   6.239  16.821  0.00  0.00    +0.000 A 
ATOM     15  C   UNL     1       5.813   6.647  17.373  0.00  0.00    +0.000 A 
ATOM     16  C   UNL     1       4.710   5.765  17.359  0.00  0.00    +0.000 A 
ATOM     17  C   UNL     1       3.313   5.904  17.556  0.00  0.00    +0.000 A 
ATOM     18  H   UNL     1       3.634   2.771  17.161  0.00  0.00    +0.000 HD
BRANCH   9  19
ATOM     19  C   UNL     1       1.421   4.224  17.985  0.00  0.00    +0.000 C 
ATOM     20  O   UNL     1       0.454   4.071  17.251  0.00  0.00    +0.000 OA
BRANCH  19  21
ATOM     21  O   UNL     1       1.372   4.114  19.350  0.00  0.00    +0.000 OA
BRANCH  21  23
ATOM     22  C   UNL     1       1.265   2.819  21.363  0.00  0.00    +0.000 C 
ATOM     23  C   UNL     1       1.510   2.779  19.865  0.00  0.00    +0.000 C 
ENDBRANCH  21  23
ENDBRANCH  19  21
ENDBRANCH   9  19
BRANCH  14  24
ATOM     24  O   UNL     1       7.939   7.253  16.699  0.00  0.00    +0.000 OA
ATOM     25  C   UNL     1       7.857   8.306  17.649  0.00  0.00    +0.000 C 
ENDBRANCH  14  24
ENDBRANCH   1  17
BRANCH   6  26
ATOM     26  C   UNL     1       0.093  12.668  19.391  0.00  0.00    +0.000 A 
ATOM     27  C   UNL     1       0.886  13.830  19.255  0.00  0.00    +0.000 A 
ATOM     28  C   UNL     1       0.379  15.119  19.457  0.00  0.00    +0.000 A 
ATOM     29  C   UNL     1      -0.956  15.289  19.787  0.00  0.00    +0.000 A 
ATOM     30  C   UNL     1      -1.781  14.173  19.872  0.00  0.00    +0.000 A 
ATOM     31  C   UNL     1      -1.275  12.875  19.679  0.00  0.00    +0.000 A 
BRANCH  31  32
ATOM     32  O   UNL     1      -2.257  11.919  19.770  0.00  0.00    +0.000 OA
ATOM     33  C   UNL     1      -2.925  11.583  18.564  0.00  0.00    +0.000 C 
ENDBRANCH  31  32
ENDBRANCH   6  26
BRANCH   2  34
ATOM     34  S   UNL     1       2.575   6.739  20.580  0.00  0.00    +0.000 S 
ATOM     35  H   UNL     1       1.462   7.111  21.208  0.00  0.00    +0.000 HD
ENDBRANCH   2  34
TORSDOF 8
ENDMDL
MODEL 7
REMARK VINA RESULT:      -6.8      0.720      1.057
REMARK  Name = 
REMARK  11 active torsions:
REMARK  status: ('A' for Active; 'I' for Inactive)
REMARK    1  A    between atoms: C_1  and  C_2
REMARK    2  A    between atoms: C_2  and  O_3
REMARK    3  A    between atoms: O_3  and  C_4
REMARK    4  A    between atoms: C_4  and  C_6
REMARK    5  A    between atoms: C_11  and  O_12
REMARK    6  A    between atoms: O_12  and  C_13
REMARK    7  A    between atoms: C_16  and  N_17
REMARK    8  A    between atoms: C_18  and  S_19
REMARK    9  A    between atoms: N_23  and  C_24
REMARK   10  A    between atoms: C_29  and  O_30
REMARK   11  A    between atoms: O_30  and  C_31
REMARK                            x       y       z     vdW  Elec       q    Type
REMARK                         _______ _______ _______ _____ _____    ______ ____
ROOT
ATOM      1  N   UNL     1      -0.013  10.825  19.442  0.00  0.00    +0.000 NA
ATOM      2  C   UNL     1       1.098  10.539  18.819  0.00  0.00    +0.000 C 
ATOM      3  N   UNL     1       1.586   9.244  18.873  0.00  0.00    +0.000 N 
ATOM      4  C   UNL     1       1.903   8.473  17.656  0.00  0.00    +0.000 C 
ATOM      5  C   UNL     1       2.997   7.436  17.971  0.00  0.00    +0.000 C 
ATOM      6  N   UNL     1       2.489   6.539  19.026  0.00  0.00    +0.000 N 
ATOM      7  C   UNL     1       2.219   7.264  20.286  0.00  0.00    +0.000 C 
ATOM      8  C   UNL     1       1.189   8.400  20.023  0.00  0.00    +0.000 C 
ENDROOT
BRANCH   1  17
ATOM      9  C   UNL     1      -1.680  12.564  19.188  0.00  0.00    +0.000 A 
ATOM     10  N   UNL     1      -1.840  13.845  19.674  0.00  0.00    +0.000 N 
ATOM     11  C   UNL     1      -0.751  14.235  20.427  0.00  0.00    +0.000 A 
ATOM     12  C   UNL     1      -0.522  15.397  21.160  0.00  0.00    +0.000 A 
ATOM     13  C   UNL     1       0.704  15.500  21.845  0.00  0.00    +0.000 A 
ATOM     14  C   UNL     1       1.681  14.520  21.711  0.00  0.00    +0.000 A 
ATOM     15  C   UNL     1       1.462  13.418  20.878  0.00  0.00    +0.000 A 
ATOM     16  C   UNL     1       0.181  13.208  20.321  0.00  0.00    +0.000 A 
ATOM     17  C   UNL     1      -0.474  12.118  19.693  0.00  0.00    +0.000 A 
ATOM     18  H   UNL     1      -2.645  14.423  19.484  0.00  0.00    +0.000 HD
BRANCH   9  19
ATOM     19  C   UNL     1      -2.612  11.922  18.289  0.00  0.00    +0.000 C 
ATOM     20  O   UNL     1      -2.383  11.510  17.160  0.00  0.00    +0.000 OA
BRANCH  19  21
ATOM     21  O   UNL     1      -3.856  11.928  18.864  0.00  0.00    +0.000 OA
BRANCH  21  23
ATOM     22  C   UNL     1      -5.828  12.355  17.573  0.00  0.00    +0.000 C 
ATOM     23  C   UNL     1      -4.890  11.284  18.101  0.00  0.00    +0.000 C 
ENDBRANCH  21  23
ENDBRANCH  19  21
ENDBRANCH   9  19
BRANCH  14  24
ATOM     24  O   UNL     1       2.887  14.482  22.353  0.00  0.00    +0.000 OA
ATOM     25  C   UNL     1       4.039  14.290  21.546  0.00  0.00    +0.000 C 
ENDBRANCH  14  24
ENDBRANCH   1  17
BRANCH   6  26
ATOM     26  C   UNL     1       2.883   5.205  19.041  0.00  0.00    +0.000 A 
ATOM     27  C   UNL     1       1.925   4.184  18.842  0.00  0.00    +0.000 A 
ATOM     28  C   UNL     1       2.227   2.825  18.987  0.00  0.00    +0.000 A 
ATOM     29  C   UNL     1       3.515   2.439  19.321  0.00  0.00    +0.000 A 
ATOM     30  C   UNL     1       4.498   3.411  19.468  0.00  0.00    +0.000 A 
ATOM     31  C   UNL     1       4.199   4.779  19.332  0.00  0.00    +0.000 A 
BRANCH  31  32
ATOM     32  O   UNL     1       5.312   5.568  19.479  0.00  0.00    +0.000 OA
ATOM     33  C   UNL     1       6.446   5.210  18.704  0.00  0.00    +0.000 C 
ENDBRANCH  31  32
ENDBRANCH   6  26
BRANCH   2  34
ATOM     34  S   UNL     1       2.217  11.621  17.990  0.00  0.00    +0.000 S 
ATOM     35  H   UNL     1       1.430  12.006  16.989  0.00  0.00    +0.000 HD
ENDBRANCH   2  34
TORSDOF 8
ENDMDL
MODEL 8
REMARK VINA RESULT:      -6.7      2.477      5.023
REMARK  Name = 
REMARK  11 active torsions:
REMARK  status: ('A' for Active; 'I' for Inactive)
REMARK    1  A    between atoms: C_1  and  C_2
REMARK    2  A    between atoms: C_2  and  O_3
REMARK    3  A    between atoms: O_3  and  C_4
REMARK    4  A    between atoms: C_4  and  C_6
REMARK    5  A    between atoms: C_11  and  O_12
REMARK    6  A    between atoms: O_12  and  C_13
REMARK    7  A    between atoms: C_16  and  N_17
REMARK    8  A    between atoms: C_18  and  S_19
REMARK    9  A    between atoms: N_23  and  C_24
REMARK   10  A    between atoms: C_29  and  O_30
REMARK   11  A    between atoms: O_30  and  C_31
REMARK                            x       y       z     vdW  Elec       q    Type
REMARK                         _______ _______ _______ _____ _____    ______ ____
ROOT
ATOM      1  N   UNL     1      -1.668  11.330  20.259  0.00  0.00    +0.000 NA
ATOM      2  C   UNL     1      -0.645  11.476  19.462  0.00  0.00    +0.000 C 
ATOM      3  N   UNL     1       0.215  10.407  19.268  0.00  0.00    +0.000 N 
ATOM      4  C   UNL     1       0.541   9.895  17.924  0.00  0.00    +0.000 C 
ATOM      5  C   UNL     1       1.934   9.240  17.944  0.00  0.00    +0.000 C 
ATOM      6  N   UNL     1       1.907   8.133  18.919  0.00  0.00    +0.000 N 
ATOM      7  C   UNL     1       1.647   8.614  20.293  0.00  0.00    +0.000 C 
ATOM      8  C   UNL     1       0.292   9.378  20.330  0.00  0.00    +0.000 C 
ENDROOT
BRANCH   1  17
ATOM      9  C   UNL     1      -2.063  13.112  21.853  0.00  0.00    +0.000 A 
ATOM     10  N   UNL     1      -3.028  14.084  22.015  0.00  0.00    +0.000 N 
ATOM     11  C   UNL     1      -4.034  13.953  21.080  0.00  0.00    +0.000 A 
ATOM     12  C   UNL     1      -5.149  14.747  20.828  0.00  0.00    +0.000 A 
ATOM     13  C   UNL     1      -6.002  14.353  19.778  0.00  0.00    +0.000 A 
ATOM     14  C   UNL     1      -5.785  13.165  19.090  0.00  0.00    +0.000 A 
ATOM     15  C   UNL     1      -4.716  12.333  19.443  0.00  0.00    +0.000 A 
ATOM     16  C   UNL     1      -3.754  12.790  20.370  0.00  0.00    +0.000 A 
ATOM     17  C   UNL     1      -2.450  12.378  20.748  0.00  0.00    +0.000 A 
ATOM     18  H   UNL     1      -3.003  14.786  22.740  0.00  0.00    +0.000 HD
BRANCH   9  19
ATOM     19  C   UNL     1      -0.937  12.938  22.743  0.00  0.00    +0.000 C 
ATOM     20  O   UNL     1      -0.569  11.897  23.270  0.00  0.00    +0.000 OA
BRANCH  19  21
ATOM     21  O   UNL     1      -0.382  14.165  22.998  0.00  0.00    +0.000 OA
BRANCH  21  23
ATOM     22  C   UNL     1       0.276  16.060  21.689  0.00  0.00    +0.000 C 
ATOM     23  C   UNL     1       0.586  14.614  22.035  0.00  0.00    +0.000 C 
ENDBRANCH  21  23
ENDBRANCH  19  21
ENDBRANCH   9  19
BRANCH  14  24
ATOM     24  O   UNL     1      -6.509  12.695  18.031  0.00  0.00    +0.000 OA
ATOM     25  C   UNL     1      -7.421  13.600  17.424  0.00  0.00    +0.000 C 
ENDBRANCH  14  24
ENDBRANCH   1  17
BRANCH   6  26
ATOM     26  C   UNL     1       2.684   7.001  18.694  0.00  0.00    +0.000 A 
ATOM     27  C   UNL     1       3.671   7.013  17.683  0.00  0.00    +0.000 A 
ATOM     28  C   UNL     1       4.384   5.868  17.309  0.00  0.00    +0.000 A 
ATOM     29  C   UNL     1       4.144   4.666  17.956  0.00  0.00    +0.000 A 
ATOM     30  C   UNL     1       3.222   4.629  18.996  0.00  0.00    +0.000 A 
ATOM     31  C   UNL     1       2.495   5.774  19.369  0.00  0.00    +0.000 A 
BRANCH  31  32
ATOM     32  O   UNL     1       1.666   5.535  20.437  0.00  0.00    +0.000 OA
ATOM     33  C   UNL     1       1.704   4.226  20.984  0.00  0.00    +0.000 C 
ENDBRANCH  31  32
ENDBRANCH   6  26
BRANCH   2  34
ATOM     34  S   UNL     1      -0.063  12.932  18.655  0.00  0.00    +0.000 S 
ATOM     35  H   UNL     1       1.213  12.881  19.029  0.00  0.00    +0.000 HD
ENDBRANCH   2  34
TORSDOF 8
ENDMDL
MODEL 9
REMARK VINA RESULT:      -6.7      1.692      2.403
REMARK  Name = 
REMARK  11 active torsions:
REMARK  status: ('A' for Active; 'I' for Inactive)
REMARK    1  A    between atoms: C_1  and  C_2
REMARK    2  A    between atoms: C_2  and  O_3
REMARK    3  A    between atoms: O_3  and  C_4
REMARK    4  A    between atoms: C_4  and  C_6
REMARK    5  A    between atoms: C_11  and  O_12
REMARK    6  A    between atoms: O_12  and  C_13
REMARK    7  A    between atoms: C_16  and  N_17
REMARK    8  A    between atoms: C_18  and  S_19
REMARK    9  A    between atoms: N_23  and  C_24
REMARK   10  A    between atoms: C_29  and  O_30
REMARK   11  A    between atoms: O_30  and  C_31
REMARK                            x       y       z     vdW  Elec       q    Type
REMARK                         _______ _______ _______ _____ _____    ______ ____
ROOT
ATOM      1  N   UNL     1       0.492  10.870  19.381  0.00  0.00    +0.000 NA
ATOM      2  C   UNL     1       0.497   9.686  19.932  0.00  0.00    +0.000 C 
ATOM      3  N   UNL     1       1.338   8.711  19.423  0.00  0.00    +0.000 N 
ATOM      4  C   UNL     1       2.302   7.986  20.271  0.00  0.00    +0.000 C 
ATOM      5  C   UNL     1       2.577   6.595  19.670  0.00  0.00    +0.000 C 
ATOM      6  N   UNL     1       3.128   6.782  18.314  0.00  0.00    +0.000 N 
ATOM      7  C   UNL     1       2.165   7.449  17.413  0.00  0.00    +0.000 C 
ATOM      8  C   UNL     1       1.762   8.829  18.009  0.00  0.00    +0.000 C 
ENDROOT
BRANCH   1  17
ATOM      9  C   UNL     1      -1.718  11.790  19.010  0.00  0.00    +0.000 A 
ATOM     10  N   UNL     1      -2.424  12.870  19.499  0.00  0.00    +0.000 N 
ATOM     11  C   UNL     1      -1.648  13.632  20.349  0.00  0.00    +0.000 A 
ATOM     12  C   UNL     1      -1.969  14.750  21.115  0.00  0.00    +0.000 A 
ATOM     13  C   UNL     1      -0.945  15.309  21.905  0.00  0.00    +0.000 A 
ATOM     14  C   UNL     1       0.354  14.820  21.842  0.00  0.00    +0.000 A 
ATOM     15  C   UNL     1       0.666  13.765  20.976  0.00  0.00    +0.000 A 
ATOM     16  C   UNL     1      -0.373  13.080  20.309  0.00  0.00    +0.000 A 
ATOM     17  C   UNL     1      -0.475  11.850  19.611  0.00  0.00    +0.000 A 
ATOM     18  H   UNL     1      -3.379  13.079  19.249  0.00  0.00    +0.000 HD
BRANCH   9  19
ATOM     19  C   UNL     1      -2.238  10.869  18.025  0.00  0.00    +0.000 C 
ATOM     20  O   UNL     1      -2.482   9.681  18.184  0.00  0.00    +0.000 OA
BRANCH  19  21
ATOM     21  O   UNL     1      -2.330  11.515  16.819  0.00  0.00    +0.000 OA
BRANCH  21  23
ATOM     22  C   UNL     1      -2.955  10.350  14.822  0.00  0.00    +0.000 C 
ATOM     23  C   UNL     1      -3.460  11.150  16.010  0.00  0.00    +0.000 C 
ENDBRANCH  21  23
ENDBRANCH  19  21
ENDBRANCH   9  19
BRANCH  14  24
ATOM     24  O   UNL     1       1.419  15.245  22.584  0.00  0.00    +0.000 OA
ATOM     25  C   UNL     1       2.693  15.218  21.956  0.00  0.00    +0.000 C 
ENDBRANCH  14  24
ENDBRANCH   1  17
BRANCH   6  26
ATOM     26  C   UNL     1       4.056   5.871  17.818  0.00  0.00    +0.000 A 
ATOM     27  C   UNL     1       5.418   6.235  17.720  0.00  0.00    +0.000 A 
ATOM     28  C   UNL     1       6.375   5.423  17.101  0.00  0.00    +0.000 A 
ATOM     29  C   UNL     1       5.998   4.199  16.570  0.00  0.00    +0.000 A 
ATOM     30  C   UNL     1       4.678   3.781  16.699  0.00  0.00    +0.000 A 
ATOM     31  C   UNL     1       3.711   4.597  17.313  0.00  0.00    +0.000 A 
BRANCH  31  32
ATOM     32  O   UNL     1       2.482   3.987  17.371  0.00  0.00    +0.000 OA
ATOM     33  C   UNL     1       2.369   2.880  18.251  0.00  0.00    +0.000 C 
ENDBRANCH  31  32
ENDBRANCH   6  26
BRANCH   2  34
ATOM     34  S   UNL     1      -0.550   9.046  21.199  0.00  0.00    +0.000 S 
ATOM     35  H   UNL     1      -1.689   8.983  20.514  0.00  0.00    +0.000 HD
ENDBRANCH   2  34
TORSDOF 8
ENDMDL
