MODEL 1
REMARK VINA RESULT:      -7.6      0.000      0.000
REMARK  Name = 
REMARK  7 active torsions:
REMARK  status: ('A' for Active; 'I' for Inactive)
REMARK    1  A    between atoms: C_1  and  O_2
REMARK    2  A    between atoms: O_2  and  C_3
REMARK    3  A    between atoms: C_6  and  C_7
REMARK    4  A    between atoms: C_11  and  C_12
REMARK    5  A    between atoms: C_12  and  O_13
REMARK    6  A    between atoms: O_13  and  C_14
REMARK    7  A    between atoms: C_19  and  C_20
REMARK                            x       y       z     vdW  Elec       q    Type
REMARK                         _______ _______ _______ _____ _____    ______ ____
ROOT
ATOM      1  C   UNL     1       2.850   4.839  17.697  0.00  0.00    +0.000 A 
ATOM      2  C   UNL     1       3.537   3.690  17.253  0.00  0.00    +0.000 A 
ATOM      3  C   UNL     1       4.879   3.735  16.863  0.00  0.00    +0.000 A 
ATOM      4  C   UNL     1       5.567   4.946  16.911  0.00  0.00    +0.000 A 
ATOM      5  C   UNL     1       4.872   6.099  17.321  0.00  0.00    +0.000 A 
ATOM      6  C   UNL     1       3.507   6.085  17.704  0.00  0.00    +0.000 A 
ENDROOT
BRANCH   4   7
ATOM      7  C   UNL     1       7.010   5.072  16.568  0.00  0.00    +0.000 C 
ATOM      8  N   UNL     1       7.926   4.308  17.227  0.00  0.00    +0.000 N 
ATOM      9  O   UNL     1       7.389   5.867  15.692  0.00  0.00    +0.000 OA
ATOM     10  H   UNL     1       7.715   3.637  17.946  0.00  0.00    +0.000 HD
ATOM     11  H   UNL     1       8.896   4.428  16.969  0.00  0.00    +0.000 HD
ENDBRANCH   4   7
BRANCH   1  13
ATOM     12  C   UNL     1       1.493   3.723  19.343  0.00  0.00    +0.000 C 
ATOM     13  O   UNL     1       1.612   4.516  18.178  0.00  0.00    +0.000 OA
ENDBRANCH   1  13
BRANCH   6  14
ATOM     14  C   UNL     1       2.921   7.410  18.176  0.00  0.00    +0.000 C 
BRANCH  14  15
ATOM     15  O   UNL     1       2.478   7.300  19.533  0.00  0.00    +0.000 OA
BRANCH  15  16
ATOM     16  C   UNL     1       1.631   8.247  20.050  0.00  0.00    +0.000 A 
ATOM     17  C   UNL     1       1.225   9.198  19.110  0.00  0.00    +0.000 A 
ATOM     18  C   UNL     1       0.377  10.250  19.458  0.00  0.00    +0.000 A 
ATOM     19  C   UNL     1      -0.103  10.358  20.763  0.00  0.00    +0.000 A 
ATOM     20 CL   UNL     1      -1.194  11.656  21.096  0.00  0.00    +0.000 Cl
ATOM     21  C   UNL     1       0.290   9.424  21.736  0.00  0.00    +0.000 A 
ATOM     22  C   UNL     1      -0.165   9.504  23.171  0.00  0.00    +0.000 C 
ATOM     23  C   UNL     1       1.170   8.371  21.366  0.00  0.00    +0.000 A 
ENDBRANCH  15  16
ENDBRANCH  14  15
ENDBRANCH   6  14
TORSDOF 5
ENDMDL
MODEL 2
REMARK VINA RESULT:      -7.4      3.640      4.848
REMARK  Name = 
REMARK  7 active torsions:
REMARK  status: ('A' for Active; 'I' for Inactive)
REMARK    1  A    between atoms: C_1  and  O_2
REMARK    2  A    between atoms: O_2  and  C_3
REMARK    3  A    between atoms: C_6  and  C_7
REMARK    4  A    between atoms: C_11  and  C_12
REMARK    5  A    between atoms: C_12  and  O_13
REMARK    6  A    between atoms: O_13  and  C_14
REMARK    7  A    between atoms: C_19  and  C_20
REMARK                            x       y       z     vdW  Elec       q    Type
REMARK                         _______ _______ _______ _____ _____    ______ ____
ROOT
ATOM      1  C   UNL     1       6.303   5.490  18.219  0.00  0.00    +0.000 A 
ATOM      2  C   UNL     1       7.254   4.571  17.729  0.00  0.00    +0.000 A 
ATOM      3  C   UNL     1       7.369   4.279  16.366  0.00  0.00    +0.000 A 
ATOM      4  C   UNL     1       6.522   4.911  15.456  0.00  0.00    +0.000 A 
ATOM      5  C   UNL     1       5.550   5.802  15.948  0.00  0.00    +0.000 A 
ATOM      6  C   UNL     1       5.400   6.102  17.325  0.00  0.00    +0.000 A 
ENDROOT
BRANCH   4   7
ATOM      7  C   UNL     1       6.612   4.701  13.986  0.00  0.00    +0.000 C 
ATOM      8  N   UNL     1       5.765   3.822  13.379  0.00  0.00    +0.000 N 
ATOM      9  O   UNL     1       7.452   5.313  13.305  0.00  0.00    +0.000 OA
ATOM     10  H   UNL     1       5.053   3.285  13.844  0.00  0.00    +0.000 HD
ATOM     11  H   UNL     1       5.864   3.704  12.380  0.00  0.00    +0.000 HD
ENDBRANCH   4   7
BRANCH   1  13
ATOM     12  C   UNL     1       7.792   5.647  20.103  0.00  0.00    +0.000 C 
ATOM     13  O   UNL     1       6.493   5.734  19.550  0.00  0.00    +0.000 OA
ENDBRANCH   1  13
BRANCH   6  14
ATOM     14  C   UNL     1       4.336   7.132  17.684  0.00  0.00    +0.000 C 
BRANCH  14  15
ATOM     15  O   UNL     1       3.028   6.579  17.493  0.00  0.00    +0.000 OA
BRANCH  15  16
ATOM     16  C   UNL     1       2.577   5.595  18.336  0.00  0.00    +0.000 A 
ATOM     17  C   UNL     1       2.720   5.918  19.689  0.00  0.00    +0.000 A 
ATOM     18  C   UNL     1       2.334   5.030  20.693  0.00  0.00    +0.000 A 
ATOM     19  C   UNL     1       1.770   3.799  20.359  0.00  0.00    +0.000 A 
ATOM     20 CL   UNL     1       1.265   2.784  21.663  0.00  0.00    +0.000 Cl
ATOM     21  C   UNL     1       1.617   3.439  19.009  0.00  0.00    +0.000 A 
ATOM     22  C   UNL     1       1.048   2.111  18.581  0.00  0.00    +0.000 C 
ATOM     23  C   UNL     1       2.037   4.349  18.001  0.00  0.00    +0.000 A 
ENDBRANCH  15  16
ENDBRANCH  14  15
ENDBRANCH   6  14
TORSDOF 5
ENDMDL
MODEL 3
REMARK VINA RESULT:      -7.4      2.130      3.611
REMARK  Name = 
REMARK  7 active torsions:
REMARK  status: ('A' for Active; 'I' for Inactive)
REMARK    1  A    between atoms: C_1  and  O_2
REMARK    2  A    between atoms: O_2  and  C_3
REMARK    3  A    between atoms: C_6  and  C_7
REMARK    4  A    between atoms: C_11  and  C_12
REMARK    5  A    between atoms: C_12  and  O_13
REMARK    6  A    between atoms: O_13  and  C_14
REMARK    7  A    between atoms: C_19  and  C_20
REMARK                            x       y       z     vdW  Elec       q    Type
REMARK                         _______ _______ _______ _____ _____    ______ ____
ROOT
ATOM      1  C   UNL     1       3.887   5.378  17.342  0.00  0.00    +0.000 A 
ATOM      2  C   UNL     1       3.899   3.991  17.086  0.00  0.00    +0.000 A 
ATOM      3  C   UNL     1       2.956   3.127  17.651  0.00  0.00    +0.000 A 
ATOM      4  C   UNL     1       1.971   3.641  18.493  0.00  0.00    +0.000 A 
ATOM      5  C   UNL     1       1.980   5.019  18.776  0.00  0.00    +0.000 A 
ATOM      6  C   UNL     1       2.935   5.916  18.231  0.00  0.00    +0.000 A 
ENDROOT
BRANCH   4   7
ATOM      7  C   UNL     1       0.898   2.801  19.091  0.00  0.00    +0.000 C 
ATOM      8  N   UNL     1       0.603   2.931  20.416  0.00  0.00    +0.000 N 
ATOM      9  O   UNL     1       0.270   1.983  18.399  0.00  0.00    +0.000 OA
ATOM     10  H   UNL     1       1.053   3.566  21.053  0.00  0.00    +0.000 HD
ATOM     11  H   UNL     1      -0.128   2.337  20.784  0.00  0.00    +0.000 HD
ENDBRANCH   4   7
BRANCH   1  13
ATOM     12  C   UNL     1       5.469   5.331  15.528  0.00  0.00    +0.000 C 
ATOM     13  O   UNL     1       4.792   6.032  16.553  0.00  0.00    +0.000 OA
ENDBRANCH   1  13
BRANCH   6  14
ATOM     14  C   UNL     1       2.768   7.386  18.593  0.00  0.00    +0.000 C 
BRANCH  14  15
ATOM     15  O   UNL     1       2.333   7.515  19.952  0.00  0.00    +0.000 OA
BRANCH  15  16
ATOM     16  C   UNL     1       1.429   8.492  20.285  0.00  0.00    +0.000 A 
ATOM     17  C   UNL     1       1.098   9.328  19.214  0.00  0.00    +0.000 A 
ATOM     18  C   UNL     1       0.208  10.391  19.370  0.00  0.00    +0.000 A 
ATOM     19  C   UNL     1      -0.391  10.626  20.607  0.00  0.00    +0.000 A 
ATOM     20 CL   UNL     1      -1.526  11.926  20.698  0.00  0.00    +0.000 Cl
ATOM     21  C   UNL     1      -0.076   9.811  21.707  0.00  0.00    +0.000 A 
ATOM     22  C   UNL     1      -0.660  10.033  23.078  0.00  0.00    +0.000 C 
ATOM     23  C   UNL     1       0.849   8.746  21.533  0.00  0.00    +0.000 A 
ENDBRANCH  15  16
ENDBRANCH  14  15
ENDBRANCH   6  14
TORSDOF 5
ENDMDL
MODEL 4
REMARK VINA RESULT:      -7.3      2.495      4.131
REMARK  Name = 
REMARK  7 active torsions:
REMARK  status: ('A' for Active; 'I' for Inactive)
REMARK    1  A    between atoms: C_1  and  O_2
REMARK    2  A    between atoms: O_2  and  C_3
REMARK    3  A    between atoms: C_6  and  C_7
REMARK    4  A    between atoms: C_11  and  C_12
REMARK    5  A    between atoms: C_12  and  O_13
REMARK    6  A    between atoms: O_13  and  C_14
REMARK    7  A    between atoms: C_19  and  C_20
REMARK                            x       y       z     vdW  Elec       q    Type
REMARK                         _______ _______ _______ _____ _____    ______ ____
ROOT
ATOM      1  C   UNL     1       5.488   4.571  15.842  0.00  0.00    +0.000 A 
ATOM      2  C   UNL     1       6.501   5.510  15.552  0.00  0.00    +0.000 A 
ATOM      3  C   UNL     1       7.298   6.071  16.554  0.00  0.00    +0.000 A 
ATOM      4  C   UNL     1       7.094   5.698  17.882  0.00  0.00    +0.000 A 
ATOM      5  C   UNL     1       6.062   4.788  18.175  0.00  0.00    +0.000 A 
ATOM      6  C   UNL     1       5.227   4.218  17.181  0.00  0.00    +0.000 A 
ENDROOT
BRANCH   4   7
ATOM      7  C   UNL     1       7.933   6.203  19.003  0.00  0.00    +0.000 C 
ATOM      8  N   UNL     1       8.100   5.435  20.117  0.00  0.00    +0.000 N 
ATOM      9  O   UNL     1       8.481   7.317  18.937  0.00  0.00    +0.000 OA
ATOM     10  H   UNL     1       7.701   4.523  20.260  0.00  0.00    +0.000 HD
ATOM     11  H   UNL     1       8.672   5.818  20.858  0.00  0.00    +0.000 HD
ENDBRANCH   4   7
BRANCH   1  13
ATOM     12  C   UNL     1       5.804   3.795  13.585  0.00  0.00    +0.000 C 
ATOM     13  O   UNL     1       4.963   4.044  14.695  0.00  0.00    +0.000 OA
ENDBRANCH   1  13
BRANCH   6  14
ATOM     14  C   UNL     1       4.195   3.206  17.661  0.00  0.00    +0.000 C 
BRANCH  14  15
ATOM     15  O   UNL     1       2.879   3.767  17.586  0.00  0.00    +0.000 OA
BRANCH  15  16
ATOM     16  C   UNL     1       2.589   4.915  18.280  0.00  0.00    +0.000 A 
ATOM     17  C   UNL     1       2.261   4.683  19.619  0.00  0.00    +0.000 A 
ATOM     18  C   UNL     1       1.918   5.730  20.475  0.00  0.00    +0.000 A 
ATOM     19  C   UNL     1       1.919   7.044  20.009  0.00  0.00    +0.000 A 
ATOM     20 CL   UNL     1       1.540   8.285  21.149  0.00  0.00    +0.000 Cl
ATOM     21  C   UNL     1       2.237   7.313  18.666  0.00  0.00    +0.000 A 
ATOM     22  C   UNL     1       2.223   8.706  18.091  0.00  0.00    +0.000 C 
ATOM     23  C   UNL     1       2.563   6.231  17.805  0.00  0.00    +0.000 A 
ENDBRANCH  15  16
ENDBRANCH  14  15
ENDBRANCH   6  14
TORSDOF 5
ENDMDL
MODEL 5
REMARK VINA RESULT:      -7.2      0.907      1.627
REMARK  Name = 
REMARK  7 active torsions:
REMARK  status: ('A' for Active; 'I' for Inactive)
REMARK    1  A    between atoms: C_1  and  O_2
REMARK    2  A    between atoms: O_2  and  C_3
REMARK    3  A    between atoms: C_6  and  C_7
REMARK    4  A    between atoms: C_11  and  C_12
REMARK    5  A    between atoms: C_12  and  O_13
REMARK    6  A    between atoms: O_13  and  C_14
REMARK    7  A    between atoms: C_19  and  C_20
REMARK                            x       y       z     vdW  Elec       q    Type
REMARK                         _______ _______ _______ _____ _____    ______ ____
ROOT
ATOM      1  C   UNL     1       2.842   5.022  17.701  0.00  0.00    +0.000 A 
ATOM      2  C   UNL     1       3.605   3.913  17.277  0.00  0.00    +0.000 A 
ATOM      3  C   UNL     1       4.962   4.025  16.962  0.00  0.00    +0.000 A 
ATOM      4  C   UNL     1       5.590   5.265  17.066  0.00  0.00    +0.000 A 
ATOM      5  C   UNL     1       4.822   6.378  17.455  0.00  0.00    +0.000 A 
ATOM      6  C   UNL     1       3.441   6.296  17.763  0.00  0.00    +0.000 A 
ENDROOT
BRANCH   4   7
ATOM      7  C   UNL     1       7.042   5.462  16.803  0.00  0.00    +0.000 C 
ATOM      8  N   UNL     1       7.523   6.721  16.600  0.00  0.00    +0.000 N 
ATOM      9  O   UNL     1       7.819   4.494  16.765  0.00  0.00    +0.000 OA
ATOM     10  H   UNL     1       6.974   7.564  16.615  0.00  0.00    +0.000 HD
ATOM     11  H   UNL     1       8.514   6.811  16.418  0.00  0.00    +0.000 HD
ENDBRANCH   4   7
BRANCH   1  13
ATOM     12  C   UNL     1       1.459   3.680  19.144  0.00  0.00    +0.000 C 
ATOM     13  O   UNL     1       1.597   4.636  18.109  0.00  0.00    +0.000 OA
ENDBRANCH   1  13
BRANCH   6  14
ATOM     14  C   UNL     1       2.771   7.585  18.224  0.00  0.00    +0.000 C 
BRANCH  14  15
ATOM     15  O   UNL     1       2.269   7.433  19.557  0.00  0.00    +0.000 OA
BRANCH  15  16
ATOM     16  C   UNL     1       1.502   8.426  20.111  0.00  0.00    +0.000 A 
ATOM     17  C   UNL     1       1.327   8.285  21.491  0.00  0.00    +0.000 A 
ATOM     18  C   UNL     1       0.560   9.190  22.224  0.00  0.00    +0.000 A 
ATOM     19  C   UNL     1      -0.035  10.278  21.587  0.00  0.00    +0.000 A 
ATOM     20 CL   UNL     1      -0.920  11.384  22.577  0.00  0.00    +0.000 Cl
ATOM     21  C   UNL     1       0.113  10.448  20.199  0.00  0.00    +0.000 A 
ATOM     22  C   UNL     1      -0.533  11.581  19.445  0.00  0.00    +0.000 C 
ATOM     23  C   UNL     1       0.882   9.502  19.468  0.00  0.00    +0.000 A 
ENDBRANCH  15  16
ENDBRANCH  14  15
ENDBRANCH   6  14
TORSDOF 5
ENDMDL
MODEL 6
REMARK VINA RESULT:      -7.2      3.773      5.908
REMARK  Name = 
REMARK  7 active torsions:
REMARK  status: ('A' for Active; 'I' for Inactive)
REMARK    1  A    between atoms: C_1  and  O_2
REMARK    2  A    between atoms: O_2  and  C_3
REMARK    3  A    between atoms: C_6  and  C_7
REMARK    4  A    between atoms: C_11  and  C_12
REMARK    5  A    between atoms: C_12  and  O_13
REMARK    6  A    between atoms: O_13  and  C_14
REMARK    7  A    between atoms: C_19  and  C_20
REMARK                            x       y       z     vdW  Elec       q    Type
REMARK                         _______ _______ _______ _____ _____    ______ ____
ROOT
ATOM      1  C   UNL     1       7.122   5.071  15.046  0.00  0.00    +0.000 A 
ATOM      2  C   UNL     1       7.553   5.258  13.716  0.00  0.00    +0.000 A 
ATOM      3  C   UNL     1       7.012   4.528  12.653  0.00  0.00    +0.000 A 
ATOM      4  C   UNL     1       6.017   3.584  12.906  0.00  0.00    +0.000 A 
ATOM      5  C   UNL     1       5.612   3.373  14.237  0.00  0.00    +0.000 A 
ATOM      6  C   UNL     1       6.156   4.087  15.335  0.00  0.00    +0.000 A 
ENDROOT
BRANCH   4   7
ATOM      7  C   UNL     1       5.349   2.804  11.829  0.00  0.00    +0.000 C 
ATOM      8  N   UNL     1       5.890   1.621  11.422  0.00  0.00    +0.000 N 
ATOM      9  O   UNL     1       4.307   3.219  11.295  0.00  0.00    +0.000 OA
ATOM     10  H   UNL     1       6.726   1.204  11.796  0.00  0.00    +0.000 HD
ATOM     11  H   UNL     1       5.409   1.125  10.684  0.00  0.00    +0.000 HD
ENDBRANCH   4   7
BRANCH   1  13
ATOM     12  C   UNL     1       6.847   6.706  16.792  0.00  0.00    +0.000 C 
ATOM     13  O   UNL     1       7.670   6.008  15.877  0.00  0.00    +0.000 OA
ENDBRANCH   1  13
BRANCH   6  14
ATOM     14  C   UNL     1       5.566   3.777  16.705  0.00  0.00    +0.000 C 
BRANCH  14  15
ATOM     15  O   UNL     1       4.194   4.185  16.756  0.00  0.00    +0.000 OA
BRANCH  15  16
ATOM     16  C   UNL     1       3.473   4.002  17.909  0.00  0.00    +0.000 A 
ATOM     17  C   UNL     1       3.309   2.656  18.251  0.00  0.00    +0.000 A 
ATOM     18  C   UNL     1       2.587   2.276  19.382  0.00  0.00    +0.000 A 
ATOM     19  C   UNL     1       2.029   3.245  20.214  0.00  0.00    +0.000 A 
ATOM     20 CL   UNL     1       1.201   2.690  21.625  0.00  0.00    +0.000 Cl
ATOM     21  C   UNL     1       2.168   4.608  19.898  0.00  0.00    +0.000 A 
ATOM     22  C   UNL     1       1.560   5.703  20.735  0.00  0.00    +0.000 C 
ATOM     23  C   UNL     1       2.890   4.974  18.730  0.00  0.00    +0.000 A 
ENDBRANCH  15  16
ENDBRANCH  14  15
ENDBRANCH   6  14
TORSDOF 5
ENDMDL
MODEL 7
REMARK VINA RESULT:      -7.2      2.250      3.919
REMARK  Name = 
REMARK  7 active torsions:
REMARK  status: ('A' for Active; 'I' for Inactive)
REMARK    1  A    between atoms: C_1  and  O_2
REMARK    2  A    between atoms: O_2  and  C_3
REMARK    3  A    between atoms: C_6  and  C_7
REMARK    4  A    between atoms: C_11  and  C_12
REMARK    5  A    between atoms: C_12  and  O_13
REMARK    6  A    between atoms: O_13  and  C_14
REMARK    7  A    between atoms: C_19  and  C_20
REMARK                            x       y       z     vdW  Elec       q    Type
REMARK                         _______ _______ _______ _____ _____    ______ ____
ROOT
ATOM      1  C   UNL     1       3.698   5.780  17.514  0.00  0.00    +0.000 A 
ATOM      2  C   UNL     1       3.822   4.405  17.220  0.00  0.00    +0.000 A 
ATOM      3  C   UNL     1       2.950   3.453  17.757  0.00  0.00    +0.000 A 
ATOM      4  C   UNL     1       1.926   3.863  18.609  0.00  0.00    +0.000 A 
ATOM      5  C   UNL     1       1.823   5.229  18.929  0.00  0.00    +0.000 A 
ATOM      6  C   UNL     1       2.704   6.214  18.414  0.00  0.00    +0.000 A 
ENDROOT
BRANCH   4   7
ATOM      7  C   UNL     1       0.922   2.924  19.178  0.00  0.00    +0.000 C 
ATOM      8  N   UNL     1       0.637   2.971  20.511  0.00  0.00    +0.000 N 
ATOM      9  O   UNL     1       0.342   2.095  18.456  0.00  0.00    +0.000 OA
ATOM     10  H   UNL     1       1.050   3.607  21.172  0.00  0.00    +0.000 HD
ATOM     11  H   UNL     1      -0.046   2.312  20.859  0.00  0.00    +0.000 HD
ENDBRANCH   4   7
BRANCH   1  13
ATOM     12  C   UNL     1       5.860   6.792  17.207  0.00  0.00    +0.000 C 
ATOM     13  O   UNL     1       4.549   6.525  16.748  0.00  0.00    +0.000 OA
ENDBRANCH   1  13
BRANCH   6  14
ATOM     14  C   UNL     1       2.420   7.655  18.816  0.00  0.00    +0.000 C 
BRANCH  14  15
ATOM     15  O   UNL     1       2.098   7.727  20.210  0.00  0.00    +0.000 OA
BRANCH  15  16
ATOM     16  C   UNL     1       1.228   8.688  20.658  0.00  0.00    +0.000 A 
ATOM     17  C   UNL     1       1.094   8.707  22.050  0.00  0.00    +0.000 A 
ATOM     18  C   UNL     1       0.236   9.605  22.685  0.00  0.00    +0.000 A 
ATOM     19  C   UNL     1      -0.493  10.527  21.935  0.00  0.00    +0.000 A 
ATOM     20 CL   UNL     1      -1.485  11.642  22.805  0.00  0.00    +0.000 Cl
ATOM     21  C   UNL     1      -0.388  10.532  20.534  0.00  0.00    +0.000 A 
ATOM     22  C   UNL     1      -1.174  11.478  19.662  0.00  0.00    +0.000 C 
ATOM     23  C   UNL     1       0.476   9.595  19.903  0.00  0.00    +0.000 A 
ENDBRANCH  15  16
ENDBRANCH  14  15
ENDBRANCH   6  14
TORSDOF 5
ENDMDL
MODEL 8
REMARK VINA RESULT:      -7.2      4.209      7.485
REMARK  Name = 
REMARK  7 active torsions:
REMARK  status: ('A' for Active; 'I' for Inactive)
REMARK    1  A    between atoms: C_1  and  O_2
REMARK    2  A    between atoms: O_2  and  C_3
REMARK    3  A    between atoms: C_6  and  C_7
REMARK    4  A    between atoms: C_11  and  C_12
REMARK    5  A    between atoms: C_12  and  O_13
REMARK    6  A    between atoms: O_13  and  C_14
REMARK    7  A    between atoms: C_19  and  C_20
REMARK                            x       y       z     vdW  Elec       q    Type
REMARK                         _______ _______ _______ _____ _____    ______ ____
ROOT
ATOM      1  C   UNL     1       2.539   4.188  19.811  0.00  0.00    +0.000 A 
ATOM      2  C   UNL     1       2.008   5.186  20.655  0.00  0.00    +0.000 A 
ATOM      3  C   UNL     1       1.878   6.514  20.239  0.00  0.00    +0.000 A 
ATOM      4  C   UNL     1       2.282   6.873  18.954  0.00  0.00    +0.000 A 
ATOM      5  C   UNL     1       2.844   5.886  18.125  0.00  0.00    +0.000 A 
ATOM      6  C   UNL     1       3.004   4.536  18.527  0.00  0.00    +0.000 A 
ENDROOT
BRANCH   4   7
ATOM      7  C   UNL     1       2.128   8.251  18.412  0.00  0.00    +0.000 C 
ATOM      8  N   UNL     1       1.478   9.195  19.151  0.00  0.00    +0.000 N 
ATOM      9  O   UNL     1       2.581   8.551  17.295  0.00  0.00    +0.000 OA
ATOM     10  H   UNL     1       1.081   9.048  20.063  0.00  0.00    +0.000 HD
ATOM     11  H   UNL     1       1.388  10.116  18.744  0.00  0.00    +0.000 HD
ENDBRANCH   4   7
BRANCH   1  13
ATOM     12  C   UNL     1       1.587   2.772  21.510  0.00  0.00    +0.000 C 
ATOM     13  O   UNL     1       2.410   2.948  20.373  0.00  0.00    +0.000 OA
ENDBRANCH   1  13
BRANCH   6  14
ATOM     14  C   UNL     1       3.577   3.581  17.487  0.00  0.00    +0.000 C 
BRANCH  14  15
ATOM     15  O   UNL     1       5.004   3.697  17.441  0.00  0.00    +0.000 OA
BRANCH  15  16
ATOM     16  C   UNL     1       5.622   4.007  16.256  0.00  0.00    +0.000 A 
ATOM     17  C   UNL     1       6.664   4.928  16.400  0.00  0.00    +0.000 A 
ATOM     18  C   UNL     1       7.395   5.376  15.300  0.00  0.00    +0.000 A 
ATOM     19  C   UNL     1       7.110   4.890  14.025  0.00  0.00    +0.000 A 
ATOM     20 CL   UNL     1       8.102   5.452  12.727  0.00  0.00    +0.000 Cl
ATOM     21  C   UNL     1       6.065   3.968  13.842  0.00  0.00    +0.000 A 
ATOM     22  C   UNL     1       5.683   3.430  12.487  0.00  0.00    +0.000 C 
ATOM     23  C   UNL     1       5.318   3.539  14.972  0.00  0.00    +0.000 A 
ENDBRANCH  15  16
ENDBRANCH  14  15
ENDBRANCH   6  14
TORSDOF 5
ENDMDL
MODEL 9
REMARK VINA RESULT:      -7.1      3.258      5.189
REMARK  Name = 
REMARK  7 active torsions:
REMARK  status: ('A' for Active; 'I' for Inactive)
REMARK    1  A    between atoms: C_1  and  O_2
REMARK    2  A    between atoms: O_2  and  C_3
REMARK    3  A    between atoms: C_6  and  C_7
REMARK    4  A    between atoms: C_11  and  C_12
REMARK    5  A    between atoms: C_12  and  O_13
REMARK    6  A    between atoms: O_13  and  C_14
REMARK    7  A    between atoms: C_19  and  C_20
REMARK                            x       y       z     vdW  Elec       q    Type
REMARK                         _______ _______ _______ _____ _____    ______ ____
ROOT
ATOM      1  C   UNL     1       7.045   5.051  15.262  0.00  0.00    +0.000 A 
ATOM      2  C   UNL     1       7.528   5.262  13.954  0.00  0.00    +0.000 A 
ATOM      3  C   UNL     1       7.006   4.578  12.852  0.00  0.00    +0.000 A 
ATOM      4  C   UNL     1       5.976   3.657  13.043  0.00  0.00    +0.000 A 
ATOM      5  C   UNL     1       5.518   3.421  14.351  0.00  0.00    +0.000 A 
ATOM      6  C   UNL     1       6.042   4.087  15.488  0.00  0.00    +0.000 A 
ENDROOT
BRANCH   4   7
ATOM      7  C   UNL     1       5.326   2.927  11.921  0.00  0.00    +0.000 C 
ATOM      8  N   UNL     1       5.849   1.742  11.496  0.00  0.00    +0.000 N 
ATOM      9  O   UNL     1       4.314   3.385  11.364  0.00  0.00    +0.000 OA
ATOM     10  H   UNL     1       6.661   1.292  11.885  0.00  0.00    +0.000 HD
ATOM     11  H   UNL     1       5.382   1.282  10.727  0.00  0.00    +0.000 HD
ENDBRANCH   4   7
BRANCH   1  13
ATOM     12  C   UNL     1       6.765   6.917  16.757  0.00  0.00    +0.000 C 
ATOM     13  O   UNL     1       7.589   5.948  16.139  0.00  0.00    +0.000 OA
ENDBRANCH   1  13
BRANCH   6  14
ATOM     14  C   UNL     1       5.395   3.757  16.827  0.00  0.00    +0.000 C 
BRANCH  14  15
ATOM     15  O   UNL     1       3.976   3.939  16.749  0.00  0.00    +0.000 OA
BRANCH  15  16
ATOM     16  C   UNL     1       3.306   4.516  17.798  0.00  0.00    +0.000 A 
ATOM     17  C   UNL     1       3.430   5.908  17.834  0.00  0.00    +0.000 A 
ATOM     18  C   UNL     1       2.833   6.665  18.842  0.00  0.00    +0.000 A 
ATOM     19  C   UNL     1       2.073   6.040  19.830  0.00  0.00    +0.000 A 
ATOM     20 CL   UNL     1       1.320   7.057  21.006  0.00  0.00    +0.000 Cl
ATOM     21  C   UNL     1       1.933   4.642  19.829  0.00  0.00    +0.000 A 
ATOM     22  C   UNL     1       1.156   3.901  20.886  0.00  0.00    +0.000 C 
ATOM     23  C   UNL     1       2.567   3.886  18.805  0.00  0.00    +0.000 A 
ENDBRANCH  15  16
ENDBRANCH  14  15
ENDBRANCH   6  14
TORSDOF 5
ENDMDL
