MODEL 1
REMARK VINA RESULT:      -8.0      0.000      0.000
REMARK  Name = 
REMARK  9 active torsions:
REMARK  status: ('A' for Active; 'I' for Inactive)
REMARK    1  A    between atoms: C_1  and  O_2
REMARK    2  A    between atoms: O_2  and  C_3
REMARK    3  A    between atoms: C_5  and  C_6
REMARK    4  A    between atoms: C_7  and  C_8
REMARK    5  A    between atoms: C_8  and  C_10
REMARK    6  A    between atoms: C_13  and  C_14
REMARK    7  A    between atoms: C_14  and  C_15
REMARK    8  A    between atoms: C_14  and  C_16
REMARK    9  A    between atoms: C_21  and  O_22
REMARK                            x       y       z     vdW  Elec       q    Type
REMARK                         _______ _______ _______ _____ _____    ______ ____
ROOT
ATOM      1  C   UNL     1       8.073   9.200  17.644  0.00  0.00    +0.000 C 
ATOM      2  C   UNL     1       8.026   7.916  18.035  0.00  0.00    +0.000 C 
ENDROOT
BRANCH   1   5
ATOM      3  C   UNL     1       9.897  12.444  18.411  0.00  0.00    +0.000 A 
ATOM      4  C   UNL     1       9.171  11.437  17.745  0.00  0.00    +0.000 A 
ATOM      5  C   UNL     1       8.832  10.231  18.378  0.00  0.00    +0.000 A 
ATOM      6  C   UNL     1       9.207  10.060  19.715  0.00  0.00    +0.000 A 
ATOM      7  C   UNL     1       9.929  11.046  20.389  0.00  0.00    +0.000 A 
ATOM      8  C   UNL     1      10.278  12.231  19.740  0.00  0.00    +0.000 A 
BRANCH   3  10
ATOM      9  C   UNL     1      11.292  13.520  16.791  0.00  0.00    +0.000 C 
ATOM     10  O   UNL     1      10.145  13.543  17.630  0.00  0.00    +0.000 OA
ENDBRANCH   3  10
BRANCH   8  11
ATOM     11  O   UNL     1      10.992  13.161  20.445  0.00  0.00    +0.000 OA
ATOM     12  H   UNL     1      10.509  13.393  21.253  0.00  0.00    +0.000 HD
ENDBRANCH   8  11
ENDBRANCH   1   5
BRANCH   2  13
ATOM     13  C   UNL     1       7.287   6.878  17.266  0.00  0.00    +0.000 C 
ATOM     14  O   UNL     1       7.712   6.417  16.210  0.00  0.00    +0.000 OA
BRANCH  13  15
ATOM     15  C   UNL     1       5.969   6.445  17.822  0.00  0.00    +0.000 A 
ATOM     16  C   UNL     1       4.790   6.931  17.251  0.00  0.00    +0.000 A 
ATOM     17  C   UNL     1       3.544   6.512  17.739  0.00  0.00    +0.000 A 
ATOM     18  C   UNL     1       3.452   5.588  18.794  0.00  0.00    +0.000 A 
ATOM     19  C   UNL     1       4.643   5.116  19.366  0.00  0.00    +0.000 A 
ATOM     20  C   UNL     1       5.887   5.533  18.883  0.00  0.00    +0.000 A 
BRANCH  18  21
ATOM     21  C   UNL     1       2.091   5.090  19.257  0.00  0.00    +0.000 C 
ATOM     22  C   UNL     1       1.593   3.924  18.394  0.00  0.00    +0.000 C 
ATOM     23  C   UNL     1       2.078   4.686  20.734  0.00  0.00    +0.000 C 
ENDBRANCH  18  21
ENDBRANCH  13  15
ENDBRANCH   2  13
TORSDOF 6
ENDMDL
MODEL 2
REMARK VINA RESULT:      -7.8      0.725      1.355
REMARK  Name = 
REMARK  9 active torsions:
REMARK  status: ('A' for Active; 'I' for Inactive)
REMARK    1  A    between atoms: C_1  and  O_2
REMARK    2  A    between atoms: O_2  and  C_3
REMARK    3  A    between atoms: C_5  and  C_6
REMARK    4  A    between atoms: C_7  and  C_8
REMARK    5  A    between atoms: C_8  and  C_10
REMARK    6  A    between atoms: C_13  and  C_14
REMARK    7  A    between atoms: C_14  and  C_15
REMARK    8  A    between atoms: C_14  and  C_16
REMARK    9  A    between atoms: C_21  and  O_22
REMARK                            x       y       z     vdW  Elec       q    Type
REMARK                         _______ _______ _______ _____ _____    ______ ____
ROOT
ATOM      1  C   UNL     1       8.024   9.152  17.565  0.00  0.00    +0.000 C 
ATOM      2  C   UNL     1       7.910   7.904  18.050  0.00  0.00    +0.000 C 
ENDROOT
BRANCH   1   5
ATOM      3  C   UNL     1       9.240  12.624  18.513  0.00  0.00    +0.000 A 
ATOM      4  C   UNL     1       8.613  11.559  17.835  0.00  0.00    +0.000 A 
ATOM      5  C   UNL     1       8.692  10.238  18.305  0.00  0.00    +0.000 A 
ATOM      6  C   UNL     1       9.390  10.002  19.495  0.00  0.00    +0.000 A 
ATOM      7  C   UNL     1      10.019  11.045  20.177  0.00  0.00    +0.000 A 
ATOM      8  C   UNL     1       9.951  12.350  19.687  0.00  0.00    +0.000 A 
BRANCH   3  10
ATOM      9  C   UNL     1       7.746  14.362  17.821  0.00  0.00    +0.000 C 
ATOM     10  O   UNL     1       9.065  13.837  17.899  0.00  0.00    +0.000 OA
ENDBRANCH   3  10
BRANCH   8  11
ATOM     11  O   UNL     1      10.591  13.332  20.390  0.00  0.00    +0.000 OA
ATOM     12  H   UNL     1      10.016  13.642  21.108  0.00  0.00    +0.000 HD
ENDBRANCH   8  11
ENDBRANCH   1   5
BRANCH   2  13
ATOM     13  C   UNL     1       7.265   6.807  17.279  0.00  0.00    +0.000 C 
ATOM     14  O   UNL     1       7.778   6.324  16.273  0.00  0.00    +0.000 OA
BRANCH  13  15
ATOM     15  C   UNL     1       5.931   6.342  17.764  0.00  0.00    +0.000 A 
ATOM     16  C   UNL     1       5.865   5.346  18.744  0.00  0.00    +0.000 A 
ATOM     17  C   UNL     1       4.623   4.919  19.233  0.00  0.00    +0.000 A 
ATOM     18  C   UNL     1       3.425   5.488  18.769  0.00  0.00    +0.000 A 
ATOM     19  C   UNL     1       3.504   6.479  17.779  0.00  0.00    +0.000 A 
ATOM     20  C   UNL     1       4.741   6.906  17.286  0.00  0.00    +0.000 A 
BRANCH  18  21
ATOM     21  C   UNL     1       2.093   5.063  19.370  0.00  0.00    +0.000 C 
ATOM     22  C   UNL     1       1.497   3.862  18.628  0.00  0.00    +0.000 C 
ATOM     23  C   UNL     1       2.191   4.755  20.867  0.00  0.00    +0.000 C 
ENDBRANCH  18  21
ENDBRANCH  13  15
ENDBRANCH   2  13
TORSDOF 6
ENDMDL
MODEL 3
REMARK VINA RESULT:      -7.7      0.410      1.303
REMARK  Name = 
REMARK  9 active torsions:
REMARK  status: ('A' for Active; 'I' for Inactive)
REMARK    1  A    between atoms: C_1  and  O_2
REMARK    2  A    between atoms: O_2  and  C_3
REMARK    3  A    between atoms: C_5  and  C_6
REMARK    4  A    between atoms: C_7  and  C_8
REMARK    5  A    between atoms: C_8  and  C_10
REMARK    6  A    between atoms: C_13  and  C_14
REMARK    7  A    between atoms: C_14  and  C_15
REMARK    8  A    between atoms: C_14  and  C_16
REMARK    9  A    between atoms: C_21  and  O_22
REMARK                            x       y       z     vdW  Elec       q    Type
REMARK                         _______ _______ _______ _____ _____    ______ ____
ROOT
ATOM      1  C   UNL     1       8.016   9.210  17.628  0.00  0.00    +0.000 C 
ATOM      2  C   UNL     1       8.043   7.915  17.984  0.00  0.00    +0.000 C 
ENDROOT
BRANCH   1   5
ATOM      3  C   UNL     1       9.700  12.519  18.436  0.00  0.00    +0.000 A 
ATOM      4  C   UNL     1       9.004  11.496  17.762  0.00  0.00    +0.000 A 
ATOM      5  C   UNL     1       8.746  10.256  18.369  0.00  0.00    +0.000 A 
ATOM      6  C   UNL     1       9.172  10.067  19.688  0.00  0.00    +0.000 A 
ATOM      7  C   UNL     1       9.866  11.069  20.369  0.00  0.00    +0.000 A 
ATOM      8  C   UNL     1      10.134  12.288  19.746  0.00  0.00    +0.000 A 
BRANCH   3  10
ATOM      9  C   UNL     1      11.083  13.797  16.957  0.00  0.00    +0.000 C 
ATOM     10  O   UNL     1       9.868  13.651  17.680  0.00  0.00    +0.000 OA
ENDBRANCH   3  10
BRANCH   8  11
ATOM     11  O   UNL     1      10.823  13.232  20.455  0.00  0.00    +0.000 OA
ATOM     12  H   UNL     1      10.296  13.508  21.222  0.00  0.00    +0.000 HD
ENDBRANCH   8  11
ENDBRANCH   1   5
BRANCH   2  13
ATOM     13  C   UNL     1       7.332   6.863  17.207  0.00  0.00    +0.000 C 
ATOM     14  O   UNL     1       7.730   6.475  16.113  0.00  0.00    +0.000 OA
BRANCH  13  15
ATOM     15  C   UNL     1       6.075   6.323  17.808  0.00  0.00    +0.000 A 
ATOM     16  C   UNL     1       6.149   5.272  18.726  0.00  0.00    +0.000 A 
ATOM     17  C   UNL     1       4.982   4.772  19.323  0.00  0.00    +0.000 A 
ATOM     18  C   UNL     1       3.723   5.324  19.028  0.00  0.00    +0.000 A 
ATOM     19  C   UNL     1       3.662   6.371  18.097  0.00  0.00    +0.000 A 
ATOM     20  C   UNL     1       4.823   6.870  17.498  0.00  0.00    +0.000 A 
BRANCH  18  21
ATOM     21  C   UNL     1       2.480   4.817  19.744  0.00  0.00    +0.000 C 
ATOM     22  C   UNL     1       1.756   5.947  20.485  0.00  0.00    +0.000 C 
ATOM     23  C   UNL     1       1.506   4.101  18.805  0.00  0.00    +0.000 C 
ENDBRANCH  18  21
ENDBRANCH  13  15
ENDBRANCH   2  13
TORSDOF 6
ENDMDL
MODEL 4
REMARK VINA RESULT:      -7.5      0.909      1.105
REMARK  Name = 
REMARK  9 active torsions:
REMARK  status: ('A' for Active; 'I' for Inactive)
REMARK    1  A    between atoms: C_1  and  O_2
REMARK    2  A    between atoms: O_2  and  C_3
REMARK    3  A    between atoms: C_5  and  C_6
REMARK    4  A    between atoms: C_7  and  C_8
REMARK    5  A    between atoms: C_8  and  C_10
REMARK    6  A    between atoms: C_13  and  C_14
REMARK    7  A    between atoms: C_14  and  C_15
REMARK    8  A    between atoms: C_14  and  C_16
REMARK    9  A    between atoms: C_21  and  O_22
REMARK                            x       y       z     vdW  Elec       q    Type
REMARK                         _______ _______ _______ _____ _____    ______ ____
ROOT
ATOM      1  C   UNL     1       7.930   9.186  17.589  0.00  0.00    +0.000 C 
ATOM      2  C   UNL     1       7.928   7.909  18.007  0.00  0.00    +0.000 C 
ENDROOT
BRANCH   1   5
ATOM      3  C   UNL     1       9.241  12.635  18.497  0.00  0.00    +0.000 A 
ATOM      4  C   UNL     1       8.584  11.580  17.833  0.00  0.00    +0.000 A 
ATOM      5  C   UNL     1       8.629  10.262  18.316  0.00  0.00    +0.000 A 
ATOM      6  C   UNL     1       9.323  10.020  19.507  0.00  0.00    +0.000 A 
ATOM      7  C   UNL     1       9.982  11.053  20.176  0.00  0.00    +0.000 A 
ATOM      8  C   UNL     1       9.947  12.354  19.672  0.00  0.00    +0.000 A 
BRANCH   3  10
ATOM      9  C   UNL     1       7.873  14.548  18.051  0.00  0.00    +0.000 C 
ATOM     10  O   UNL     1       9.096  13.846  17.872  0.00  0.00    +0.000 OA
ENDBRANCH   3  10
BRANCH   8  11
ATOM     11  O   UNL     1      10.615  13.326  20.363  0.00  0.00    +0.000 OA
ATOM     12  H   UNL     1      10.789  13.018  21.267  0.00  0.00    +0.000 HD
ENDBRANCH   8  11
ENDBRANCH   1   5
BRANCH   2  13
ATOM     13  C   UNL     1       7.249   6.825  17.245  0.00  0.00    +0.000 C 
ATOM     14  O   UNL     1       7.619   6.479  16.127  0.00  0.00    +0.000 OA
BRANCH  13  15
ATOM     15  C   UNL     1       6.058   6.198  17.893  0.00  0.00    +0.000 A 
ATOM     16  C   UNL     1       4.777   6.523  17.438  0.00  0.00    +0.000 A 
ATOM     17  C   UNL     1       3.649   5.921  18.013  0.00  0.00    +0.000 A 
ATOM     18  C   UNL     1       3.778   4.970  19.040  0.00  0.00    +0.000 A 
ATOM     19  C   UNL     1       5.068   4.660  19.495  0.00  0.00    +0.000 A 
ATOM     20  C   UNL     1       6.196   5.260  18.925  0.00  0.00    +0.000 A 
BRANCH  18  21
ATOM     21  C   UNL     1       2.545   4.273  19.596  0.00  0.00    +0.000 C 
ATOM     22  C   UNL     1       2.918   3.023  20.401  0.00  0.00    +0.000 C 
ATOM     23  C   UNL     1       1.674   5.201  20.448  0.00  0.00    +0.000 C 
ENDBRANCH  18  21
ENDBRANCH  13  15
ENDBRANCH   2  13
TORSDOF 6
ENDMDL
MODEL 5
REMARK VINA RESULT:      -7.4      0.948      1.997
REMARK  Name = 
REMARK  9 active torsions:
REMARK  status: ('A' for Active; 'I' for Inactive)
REMARK    1  A    between atoms: C_1  and  O_2
REMARK    2  A    between atoms: O_2  and  C_3
REMARK    3  A    between atoms: C_5  and  C_6
REMARK    4  A    between atoms: C_7  and  C_8
REMARK    5  A    between atoms: C_8  and  C_10
REMARK    6  A    between atoms: C_13  and  C_14
REMARK    7  A    between atoms: C_14  and  C_15
REMARK    8  A    between atoms: C_14  and  C_16
REMARK    9  A    between atoms: C_21  and  O_22
REMARK                            x       y       z     vdW  Elec       q    Type
REMARK                         _______ _______ _______ _____ _____    ______ ____
ROOT
ATOM      1  C   UNL     1       8.527   8.823  18.282  0.00  0.00    +0.000 C 
ATOM      2  C   UNL     1       7.459   8.482  17.542  0.00  0.00    +0.000 C 
ENDROOT
BRANCH   1   5
ATOM      3  C   UNL     1       9.601  11.884  20.260  0.00  0.00    +0.000 A 
ATOM      4  C   UNL     1       9.280  10.558  19.906  0.00  0.00    +0.000 A 
ATOM      5  C   UNL     1       8.857  10.223  18.610  0.00  0.00    +0.000 A 
ATOM      6  C   UNL     1       8.790  11.242  17.654  0.00  0.00    +0.000 A 
ATOM      7  C   UNL     1       9.101  12.561  17.988  0.00  0.00    +0.000 A 
ATOM      8  C   UNL     1       9.500  12.883  19.286  0.00  0.00    +0.000 A 
BRANCH   3  10
ATOM      9  C   UNL     1       8.987  12.381  22.520  0.00  0.00    +0.000 C 
ATOM     10  O   UNL     1       9.981  12.021  21.570  0.00  0.00    +0.000 OA
ENDBRANCH   3  10
BRANCH   8  11
ATOM     11  O   UNL     1       9.786  14.192  19.561  0.00  0.00    +0.000 OA
ATOM     12  H   UNL     1       9.536  14.391  20.477  0.00  0.00    +0.000 HD
ENDBRANCH   8  11
ENDBRANCH   1   5
BRANCH   2  13
ATOM     13  C   UNL     1       7.116   7.064  17.247  0.00  0.00    +0.000 C 
ATOM     14  O   UNL     1       7.822   6.353  16.538  0.00  0.00    +0.000 OA
BRANCH  13  15
ATOM     15  C   UNL     1       5.838   6.550  17.826  0.00  0.00    +0.000 A 
ATOM     16  C   UNL     1       4.620   7.005  17.314  0.00  0.00    +0.000 A 
ATOM     17  C   UNL     1       3.411   6.512  17.825  0.00  0.00    +0.000 A 
ATOM     18  C   UNL     1       3.394   5.542  18.842  0.00  0.00    +0.000 A 
ATOM     19  C   UNL     1       4.624   5.101  19.355  0.00  0.00    +0.000 A 
ATOM     20  C   UNL     1       5.832   5.593  18.850  0.00  0.00    +0.000 A 
BRANCH  18  21
ATOM     21  C   UNL     1       2.073   4.965  19.326  0.00  0.00    +0.000 C 
ATOM     22  C   UNL     1       1.585   3.831  18.417  0.00  0.00    +0.000 C 
ATOM     23  C   UNL     1       2.136   4.479  20.777  0.00  0.00    +0.000 C 
ENDBRANCH  18  21
ENDBRANCH  13  15
ENDBRANCH   2  13
TORSDOF 6
ENDMDL
MODEL 6
REMARK VINA RESULT:      -7.3      0.956      1.956
REMARK  Name = 
REMARK  9 active torsions:
REMARK  status: ('A' for Active; 'I' for Inactive)
REMARK    1  A    between atoms: C_1  and  O_2
REMARK    2  A    between atoms: O_2  and  C_3
REMARK    3  A    between atoms: C_5  and  C_6
REMARK    4  A    between atoms: C_7  and  C_8
REMARK    5  A    between atoms: C_8  and  C_10
REMARK    6  A    between atoms: C_13  and  C_14
REMARK    7  A    between atoms: C_14  and  C_15
REMARK    8  A    between atoms: C_14  and  C_16
REMARK    9  A    between atoms: C_21  and  O_22
REMARK                            x       y       z     vdW  Elec       q    Type
REMARK                         _______ _______ _______ _____ _____    ______ ____
ROOT
ATOM      1  C   UNL     1       8.217   8.327  18.319  0.00  0.00    +0.000 C 
ATOM      2  C   UNL     1       7.536   7.824  17.276  0.00  0.00    +0.000 C 
ENDROOT
BRANCH   1   5
ATOM      3  C   UNL     1       9.946  11.511  19.464  0.00  0.00    +0.000 A 
ATOM      4  C   UNL     1       9.565  10.160  19.339  0.00  0.00    +0.000 A 
ATOM      5  C   UNL     1       8.589   9.751  18.416  0.00  0.00    +0.000 A 
ATOM      6  C   UNL     1       8.016  10.723  17.588  0.00  0.00    +0.000 A 
ATOM      7  C   UNL     1       8.380  12.066  17.701  0.00  0.00    +0.000 A 
ATOM      8  C   UNL     1       9.336  12.461  18.638  0.00  0.00    +0.000 A 
BRANCH   3  10
ATOM      9  C   UNL     1      12.234  11.972  19.997  0.00  0.00    +0.000 C 
ATOM     10  O   UNL     1      10.902  11.720  20.424  0.00  0.00    +0.000 OA
ENDBRANCH   3  10
BRANCH   8  11
ATOM     11  O   UNL     1       9.650  13.790  18.711  0.00  0.00    +0.000 OA
ATOM     12  H   UNL     1      10.279  14.012  18.007  0.00  0.00    +0.000 HD
ENDBRANCH   8  11
ENDBRANCH   1   5
BRANCH   2  13
ATOM     13  C   UNL     1       7.135   6.392  17.206  0.00  0.00    +0.000 C 
ATOM     14  O   UNL     1       7.842   5.538  16.679  0.00  0.00    +0.000 OA
BRANCH  13  15
ATOM     15  C   UNL     1       5.798   6.044  17.775  0.00  0.00    +0.000 A 
ATOM     16  C   UNL     1       5.702   5.032  18.735  0.00  0.00    +0.000 A 
ATOM     17  C   UNL     1       4.460   4.712  19.303  0.00  0.00    +0.000 A 
ATOM     18  C   UNL     1       3.295   5.408  18.938  0.00  0.00    +0.000 A 
ATOM     19  C   UNL     1       3.402   6.414  17.966  0.00  0.00    +0.000 A 
ATOM     20  C   UNL     1       4.639   6.734  17.395  0.00  0.00    +0.000 A 
BRANCH  18  21
ATOM     21  C   UNL     1       1.973   5.096  19.623  0.00  0.00    +0.000 C 
ATOM     22  C   UNL     1       1.262   3.907  18.965  0.00  0.00    +0.000 C 
ATOM     23  C   UNL     1       2.129   4.843  21.125  0.00  0.00    +0.000 C 
ENDBRANCH  18  21
ENDBRANCH  13  15
ENDBRANCH   2  13
TORSDOF 6
ENDMDL
MODEL 7
REMARK VINA RESULT:      -7.3      0.999      1.812
REMARK  Name = 
REMARK  9 active torsions:
REMARK  status: ('A' for Active; 'I' for Inactive)
REMARK    1  A    between atoms: C_1  and  O_2
REMARK    2  A    between atoms: O_2  and  C_3
REMARK    3  A    between atoms: C_5  and  C_6
REMARK    4  A    between atoms: C_7  and  C_8
REMARK    5  A    between atoms: C_8  and  C_10
REMARK    6  A    between atoms: C_13  and  C_14
REMARK    7  A    between atoms: C_14  and  C_15
REMARK    8  A    between atoms: C_14  and  C_16
REMARK    9  A    between atoms: C_21  and  O_22
REMARK                            x       y       z     vdW  Elec       q    Type
REMARK                         _______ _______ _______ _____ _____    ______ ____
ROOT
ATOM      1  C   UNL     1       8.346   8.496  18.125  0.00  0.00    +0.000 C 
ATOM      2  C   UNL     1       7.447   8.087  17.215  0.00  0.00    +0.000 C 
ENDROOT
BRANCH   1   5
ATOM      3  C   UNL     1       9.998  11.625  19.510  0.00  0.00    +0.000 A 
ATOM      4  C   UNL     1       9.664  10.277  19.269  0.00  0.00    +0.000 A 
ATOM      5  C   UNL     1       8.668   9.918  18.347  0.00  0.00    +0.000 A 
ATOM      6  C   UNL     1       8.026  10.940  17.638  0.00  0.00    +0.000 A 
ATOM      7  C   UNL     1       8.343  12.280  17.868  0.00  0.00    +0.000 A 
ATOM      8  C   UNL     1       9.320  12.624  18.803  0.00  0.00    +0.000 A 
BRANCH   3  10
ATOM      9  C   UNL     1      12.326  11.898  19.999  0.00  0.00    +0.000 C 
ATOM     10  O   UNL     1      10.983  11.781  20.451  0.00  0.00    +0.000 OA
ENDBRANCH   3  10
BRANCH   8  11
ATOM     11  O   UNL     1       9.585  13.951  18.993  0.00  0.00    +0.000 OA
ATOM     12  H   UNL     1       9.145  14.255  19.803  0.00  0.00    +0.000 HD
ENDBRANCH   8  11
ENDBRANCH   1   5
BRANCH   2  13
ATOM     13  C   UNL     1       7.105   6.651  17.025  0.00  0.00    +0.000 C 
ATOM     14  O   UNL     1       7.734   5.922  16.265  0.00  0.00    +0.000 OA
BRANCH  13  15
ATOM     15  C   UNL     1       5.921   6.141  17.780  0.00  0.00    +0.000 A 
ATOM     16  C   UNL     1       4.639   6.568  17.420  0.00  0.00    +0.000 A 
ATOM     17  C   UNL     1       3.515   6.077  18.098  0.00  0.00    +0.000 A 
ATOM     18  C   UNL     1       3.645   5.136  19.134  0.00  0.00    +0.000 A 
ATOM     19  C   UNL     1       4.937   4.723  19.493  0.00  0.00    +0.000 A 
ATOM     20  C   UNL     1       6.062   5.213  18.821  0.00  0.00    +0.000 A 
BRANCH  18  21
ATOM     21  C   UNL     1       2.407   4.559  19.802  0.00  0.00    +0.000 C 
ATOM     22  C   UNL     1       1.696   5.602  20.672  0.00  0.00    +0.000 C 
ATOM     23  C   UNL     1       1.418   3.957  18.799  0.00  0.00    +0.000 C 
ENDBRANCH  18  21
ENDBRANCH  13  15
ENDBRANCH   2  13
TORSDOF 6
ENDMDL
MODEL 8
REMARK VINA RESULT:      -7.2      4.969      8.301
REMARK  Name = 
REMARK  9 active torsions:
REMARK  status: ('A' for Active; 'I' for Inactive)
REMARK    1  A    between atoms: C_1  and  O_2
REMARK    2  A    between atoms: O_2  and  C_3
REMARK    3  A    between atoms: C_5  and  C_6
REMARK    4  A    between atoms: C_7  and  C_8
REMARK    5  A    between atoms: C_8  and  C_10
REMARK    6  A    between atoms: C_13  and  C_14
REMARK    7  A    between atoms: C_14  and  C_15
REMARK    8  A    between atoms: C_14  and  C_16
REMARK    9  A    between atoms: C_21  and  O_22
REMARK                            x       y       z     vdW  Elec       q    Type
REMARK                         _______ _______ _______ _____ _____    ______ ____
ROOT
ATOM      1  C   UNL     1       5.431   4.234  18.078  0.00  0.00    +0.000 C 
ATOM      2  C   UNL     1       5.645   5.474  17.608  0.00  0.00    +0.000 C 
ENDROOT
BRANCH   1   5
ATOM      3  C   UNL     1       2.578   4.673  20.549  0.00  0.00    +0.000 A 
ATOM      4  C   UNL     1       3.516   4.911  19.524  0.00  0.00    +0.000 A 
ATOM      5  C   UNL     1       4.464   3.944  19.154  0.00  0.00    +0.000 A 
ATOM      6  C   UNL     1       4.438   2.709  19.811  0.00  0.00    +0.000 A 
ATOM      7  C   UNL     1       3.518   2.458  20.830  0.00  0.00    +0.000 A 
ATOM      8  C   UNL     1       2.595   3.436  21.203  0.00  0.00    +0.000 A 
BRANCH   3  10
ATOM      9  C   UNL     1       2.060   6.979  20.170  0.00  0.00    +0.000 C 
ATOM     10  O   UNL     1       1.742   5.735  20.779  0.00  0.00    +0.000 OA
ENDBRANCH   3  10
BRANCH   8  11
ATOM     11  O   UNL     1       1.721   3.140  22.212  0.00  0.00    +0.000 OA
ATOM     12  H   UNL     1       0.868   3.567  22.035  0.00  0.00    +0.000 HD
ENDBRANCH   8  11
ENDBRANCH   1   5
BRANCH   2  13
ATOM     13  C   UNL     1       6.596   5.750  16.498  0.00  0.00    +0.000 C 
ATOM     14  O   UNL     1       7.507   6.567  16.602  0.00  0.00    +0.000 OA
BRANCH  13  15
ATOM     15  C   UNL     1       6.366   5.009  15.220  0.00  0.00    +0.000 A 
ATOM     16  C   UNL     1       5.090   4.519  14.930  0.00  0.00    +0.000 A 
ATOM     17  C   UNL     1       4.848   3.848  13.723  0.00  0.00    +0.000 A 
ATOM     18  C   UNL     1       5.870   3.670  12.775  0.00  0.00    +0.000 A 
ATOM     19  C   UNL     1       7.150   4.156  13.082  0.00  0.00    +0.000 A 
ATOM     20  C   UNL     1       7.395   4.824  14.287  0.00  0.00    +0.000 A 
BRANCH  18  21
ATOM     21  C   UNL     1       5.567   3.007  11.440  0.00  0.00    +0.000 C 
ATOM     22  C   UNL     1       6.080   1.563  11.396  0.00  0.00    +0.000 C 
ATOM     23  C   UNL     1       4.077   3.042  11.086  0.00  0.00    +0.000 C 
ENDBRANCH  18  21
ENDBRANCH  13  15
ENDBRANCH   2  13
TORSDOF 6
ENDMDL
MODEL 9
REMARK VINA RESULT:      -7.0      6.036      7.580
REMARK  Name = 
REMARK  9 active torsions:
REMARK  status: ('A' for Active; 'I' for Inactive)
REMARK    1  A    between atoms: C_1  and  O_2
REMARK    2  A    between atoms: O_2  and  C_3
REMARK    3  A    between atoms: C_5  and  C_6
REMARK    4  A    between atoms: C_7  and  C_8
REMARK    5  A    between atoms: C_8  and  C_10
REMARK    6  A    between atoms: C_13  and  C_14
REMARK    7  A    between atoms: C_14  and  C_15
REMARK    8  A    between atoms: C_14  and  C_16
REMARK    9  A    between atoms: C_21  and  O_22
REMARK                            x       y       z     vdW  Elec       q    Type
REMARK                         _______ _______ _______ _____ _____    ______ ____
ROOT
ATOM      1  C   UNL     1       2.260   7.104  19.699  0.00  0.00    +0.000 C 
ATOM      2  C   UNL     1       1.863   6.074  20.464  0.00  0.00    +0.000 C 
ENDROOT
BRANCH   1   5
ATOM      3  C   UNL     1       0.675  10.241  21.143  0.00  0.00    +0.000 A 
ATOM      4  C   UNL     1       1.269   8.968  21.025  0.00  0.00    +0.000 A 
ATOM      5  C   UNL     1       1.644   8.442  19.779  0.00  0.00    +0.000 A 
ATOM      6  C   UNL     1       1.441   9.232  18.642  0.00  0.00    +0.000 A 
ATOM      7  C   UNL     1       0.851  10.493  18.740  0.00  0.00    +0.000 A 
ATOM      8  C   UNL     1       0.464  10.995  19.983  0.00  0.00    +0.000 A 
BRANCH   3  10
ATOM      9  C   UNL     1      -0.357   9.640  23.218  0.00  0.00    +0.000 C 
ATOM     10  O   UNL     1       0.367  10.580  22.435  0.00  0.00    +0.000 OA
ENDBRANCH   3  10
BRANCH   8  11
ATOM     11  O   UNL     1      -0.116  12.232  20.022  0.00  0.00    +0.000 OA
ATOM     12  H   UNL     1       0.526  12.899  19.729  0.00  0.00    +0.000 HD
ENDBRANCH   8  11
ENDBRANCH   1   5
BRANCH   2  13
ATOM     13  C   UNL     1       2.517   4.739  20.400  0.00  0.00    +0.000 C 
ATOM     14  O   UNL     1       2.332   3.876  21.255  0.00  0.00    +0.000 OA
BRANCH  13  15
ATOM     15  C   UNL     1       3.452   4.505  19.258  0.00  0.00    +0.000 A 
ATOM     16  C   UNL     1       2.941   4.082  18.027  0.00  0.00    +0.000 A 
ATOM     17  C   UNL     1       3.799   3.888  16.936  0.00  0.00    +0.000 A 
ATOM     18  C   UNL     1       5.179   4.128  17.046  0.00  0.00    +0.000 A 
ATOM     19  C   UNL     1       5.681   4.542  18.289  0.00  0.00    +0.000 A 
ATOM     20  C   UNL     1       4.828   4.735  19.381  0.00  0.00    +0.000 A 
BRANCH  18  21
ATOM     21  C   UNL     1       6.080   3.984  15.828  0.00  0.00    +0.000 C 
ATOM     22  C   UNL     1       5.331   4.311  14.531  0.00  0.00    +0.000 C 
ATOM     23  C   UNL     1       7.349   4.836  15.926  0.00  0.00    +0.000 C 
ENDBRANCH  18  21
ENDBRANCH  13  15
ENDBRANCH   2  13
TORSDOF 6
ENDMDL
