MODEL 1
REMARK VINA RESULT:      -7.9      0.000      0.000
REMARK  Name = 
REMARK  7 active torsions:
REMARK  status: ('A' for Active; 'I' for Inactive)
REMARK    1  A    between atoms: C_6  and  N_7
REMARK    2  A    between atoms: N_7  and  C_8
REMARK    3  A    between atoms: C_8  and  C_9
REMARK    4  A    between atoms: N_11  and  C_12
REMARK    5  A    between atoms: C_12  and  C_13
REMARK    6  A    between atoms: C_13  and  C_14
REMARK    7  A    between atoms: C_14  and  N_15
REMARK                            x       y       z     vdW  Elec       q    Type
REMARK                         _______ _______ _______ _____ _____    ______ ____
ROOT
ATOM      1  C   UNL     1       5.914   4.471  16.452  0.00  0.00    +0.000 C 
ENDROOT
BRANCH   1   2
ATOM      2  C   UNL     1       6.498   5.730  16.990  0.00  0.00    +0.000 A 
ATOM      3  C   UNL     1       7.442   5.922  17.979  0.00  0.00    +0.000 A 
ATOM      4  N   UNL     1       7.688   7.263  17.939  0.00  0.00    +0.000 N 
ATOM      5  N   UNL     1       6.953   7.863  16.986  0.00  0.00    +0.000 NA
ATOM      6  N   UNL     1       6.202   6.938  16.414  0.00  0.00    +0.000 NA
BRANCH   4   7
ATOM      7  C   UNL     1       8.610   8.026  18.758  0.00  0.00    +0.000 C 
BRANCH   7   8
ATOM      8  C   UNL     1       8.641   9.498  18.360  0.00  0.00    +0.000 C 
BRANCH   8   9
ATOM      9  C   UNL     1       9.233  10.394  19.449  0.00  0.00    +0.000 C 
BRANCH   9  10
ATOM     10  N   UNL     1       9.610  11.709  18.910  0.00  0.00    +0.000 NA
ATOM     11  C   UNL     1      10.752  11.620  17.987  0.00  0.00    +0.000 C 
ATOM     12  C   UNL     1      11.973  11.767  18.872  0.00  0.00    +0.000 C 
ATOM     13  C   UNL     1      11.535  12.793  19.896  0.00  0.00    +0.000 C 
ATOM     14  C   UNL     1      10.017  12.681  19.942  0.00  0.00    +0.000 C 
ENDBRANCH   9  10
ENDBRANCH   8   9
ENDBRANCH   7   8
ENDBRANCH   4   7
ENDBRANCH   1   2
BRANCH   1  15
ATOM     15  N   UNL     1       4.451   4.353  16.400  0.00  0.00    +0.000 N 
ATOM     16  H   UNL     1       4.147   3.779  15.617  0.00  0.00    +0.000 HD
BRANCH  15  22
ATOM     17 CL   UNL     1       1.218   8.079  21.165  0.00  0.00    +0.000 Cl
ATOM     18  C   UNL     1       1.949   6.939  20.105  0.00  0.00    +0.000 A 
ATOM     19  C   UNL     1       2.486   7.358  18.898  0.00  0.00    +0.000 A 
ATOM     20  C   UNL     1       3.092   6.425  18.050  0.00  0.00    +0.000 A 
ATOM     21  C   UNL     1       3.160   5.051  18.398  0.00  0.00    +0.000 A 
ATOM     22  C   UNL     1       3.766   4.034  17.601  0.00  0.00    +0.000 A 
ATOM     23  C   UNL     1       3.779   2.730  18.111  0.00  0.00    +0.000 A 
ATOM     24  C   UNL     1       3.179   2.460  19.324  0.00  0.00    +0.000 A 
ATOM     25  N   UNL     1       2.592   3.397  20.085  0.00  0.00    +0.000 NA
ATOM     26  C   UNL     1       2.595   4.660  19.641  0.00  0.00    +0.000 A 
ATOM     27  C   UNL     1       2.004   5.598  20.467  0.00  0.00    +0.000 A 
ENDBRANCH  15  22
ENDBRANCH   1  15
TORSDOF 7
ENDMDL
MODEL 2
REMARK VINA RESULT:      -7.4      2.781      9.383
REMARK  Name = 
REMARK  7 active torsions:
REMARK  status: ('A' for Active; 'I' for Inactive)
REMARK    1  A    between atoms: C_6  and  N_7
REMARK    2  A    between atoms: N_7  and  C_8
REMARK    3  A    between atoms: C_8  and  C_9
REMARK    4  A    between atoms: N_11  and  C_12
REMARK    5  A    between atoms: C_12  and  C_13
REMARK    6  A    between atoms: C_13  and  C_14
REMARK    7  A    between atoms: C_14  and  N_15
REMARK                            x       y       z     vdW  Elec       q    Type
REMARK                         _______ _______ _______ _____ _____    ______ ____
ROOT
ATOM      1  C   UNL     1       8.315   8.809  17.998  0.00  0.00    +0.000 C 
ENDROOT
BRANCH   1   2
ATOM      2  C   UNL     1       7.698   7.462  18.137  0.00  0.00    +0.000 A 
ATOM      3  C   UNL     1       6.654   6.885  17.441  0.00  0.00    +0.000 A 
ATOM      4  N   UNL     1       6.629   5.600  17.897  0.00  0.00    +0.000 N 
ATOM      5  N   UNL     1       7.595   5.389  18.810  0.00  0.00    +0.000 NA
ATOM      6  N   UNL     1       8.241   6.529  18.983  0.00  0.00    +0.000 NA
BRANCH   4   7
ATOM      7  C   UNL     1       5.733   4.530  17.503  0.00  0.00    +0.000 C 
BRANCH   7   8
ATOM      8  C   UNL     1       4.926   3.998  18.683  0.00  0.00    +0.000 C 
BRANCH   8   9
ATOM      9  C   UNL     1       3.439   3.843  18.361  0.00  0.00    +0.000 C 
BRANCH   9  10
ATOM     10  N   UNL     1       2.848   2.718  19.102  0.00  0.00    +0.000 NA
ATOM     11  C   UNL     1       1.379   2.731  19.045  0.00  0.00    +0.000 C 
ATOM     12  C   UNL     1       0.957   3.577  20.230  0.00  0.00    +0.000 C 
ATOM     13  C   UNL     1       1.957   3.194  21.301  0.00  0.00    +0.000 C 
ATOM     14  C   UNL     1       3.184   2.711  20.539  0.00  0.00    +0.000 C 
ENDBRANCH   9  10
ENDBRANCH   8   9
ENDBRANCH   7   8
ENDBRANCH   4   7
ENDBRANCH   1   2
BRANCH   1  15
ATOM     15  N   UNL     1       8.995   9.382  19.166  0.00  0.00    +0.000 N 
ATOM     16  H   UNL     1       9.644   8.719  19.587  0.00  0.00    +0.000 HD
BRANCH  15  22
ATOM     17 CL   UNL     1       9.271  14.864  23.278  0.00  0.00    +0.000 Cl
ATOM     18  C   UNL     1       9.349  13.628  22.085  0.00  0.00    +0.000 A 
ATOM     19  C   UNL     1       8.869  12.358  22.368  0.00  0.00    +0.000 A 
ATOM     20  C   UNL     1       8.923  11.364  21.386  0.00  0.00    +0.000 A 
ATOM     21  C   UNL     1       9.471  11.627  20.103  0.00  0.00    +0.000 A 
ATOM     22  C   UNL     1       9.557  10.679  19.040  0.00  0.00    +0.000 A 
ATOM     23  C   UNL     1      10.093  11.115  17.822  0.00  0.00    +0.000 A 
ATOM     24  C   UNL     1      10.555  12.409  17.699  0.00  0.00    +0.000 A 
ATOM     25  N   UNL     1      10.496  13.314  18.687  0.00  0.00    +0.000 NA
ATOM     26  C   UNL     1       9.955  12.938  19.853  0.00  0.00    +0.000 A 
ATOM     27  C   UNL     1       9.889  13.908  20.835  0.00  0.00    +0.000 A 
ENDBRANCH  15  22
ENDBRANCH   1  15
TORSDOF 7
ENDMDL
MODEL 3
REMARK VINA RESULT:      -7.4      3.353      6.112
REMARK  Name = 
REMARK  7 active torsions:
REMARK  status: ('A' for Active; 'I' for Inactive)
REMARK    1  A    between atoms: C_6  and  N_7
REMARK    2  A    between atoms: N_7  and  C_8
REMARK    3  A    between atoms: C_8  and  C_9
REMARK    4  A    between atoms: N_11  and  C_12
REMARK    5  A    between atoms: C_12  and  C_13
REMARK    6  A    between atoms: C_13  and  C_14
REMARK    7  A    between atoms: C_14  and  N_15
REMARK                            x       y       z     vdW  Elec       q    Type
REMARK                         _______ _______ _______ _____ _____    ______ ____
ROOT
ATOM      1  C   UNL     1       1.566   5.638  20.307  0.00  0.00    +0.000 C 
ENDROOT
BRANCH   1   2
ATOM      2  C   UNL     1       2.149   4.916  19.143  0.00  0.00    +0.000 A 
ATOM      3  C   UNL     1       3.464   4.611  18.852  0.00  0.00    +0.000 A 
ATOM      4  N   UNL     1       3.378   3.822  17.743  0.00  0.00    +0.000 N 
ATOM      5  N   UNL     1       2.097   3.643  17.372  0.00  0.00    +0.000 NA
ATOM      6  N   UNL     1       1.337   4.329  18.208  0.00  0.00    +0.000 NA
BRANCH   4   7
ATOM      7  C   UNL     1       4.459   3.201  17.003  0.00  0.00    +0.000 C 
BRANCH   7   8
ATOM      8  C   UNL     1       5.168   4.195  16.089  0.00  0.00    +0.000 C 
BRANCH   8   9
ATOM      9  C   UNL     1       6.472   4.726  16.687  0.00  0.00    +0.000 C 
BRANCH   9  10
ATOM     10  N   UNL     1       6.209   5.697  17.760  0.00  0.00    +0.000 NA
ATOM     11  C   UNL     1       6.185   7.079  17.259  0.00  0.00    +0.000 C 
ATOM     12  C   UNL     1       7.624   7.546  17.352  0.00  0.00    +0.000 C 
ATOM     13  C   UNL     1       8.110   6.910  18.638  0.00  0.00    +0.000 C 
ATOM     14  C   UNL     1       7.222   5.688  18.832  0.00  0.00    +0.000 C 
ENDBRANCH   9  10
ENDBRANCH   8   9
ENDBRANCH   7   8
ENDBRANCH   4   7
ENDBRANCH   1   2
BRANCH   1  15
ATOM     15  N   UNL     1       2.184   6.905  20.715  0.00  0.00    +0.000 N 
ATOM     16  H   UNL     1       3.200   6.856  20.685  0.00  0.00    +0.000 HD
BRANCH  15  22
ATOM     17 CL   UNL     1      -1.675  12.060  23.076  0.00  0.00    +0.000 Cl
ATOM     18  C   UNL     1      -0.690  10.906  22.266  0.00  0.00    +0.000 A 
ATOM     19  C   UNL     1      -0.161   9.832  22.965  0.00  0.00    +0.000 A 
ATOM     20  C   UNL     1       0.626   8.891  22.294  0.00  0.00    +0.000 A 
ATOM     21  C   UNL     1       0.903   9.019  20.907  0.00  0.00    +0.000 A 
ATOM     22  C   UNL     1       1.685   8.104  20.141  0.00  0.00    +0.000 A 
ATOM     23  C   UNL     1       1.830   8.361  18.773  0.00  0.00    +0.000 A 
ATOM     24  C   UNL     1       1.262   9.490  18.221  0.00  0.00    +0.000 A 
ATOM     25  N   UNL     1       0.534  10.371  18.923  0.00  0.00    +0.000 NA
ATOM     26  C   UNL     1       0.347  10.135  20.228  0.00  0.00    +0.000 A 
ATOM     27  C   UNL     1      -0.432  11.052  20.908  0.00  0.00    +0.000 A 
ENDBRANCH  15  22
ENDBRANCH   1  15
TORSDOF 7
ENDMDL
MODEL 4
REMARK VINA RESULT:      -7.4      0.919      1.411
REMARK  Name = 
REMARK  7 active torsions:
REMARK  status: ('A' for Active; 'I' for Inactive)
REMARK    1  A    between atoms: C_6  and  N_7
REMARK    2  A    between atoms: N_7  and  C_8
REMARK    3  A    between atoms: C_8  and  C_9
REMARK    4  A    between atoms: N_11  and  C_12
REMARK    5  A    between atoms: C_12  and  C_13
REMARK    6  A    between atoms: C_13  and  C_14
REMARK    7  A    between atoms: C_14  and  N_15
REMARK                            x       y       z     vdW  Elec       q    Type
REMARK                         _______ _______ _______ _____ _____    ______ ____
ROOT
ATOM      1  C   UNL     1       6.015   4.171  16.383  0.00  0.00    +0.000 C 
ENDROOT
BRANCH   1   2
ATOM      2  C   UNL     1       6.812   5.045  17.288  0.00  0.00    +0.000 A 
ATOM      3  C   UNL     1       7.333   6.305  17.077  0.00  0.00    +0.000 A 
ATOM      4  N   UNL     1       7.834   6.660  18.294  0.00  0.00    +0.000 N 
ATOM      5  N   UNL     1       7.632   5.689  19.204  0.00  0.00    +0.000 NA
ATOM      6  N   UNL     1       7.029   4.684  18.593  0.00  0.00    +0.000 NA
BRANCH   4   7
ATOM      7  C   UNL     1       8.495   7.897  18.662  0.00  0.00    +0.000 C 
BRANCH   7   8
ATOM      8  C   UNL     1       7.866   9.105  17.977  0.00  0.00    +0.000 C 
BRANCH   8   9
ATOM      9  C   UNL     1       8.762  10.344  18.018  0.00  0.00    +0.000 C 
BRANCH   9  10
ATOM     10  N   UNL     1       9.660  10.313  19.183  0.00  0.00    +0.000 NA
ATOM     11  C   UNL     1       9.044  10.928  20.368  0.00  0.00    +0.000 C 
ATOM     12  C   UNL     1       9.412  12.396  20.275  0.00  0.00    +0.000 C 
ATOM     13  C   UNL     1      10.824  12.363  19.730  0.00  0.00    +0.000 C 
ATOM     14  C   UNL     1      10.926  11.042  18.977  0.00  0.00    +0.000 C 
ENDBRANCH   9  10
ENDBRANCH   8   9
ENDBRANCH   7   8
ENDBRANCH   4   7
ENDBRANCH   1   2
BRANCH   1  15
ATOM     15  N   UNL     1       4.561   4.368  16.335  0.00  0.00    +0.000 N 
ATOM     16  H   UNL     1       4.162   4.013  15.469  0.00  0.00    +0.000 HD
BRANCH  15  22
ATOM     17 CL   UNL     1       1.223   7.881  21.188  0.00  0.00    +0.000 Cl
ATOM     18  C   UNL     1       1.965   6.788  20.087  0.00  0.00    +0.000 A 
ATOM     19  C   UNL     1       2.582   7.269  18.941  0.00  0.00    +0.000 A 
ATOM     20  C   UNL     1       3.196   6.374  18.060  0.00  0.00    +0.000 A 
ATOM     21  C   UNL     1       3.192   4.976  18.310  0.00  0.00    +0.000 A 
ATOM     22  C   UNL     1       3.801   3.994  17.473  0.00  0.00    +0.000 A 
ATOM     23  C   UNL     1       3.736   2.658  17.887  0.00  0.00    +0.000 A 
ATOM     24  C   UNL     1       3.062   2.329  19.045  0.00  0.00    +0.000 A 
ATOM     25  N   UNL     1       2.471   3.233  19.841  0.00  0.00    +0.000 NA
ATOM     26  C   UNL     1       2.547   4.523  19.491  0.00  0.00    +0.000 A 
ATOM     27  C   UNL     1       1.949   5.424  20.352  0.00  0.00    +0.000 A 
ENDBRANCH  15  22
ENDBRANCH   1  15
TORSDOF 7
ENDMDL
MODEL 5
REMARK VINA RESULT:      -7.3      5.213      8.182
REMARK  Name = 
REMARK  7 active torsions:
REMARK  status: ('A' for Active; 'I' for Inactive)
REMARK    1  A    between atoms: C_6  and  N_7
REMARK    2  A    between atoms: N_7  and  C_8
REMARK    3  A    between atoms: C_8  and  C_9
REMARK    4  A    between atoms: N_11  and  C_12
REMARK    5  A    between atoms: C_12  and  C_13
REMARK    6  A    between atoms: C_13  and  C_14
REMARK    7  A    between atoms: C_14  and  N_15
REMARK                            x       y       z     vdW  Elec       q    Type
REMARK                         _______ _______ _______ _____ _____    ______ ____
ROOT
ATOM      1  C   UNL     1       1.328   7.479  20.640  0.00  0.00    +0.000 C 
ENDROOT
BRANCH   1   2
ATOM      2  C   UNL     1       1.270   8.746  19.861  0.00  0.00    +0.000 A 
ATOM      3  C   UNL     1       0.825   9.999  20.231  0.00  0.00    +0.000 A 
ATOM      4  N   UNL     1       1.145  10.788  19.166  0.00  0.00    +0.000 N 
ATOM      5  N   UNL     1       1.755  10.076  18.201  0.00  0.00    +0.000 NA
ATOM      6  N   UNL     1       1.815   8.819  18.605  0.00  0.00    +0.000 NA
BRANCH   4   7
ATOM      7  C   UNL     1       0.917  12.211  19.008  0.00  0.00    +0.000 C 
BRANCH   7   8
ATOM      8  C   UNL     1      -0.552  12.577  19.195  0.00  0.00    +0.000 C 
BRANCH   8   9
ATOM      9  C   UNL     1      -1.390  12.322  17.940  0.00  0.00    +0.000 C 
BRANCH   9  10
ATOM     10  N   UNL     1      -2.268  11.155  18.113  0.00  0.00    +0.000 NA
ATOM     11  C   UNL     1      -1.871  10.034  17.249  0.00  0.00    +0.000 C 
ATOM     12  C   UNL     1      -2.627  10.260  15.955  0.00  0.00    +0.000 C 
ATOM     13  C   UNL     1      -3.964  10.793  16.426  0.00  0.00    +0.000 C 
ATOM     14  C   UNL     1      -3.681  11.421  17.784  0.00  0.00    +0.000 C 
ENDBRANCH   9  10
ENDBRANCH   8   9
ENDBRANCH   7   8
ENDBRANCH   4   7
ENDBRANCH   1   2
BRANCH   1  15
ATOM     15  N   UNL     1       2.527   6.642  20.510  0.00  0.00    +0.000 N 
ATOM     16  H   UNL     1       3.007   6.530  21.401  0.00  0.00    +0.000 HD
BRANCH  15  22
ATOM     17 CL   UNL     1       5.706   3.984  15.045  0.00  0.00    +0.000 Cl
ATOM     18  C   UNL     1       4.785   4.424  16.430  0.00  0.00    +0.000 A 
ATOM     19  C   UNL     1       5.071   5.597  17.110  0.00  0.00    +0.000 A 
ATOM     20  C   UNL     1       4.307   5.953  18.226  0.00  0.00    +0.000 A 
ATOM     21  C   UNL     1       3.247   5.128  18.684  0.00  0.00    +0.000 A 
ATOM     22  C   UNL     1       2.411   5.417  19.803  0.00  0.00    +0.000 A 
ATOM     23  C   UNL     1       1.384   4.512  20.098  0.00  0.00    +0.000 A 
ATOM     24  C   UNL     1       1.238   3.368  19.341  0.00  0.00    +0.000 A 
ATOM     25  N   UNL     1       2.019   3.069  18.292  0.00  0.00    +0.000 NA
ATOM     26  C   UNL     1       2.988   3.933  17.963  0.00  0.00    +0.000 A 
ATOM     27  C   UNL     1       3.751   3.600  16.860  0.00  0.00    +0.000 A 
ENDBRANCH  15  22
ENDBRANCH   1  15
TORSDOF 7
ENDMDL
MODEL 6
REMARK VINA RESULT:      -7.2      1.348      1.671
REMARK  Name = 
REMARK  7 active torsions:
REMARK  status: ('A' for Active; 'I' for Inactive)
REMARK    1  A    between atoms: C_6  and  N_7
REMARK    2  A    between atoms: N_7  and  C_8
REMARK    3  A    between atoms: C_8  and  C_9
REMARK    4  A    between atoms: N_11  and  C_12
REMARK    5  A    between atoms: C_12  and  C_13
REMARK    6  A    between atoms: C_13  and  C_14
REMARK    7  A    between atoms: C_14  and  N_15
REMARK                            x       y       z     vdW  Elec       q    Type
REMARK                         _______ _______ _______ _____ _____    ______ ____
ROOT
ATOM      1  C   UNL     1       7.018   5.187  17.171  0.00  0.00    +0.000 C 
ENDROOT
BRANCH   1   2
ATOM      2  C   UNL     1       7.373   6.576  17.568  0.00  0.00    +0.000 A 
ATOM      3  C   UNL     1       8.179   7.030  18.593  0.00  0.00    +0.000 A 
ATOM      4  N   UNL     1       8.250   8.376  18.382  0.00  0.00    +0.000 N 
ATOM      5  N   UNL     1       7.543   8.734  17.294  0.00  0.00    +0.000 NA
ATOM      6  N   UNL     1       6.981   7.643  16.802  0.00  0.00    +0.000 NA
BRANCH   4   7
ATOM      7  C   UNL     1       8.975   9.364  19.155  0.00  0.00    +0.000 C 
BRANCH   7   8
ATOM      8  C   UNL     1       9.576  10.451  18.270  0.00  0.00    +0.000 C 
BRANCH   8   9
ATOM      9  C   UNL     1       9.275  11.862  18.778  0.00  0.00    +0.000 C 
BRANCH   9  10
ATOM     10  N   UNL     1      10.514  12.616  19.022  0.00  0.00    +0.000 NA
ATOM     11  C   UNL     1      10.368  14.041  18.688  0.00  0.00    +0.000 C 
ATOM     12  C   UNL     1      10.743  14.132  17.222  0.00  0.00    +0.000 C 
ATOM     13  C   UNL     1      11.881  13.141  17.096  0.00  0.00    +0.000 C 
ATOM     14  C   UNL     1      11.664  12.145  18.227  0.00  0.00    +0.000 C 
ENDBRANCH   9  10
ENDBRANCH   8   9
ENDBRANCH   7   8
ENDBRANCH   4   7
ENDBRANCH   1   2
BRANCH   1  15
ATOM     15  N   UNL     1       5.616   4.898  16.843  0.00  0.00    +0.000 N 
ATOM     16  H   UNL     1       5.533   4.117  16.196  0.00  0.00    +0.000 HD
BRANCH  15  22
ATOM     17 CL   UNL     1       1.049   9.252  19.530  0.00  0.00    +0.000 Cl
ATOM     18  C   UNL     1       2.100   7.988  19.025  0.00  0.00    +0.000 A 
ATOM     19  C   UNL     1       2.880   8.145  17.890  0.00  0.00    +0.000 A 
ATOM     20  C   UNL     1       3.742   7.118  17.496  0.00  0.00    +0.000 A 
ATOM     21  C   UNL     1       3.829   5.908  18.234  0.00  0.00    +0.000 A 
ATOM     22  C   UNL     1       4.686   4.813  17.913  0.00  0.00    +0.000 A 
ATOM     23  C   UNL     1       4.675   3.706  18.769  0.00  0.00    +0.000 A 
ATOM     24  C   UNL     1       3.822   3.684  19.853  0.00  0.00    +0.000 A 
ATOM     25  N   UNL     1       2.998   4.695  20.168  0.00  0.00    +0.000 NA
ATOM     26  C   UNL     1       3.011   5.783  19.388  0.00  0.00    +0.000 A 
ATOM     27  C   UNL     1       2.168   6.812  19.763  0.00  0.00    +0.000 A 
ENDBRANCH  15  22
ENDBRANCH   1  15
TORSDOF 7
ENDMDL
MODEL 7
REMARK VINA RESULT:      -7.2      3.276      9.874
REMARK  Name = 
REMARK  7 active torsions:
REMARK  status: ('A' for Active; 'I' for Inactive)
REMARK    1  A    between atoms: C_6  and  N_7
REMARK    2  A    between atoms: N_7  and  C_8
REMARK    3  A    between atoms: C_8  and  C_9
REMARK    4  A    between atoms: N_11  and  C_12
REMARK    5  A    between atoms: C_12  and  C_13
REMARK    6  A    between atoms: C_13  and  C_14
REMARK    7  A    between atoms: C_14  and  N_15
REMARK                            x       y       z     vdW  Elec       q    Type
REMARK                         _______ _______ _______ _____ _____    ______ ____
ROOT
ATOM      1  C   UNL     1       8.883   8.841  19.072  0.00  0.00    +0.000 C 
ENDROOT
BRANCH   1   2
ATOM      2  C   UNL     1       8.175   7.800  18.278  0.00  0.00    +0.000 A 
ATOM      3  C   UNL     1       7.842   6.502  18.609  0.00  0.00    +0.000 A 
ATOM      4  N   UNL     1       7.084   6.080  17.556  0.00  0.00    +0.000 N 
ATOM      5  N   UNL     1       6.950   7.052  16.636  0.00  0.00    +0.000 NA
ATOM      6  N   UNL     1       7.634   8.102  17.055  0.00  0.00    +0.000 NA
BRANCH   4   7
ATOM      7  C   UNL     1       6.454   4.788  17.371  0.00  0.00    +0.000 C 
BRANCH   7   8
ATOM      8  C   UNL     1       4.932   4.890  17.383  0.00  0.00    +0.000 C 
BRANCH   8   9
ATOM      9  C   UNL     1       4.267   3.746  18.150  0.00  0.00    +0.000 C 
BRANCH   9  10
ATOM     10  N   UNL     1       3.037   3.298  17.478  0.00  0.00    +0.000 NA
ATOM     11  C   UNL     1       1.922   4.233  17.690  0.00  0.00    +0.000 C 
ATOM     12  C   UNL     1       1.257   3.753  18.965  0.00  0.00    +0.000 C 
ATOM     13  C   UNL     1       1.350   2.246  18.856  0.00  0.00    +0.000 C 
ATOM     14  C   UNL     1       2.546   1.989  17.948  0.00  0.00    +0.000 C 
ENDBRANCH   9  10
ENDBRANCH   8   9
ENDBRANCH   7   8
ENDBRANCH   4   7
ENDBRANCH   1   2
BRANCH   1  15
ATOM     15  N   UNL     1       9.224  10.105  18.407  0.00  0.00    +0.000 N 
ATOM     16  H   UNL     1       8.552  10.341  17.680  0.00  0.00    +0.000 HD
BRANCH  15  22
ATOM     17 CL   UNL     1      12.333  16.105  17.238  0.00  0.00    +0.000 Cl
ATOM     18  C   UNL     1      11.517  14.689  17.772  0.00  0.00    +0.000 A 
ATOM     19  C   UNL     1      11.144  13.715  16.857  0.00  0.00    +0.000 A 
ATOM     20  C   UNL     1      10.495  12.560  17.303  0.00  0.00    +0.000 A 
ATOM     21  C   UNL     1      10.198  12.368  18.678  0.00  0.00    +0.000 A 
ATOM     22  C   UNL     1       9.549  11.220  19.223  0.00  0.00    +0.000 A 
ATOM     23  C   UNL     1       9.366  11.174  20.610  0.00  0.00    +0.000 A 
ATOM     24  C   UNL     1       9.770  12.235  21.392  0.00  0.00    +0.000 A 
ATOM     25  N   UNL     1      10.370  13.330  20.903  0.00  0.00    +0.000 NA
ATOM     26  C   UNL     1      10.592  13.389  19.583  0.00  0.00    +0.000 A 
ATOM     27  C   UNL     1      11.238  14.522  19.123  0.00  0.00    +0.000 A 
ENDBRANCH  15  22
ENDBRANCH   1  15
TORSDOF 7
ENDMDL
MODEL 8
REMARK VINA RESULT:      -7.2      1.648      2.626
REMARK  Name = 
REMARK  7 active torsions:
REMARK  status: ('A' for Active; 'I' for Inactive)
REMARK    1  A    between atoms: C_6  and  N_7
REMARK    2  A    between atoms: N_7  and  C_8
REMARK    3  A    between atoms: C_8  and  C_9
REMARK    4  A    between atoms: N_11  and  C_12
REMARK    5  A    between atoms: C_12  and  C_13
REMARK    6  A    between atoms: C_13  and  C_14
REMARK    7  A    between atoms: C_14  and  N_15
REMARK                            x       y       z     vdW  Elec       q    Type
REMARK                         _______ _______ _______ _____ _____    ______ ____
ROOT
ATOM      1  C   UNL     1       6.279   4.798  16.148  0.00  0.00    +0.000 C 
ENDROOT
BRANCH   1   2
ATOM      2  C   UNL     1       7.068   5.589  17.132  0.00  0.00    +0.000 A 
ATOM      3  C   UNL     1       7.418   6.924  17.124  0.00  0.00    +0.000 A 
ATOM      4  N   UNL     1       8.008   7.114  18.338  0.00  0.00    +0.000 N 
ATOM      5  N   UNL     1       8.018   5.977  19.057  0.00  0.00    +0.000 NA
ATOM      6  N   UNL     1       7.467   5.029  18.318  0.00  0.00    +0.000 NA
BRANCH   4   7
ATOM      7  C   UNL     1       8.564   8.339  18.879  0.00  0.00    +0.000 C 
BRANCH   7   8
ATOM      8  C   UNL     1       8.432   9.504  17.904  0.00  0.00    +0.000 C 
BRANCH   8   9
ATOM      9  C   UNL     1       8.817  10.846  18.528  0.00  0.00    +0.000 C 
BRANCH   9  10
ATOM     10  N   UNL     1       9.881  10.682  19.530  0.00  0.00    +0.000 NA
ATOM     11  C   UNL     1       9.490  11.221  20.842  0.00  0.00    +0.000 C 
ATOM     12  C   UNL     1       9.917  12.674  20.803  0.00  0.00    +0.000 C 
ATOM     13  C   UNL     1      11.224  12.629  20.040  0.00  0.00    +0.000 C 
ATOM     14  C   UNL     1      11.137  11.373  19.183  0.00  0.00    +0.000 C 
ENDBRANCH   9  10
ENDBRANCH   8   9
ENDBRANCH   7   8
ENDBRANCH   4   7
ENDBRANCH   1   2
BRANCH   1  15
ATOM     15  N   UNL     1       5.006   4.215  16.591  0.00  0.00    +0.000 N 
ATOM     16  H   UNL     1       5.117   3.248  16.888  0.00  0.00    +0.000 HD
BRANCH  15  22
ATOM     17 CL   UNL     1       1.228   2.599  22.081  0.00  0.00    +0.000 Cl
ATOM     18  C   UNL     1       2.114   3.250  20.759  0.00  0.00    +0.000 A 
ATOM     19  C   UNL     1       2.957   2.435  20.019  0.00  0.00    +0.000 A 
ATOM     20  C   UNL     1       3.661   2.970  18.937  0.00  0.00    +0.000 A 
ATOM     21  C   UNL     1       3.537   4.339  18.584  0.00  0.00    +0.000 A 
ATOM     22  C   UNL     1       4.207   4.967  17.492  0.00  0.00    +0.000 A 
ATOM     23  C   UNL     1       3.944   6.322  17.260  0.00  0.00    +0.000 A 
ATOM     24  C   UNL     1       3.095   7.011  18.101  0.00  0.00    +0.000 A 
ATOM     25  N   UNL     1       2.463   6.446  19.141  0.00  0.00    +0.000 NA
ATOM     26  C   UNL     1       2.667   5.142  19.368  0.00  0.00    +0.000 A 
ATOM     27  C   UNL     1       1.976   4.594  20.432  0.00  0.00    +0.000 A 
ENDBRANCH  15  22
ENDBRANCH   1  15
TORSDOF 7
ENDMDL
MODEL 9
REMARK VINA RESULT:      -7.2      1.071      1.341
REMARK  Name = 
REMARK  7 active torsions:
REMARK  status: ('A' for Active; 'I' for Inactive)
REMARK    1  A    between atoms: C_6  and  N_7
REMARK    2  A    between atoms: N_7  and  C_8
REMARK    3  A    between atoms: C_8  and  C_9
REMARK    4  A    between atoms: N_11  and  C_12
REMARK    5  A    between atoms: C_12  and  C_13
REMARK    6  A    between atoms: C_13  and  C_14
REMARK    7  A    between atoms: C_14  and  N_15
REMARK                            x       y       z     vdW  Elec       q    Type
REMARK                         _______ _______ _______ _____ _____    ______ ____
ROOT
ATOM      1  C   UNL     1       6.752   4.646  18.295  0.00  0.00    +0.000 C 
ENDROOT
BRANCH   1   2
ATOM      2  C   UNL     1       6.979   6.079  17.963  0.00  0.00    +0.000 A 
ATOM      3  C   UNL     1       7.861   6.990  18.509  0.00  0.00    +0.000 A 
ATOM      4  N   UNL     1       7.726   8.092  17.717  0.00  0.00    +0.000 N 
ATOM      5  N   UNL     1       6.826   7.879  16.739  0.00  0.00    +0.000 NA
ATOM      6  N   UNL     1       6.344   6.658  16.895  0.00  0.00    +0.000 NA
BRANCH   4   7
ATOM      7  C   UNL     1       8.423   9.358  17.821  0.00  0.00    +0.000 C 
BRANCH   7   8
ATOM      8  C   UNL     1       9.126   9.512  19.166  0.00  0.00    +0.000 C 
BRANCH   8   9
ATOM      9  C   UNL     1       9.496  10.964  19.478  0.00  0.00    +0.000 C 
BRANCH   9  10
ATOM     10  N   UNL     1      10.876  11.261  19.066  0.00  0.00    +0.000 NA
ATOM     11  C   UNL     1      11.603  12.030  20.088  0.00  0.00    +0.000 C 
ATOM     12  C   UNL     1      11.317  13.480  19.753  0.00  0.00    +0.000 C 
ATOM     13  C   UNL     1      11.321  13.491  18.239  0.00  0.00    +0.000 C 
ATOM     14  C   UNL     1      10.968  12.067  17.833  0.00  0.00    +0.000 C 
ENDBRANCH   9  10
ENDBRANCH   8   9
ENDBRANCH   7   8
ENDBRANCH   4   7
ENDBRANCH   1   2
BRANCH   1  15
ATOM     15  N   UNL     1       5.484   4.033  17.882  0.00  0.00    +0.000 N 
ATOM     16  H   UNL     1       5.634   3.227  17.279  0.00  0.00    +0.000 HD
BRANCH  15  22
ATOM     17 CL   UNL     1       0.724   7.903  20.948  0.00  0.00    +0.000 Cl
ATOM     18  C   UNL     1       1.819   6.737  20.317  0.00  0.00    +0.000 A 
ATOM     19  C   UNL     1       2.647   7.066  19.255  0.00  0.00    +0.000 A 
ATOM     20  C   UNL     1       3.545   6.115  18.759  0.00  0.00    +0.000 A 
ATOM     21  C   UNL     1       3.618   4.812  19.316  0.00  0.00    +0.000 A 
ATOM     22  C   UNL     1       4.507   3.784  18.882  0.00  0.00    +0.000 A 
ATOM     23  C   UNL     1       4.475   2.564  19.567  0.00  0.00    +0.000 A 
ATOM     24  C   UNL     1       3.574   2.376  20.594  0.00  0.00    +0.000 A 
ATOM     25  N   UNL     1       2.719   3.322  21.012  0.00  0.00    +0.000 NA
ATOM     26  C   UNL     1       2.750   4.512  20.400  0.00  0.00    +0.000 A 
ATOM     27  C   UNL     1       1.873   5.467  20.879  0.00  0.00    +0.000 A 
ENDBRANCH  15  22
ENDBRANCH   1  15
TORSDOF 7
ENDMDL
