MODEL 1
REMARK VINA RESULT:      -7.1      0.000      0.000
REMARK  Name = 
REMARK  9 active torsions:
REMARK  status: ('A' for Active; 'I' for Inactive)
REMARK    1  A    between atoms: C_1  and  C_2
REMARK    2  A    between atoms: C_2  and  O_3
REMARK    3  A    between atoms: O_3  and  C_4
REMARK    4  A    between atoms: C_4  and  C_6
REMARK    5  A    between atoms: C_7  and  C_8
REMARK    6  A    between atoms: C_8  and  S_9
REMARK    7  A    between atoms: S_9  and  C_10
REMARK    8  A    between atoms: N_18  and  C_19
REMARK    9  A    between atoms: C_23  and  O_24
REMARK                            x       y       z     vdW  Elec       q    Type
REMARK                         _______ _______ _______ _____ _____    ______ ____
ROOT
ATOM      1  C   UNL     1       1.793   6.549  20.332  0.00  0.00    +0.000 A 
ATOM      2  C   UNL     1       2.450   6.892  19.130  0.00  0.00    +0.000 A 
ATOM      3  N   UNL     1       2.182   8.240  18.920  0.00  0.00    +0.000 N 
ATOM      4  C   UNL     1       2.599   9.133  17.859  0.00  0.00    +0.000 C 
ATOM      5  C   UNL     1       1.347   8.735  19.918  0.00  0.00    +0.000 A 
ATOM      6  C   UNL     1       0.790  10.019  20.085  0.00  0.00    +0.000 A 
ATOM      7  C   UNL     1      -0.019  10.265  21.194  0.00  0.00    +0.000 A 
ATOM      8  C   UNL     1      -0.266   9.253  22.107  0.00  0.00    +0.000 A 
ATOM      9  C   UNL     1       0.279   7.978  21.939  0.00  0.00    +0.000 A 
ATOM     10  C   UNL     1       1.100   7.706  20.819  0.00  0.00    +0.000 A 
ENDROOT
BRANCH   1  11
ATOM     11  C   UNL     1       1.782   5.203  20.908  0.00  0.00    +0.000 C 
ATOM     12  O   UNL     1       2.669   4.775  21.641  0.00  0.00    +0.000 OA
BRANCH  11  13
ATOM     13  O   UNL     1       0.757   4.438  20.437  0.00  0.00    +0.000 OA
BRANCH  13  15
ATOM     14  C   UNL     1       0.826   2.607  18.887  0.00  0.00    +0.000 C 
ATOM     15  C   UNL     1       1.048   3.039  20.329  0.00  0.00    +0.000 C 
ENDBRANCH  13  15
ENDBRANCH  11  13
ENDBRANCH   1  11
BRANCH   8  16
ATOM     16  O   UNL     1      -1.055   9.471  23.200  0.00  0.00    +0.000 OA
ATOM     17  H   UNL     1      -0.962   8.716  23.802  0.00  0.00    +0.000 HD
ENDBRANCH   8  16
BRANCH   2  18
ATOM     18  C   UNL     1       3.217   5.893  18.269  0.00  0.00    +0.000 C 
BRANCH  18  19
ATOM     19  S   UNL     1       4.862   5.343  18.781  0.00  0.00    +0.000 S 
BRANCH  19  20
ATOM     20  C   UNL     1       5.658   4.910  17.225  0.00  0.00    +0.000 A 
ATOM     21  C   UNL     1       5.165   3.830  16.458  0.00  0.00    +0.000 A 
ATOM     22 CL   UNL     1       3.893   2.788  17.011  0.00  0.00    +0.000 Cl
ATOM     23  C   UNL     1       5.667   3.560  15.175  0.00  0.00    +0.000 A 
ATOM     24  C   UNL     1       6.670   4.354  14.632  0.00  0.00    +0.000 A 
ATOM     25  C   UNL     1       7.170   5.424  15.368  0.00  0.00    +0.000 A 
ATOM     26  C   UNL     1       6.664   5.710  16.646  0.00  0.00    +0.000 A 
ATOM     27 CL   UNL     1       7.304   7.127  17.411  0.00  0.00    +0.000 Cl
ENDBRANCH  19  20
ENDBRANCH  18  19
ENDBRANCH   2  18
TORSDOF 7
ENDMDL
MODEL 2
REMARK VINA RESULT:      -6.9      0.327      1.822
REMARK  Name = 
REMARK  9 active torsions:
REMARK  status: ('A' for Active; 'I' for Inactive)
REMARK    1  A    between atoms: C_1  and  C_2
REMARK    2  A    between atoms: C_2  and  O_3
REMARK    3  A    between atoms: O_3  and  C_4
REMARK    4  A    between atoms: C_4  and  C_6
REMARK    5  A    between atoms: C_7  and  C_8
REMARK    6  A    between atoms: C_8  and  S_9
REMARK    7  A    between atoms: S_9  and  C_10
REMARK    8  A    between atoms: N_18  and  C_19
REMARK    9  A    between atoms: C_23  and  O_24
REMARK                            x       y       z     vdW  Elec       q    Type
REMARK                         _______ _______ _______ _____ _____    ______ ____
ROOT
ATOM      1  C   UNL     1       1.717   6.815  20.270  0.00  0.00    +0.000 A 
ATOM      2  C   UNL     1       2.304   7.221  19.052  0.00  0.00    +0.000 A 
ATOM      3  N   UNL     1       1.992   8.568  18.909  0.00  0.00    +0.000 N 
ATOM      4  C   UNL     1       2.332   9.513  17.865  0.00  0.00    +0.000 C 
ATOM      5  C   UNL     1       1.196   9.001  19.966  0.00  0.00    +0.000 A 
ATOM      6  C   UNL     1       0.615  10.262  20.211  0.00  0.00    +0.000 A 
ATOM      7  C   UNL     1      -0.143  10.443  21.367  0.00  0.00    +0.000 A 
ATOM      8  C   UNL     1      -0.317   9.391  22.250  0.00  0.00    +0.000 A 
ATOM      9  C   UNL     1       0.250   8.139  22.005  0.00  0.00    +0.000 A 
ATOM     10  C   UNL     1       1.021   7.933  20.836  0.00  0.00    +0.000 A 
ENDROOT
BRANCH   1  11
ATOM     11  C   UNL     1       1.770   5.447  20.793  0.00  0.00    +0.000 C 
ATOM     12  O   UNL     1       2.666   5.039  21.526  0.00  0.00    +0.000 OA
BRANCH  11  13
ATOM     13  O   UNL     1       0.797   4.647  20.271  0.00  0.00    +0.000 OA
BRANCH  13  15
ATOM     14  C   UNL     1       0.731   2.610  19.003  0.00  0.00    +0.000 C 
ATOM     15  C   UNL     1       1.065   3.242  20.347  0.00  0.00    +0.000 C 
ENDBRANCH  13  15
ENDBRANCH  11  13
ENDBRANCH   1  11
BRANCH   8  16
ATOM     16  O   UNL     1      -1.056   9.545  23.388  0.00  0.00    +0.000 OA
ATOM     17  H   UNL     1      -0.464   9.825  24.104  0.00  0.00    +0.000 HD
ENDBRANCH   8  16
BRANCH   2  18
ATOM     18  C   UNL     1       3.052   6.277  18.115  0.00  0.00    +0.000 C 
BRANCH  18  19
ATOM     19  S   UNL     1       4.713   5.707  18.552  0.00  0.00    +0.000 S 
BRANCH  19  20
ATOM     20  C   UNL     1       5.400   5.181  16.973  0.00  0.00    +0.000 A 
ATOM     21  C   UNL     1       6.611   5.741  16.510  0.00  0.00    +0.000 A 
ATOM     22 CL   UNL     1       7.421   7.038  17.331  0.00  0.00    +0.000 Cl
ATOM     23  C   UNL     1       7.248   5.250  15.360  0.00  0.00    +0.000 A 
ATOM     24  C   UNL     1       6.691   4.195  14.645  0.00  0.00    +0.000 A 
ATOM     25  C   UNL     1       5.499   3.626  15.084  0.00  0.00    +0.000 A 
ATOM     26  C   UNL     1       4.864   4.102  16.241  0.00  0.00    +0.000 A 
ATOM     27 CL   UNL     1       3.442   3.241  16.729  0.00  0.00    +0.000 Cl
ENDBRANCH  19  20
ENDBRANCH  18  19
ENDBRANCH   2  18
TORSDOF 7
ENDMDL
MODEL 3
REMARK VINA RESULT:      -6.5      5.925      8.407
REMARK  Name = 
REMARK  9 active torsions:
REMARK  status: ('A' for Active; 'I' for Inactive)
REMARK    1  A    between atoms: C_1  and  C_2
REMARK    2  A    between atoms: C_2  and  O_3
REMARK    3  A    between atoms: O_3  and  C_4
REMARK    4  A    between atoms: C_4  and  C_6
REMARK    5  A    between atoms: C_7  and  C_8
REMARK    6  A    between atoms: C_8  and  S_9
REMARK    7  A    between atoms: S_9  and  C_10
REMARK    8  A    between atoms: N_18  and  C_19
REMARK    9  A    between atoms: C_23  and  O_24
REMARK                            x       y       z     vdW  Elec       q    Type
REMARK                         _______ _______ _______ _____ _____    ______ ____
ROOT
ATOM      1  C   UNL     1      -2.770  11.462  18.201  0.00  0.00    +0.000 A 
ATOM      2  C   UNL     1      -2.081  12.475  18.903  0.00  0.00    +0.000 A 
ATOM      3  N   UNL     1      -2.988  12.981  19.827  0.00  0.00    +0.000 N 
ATOM      4  C   UNL     1      -2.842  14.025  20.822  0.00  0.00    +0.000 C 
ATOM      5  C   UNL     1      -4.224  12.356  19.694  0.00  0.00    +0.000 A 
ATOM      6  C   UNL     1      -5.435  12.575  20.383  0.00  0.00    +0.000 A 
ATOM      7  C   UNL     1      -6.545  11.794  20.064  0.00  0.00    +0.000 A 
ATOM      8  C   UNL     1      -6.446  10.824  19.081  0.00  0.00    +0.000 A 
ATOM      9  C   UNL     1      -5.251  10.610  18.392  0.00  0.00    +0.000 A 
ATOM     10  C   UNL     1      -4.113  11.394  18.698  0.00  0.00    +0.000 A 
ENDROOT
BRANCH   1  11
ATOM     11  C   UNL     1      -2.193  10.685  17.101  0.00  0.00    +0.000 C 
ATOM     12  O   UNL     1      -1.393   9.769  17.268  0.00  0.00    +0.000 OA
BRANCH  11  13
ATOM     13  O   UNL     1      -2.533  11.177  15.876  0.00  0.00    +0.000 OA
BRANCH  13  15
ATOM     14  C   UNL     1      -2.979   9.928  13.875  0.00  0.00    +0.000 C 
ATOM     15  C   UNL     1      -3.552  10.439  15.190  0.00  0.00    +0.000 C 
ENDBRANCH  13  15
ENDBRANCH  11  13
ENDBRANCH   1  11
BRANCH   8  16
ATOM     16  O   UNL     1      -7.520  10.047  18.751  0.00  0.00    +0.000 OA
ATOM     17  H   UNL     1      -7.222   9.128  18.666  0.00  0.00    +0.000 HD
ENDBRANCH   8  16
BRANCH   2  18
ATOM     18  C   UNL     1      -0.651  12.903  18.587  0.00  0.00    +0.000 C 
BRANCH  18  19
ATOM     19  S   UNL     1       0.587  12.936  19.905  0.00  0.00    +0.000 S 
BRANCH  19  20
ATOM     20  C   UNL     1       0.523  11.267  20.576  0.00  0.00    +0.000 A 
ATOM     21  C   UNL     1      -0.152  11.020  21.793  0.00  0.00    +0.000 A 
ATOM     22 CL   UNL     1      -0.821  12.290  22.769  0.00  0.00    +0.000 Cl
ATOM     23  C   UNL     1      -0.347   9.714  22.266  0.00  0.00    +0.000 A 
ATOM     24  C   UNL     1       0.130   8.626  21.543  0.00  0.00    +0.000 A 
ATOM     25  C   UNL     1       0.796   8.844  20.341  0.00  0.00    +0.000 A 
ATOM     26  C   UNL     1       0.983  10.147  19.853  0.00  0.00    +0.000 A 
ATOM     27 CL   UNL     1       1.740  10.269  18.299  0.00  0.00    +0.000 Cl
ENDBRANCH  19  20
ENDBRANCH  18  19
ENDBRANCH   2  18
TORSDOF 7
ENDMDL
MODEL 4
REMARK VINA RESULT:      -6.4      3.252      7.325
REMARK  Name = 
REMARK  9 active torsions:
REMARK  status: ('A' for Active; 'I' for Inactive)
REMARK    1  A    between atoms: C_1  and  C_2
REMARK    2  A    between atoms: C_2  and  O_3
REMARK    3  A    between atoms: O_3  and  C_4
REMARK    4  A    between atoms: C_4  and  C_6
REMARK    5  A    between atoms: C_7  and  C_8
REMARK    6  A    between atoms: C_8  and  S_9
REMARK    7  A    between atoms: S_9  and  C_10
REMARK    8  A    between atoms: N_18  and  C_19
REMARK    9  A    between atoms: C_23  and  O_24
REMARK                            x       y       z     vdW  Elec       q    Type
REMARK                         _______ _______ _______ _____ _____    ______ ____
ROOT
ATOM      1  C   UNL     1       2.390   5.835  19.562  0.00  0.00    +0.000 A 
ATOM      2  C   UNL     1       2.054   7.203  19.477  0.00  0.00    +0.000 A 
ATOM      3  N   UNL     1       2.738   7.696  18.372  0.00  0.00    +0.000 N 
ATOM      4  C   UNL     1       2.772   9.024  17.794  0.00  0.00    +0.000 C 
ATOM      5  C   UNL     1       3.521   6.699  17.797  0.00  0.00    +0.000 A 
ATOM      6  C   UNL     1       4.403   6.754  16.697  0.00  0.00    +0.000 A 
ATOM      7  C   UNL     1       5.071   5.593  16.309  0.00  0.00    +0.000 A 
ATOM      8  C   UNL     1       4.864   4.412  17.003  0.00  0.00    +0.000 A 
ATOM      9  C   UNL     1       3.998   4.357  18.096  0.00  0.00    +0.000 A 
ATOM     10  C   UNL     1       3.312   5.525  18.509  0.00  0.00    +0.000 A 
ENDROOT
BRANCH   1  11
ATOM     11  C   UNL     1       1.912   4.935  20.614  0.00  0.00    +0.000 C 
ATOM     12  O   UNL     1       2.516   4.746  21.667  0.00  0.00    +0.000 OA
BRANCH  11  13
ATOM     13  O   UNL     1       0.805   4.231  20.242  0.00  0.00    +0.000 OA
BRANCH  13  15
ATOM     14  C   UNL     1       0.848   2.371  18.726  0.00  0.00    +0.000 C 
ATOM     15  C   UNL     1       0.985   2.811  20.177  0.00  0.00    +0.000 C 
ENDBRANCH  13  15
ENDBRANCH  11  13
ENDBRANCH   1  11
BRANCH   8  16
ATOM     16  O   UNL     1       5.507   3.263  16.640  0.00  0.00    +0.000 OA
ATOM     17  H   UNL     1       4.841   2.598  16.406  0.00  0.00    +0.000 HD
ENDBRANCH   8  16
BRANCH   2  18
ATOM     18  C   UNL     1       1.164   7.922  20.487  0.00  0.00    +0.000 C 
BRANCH  18  19
ATOM     19  S   UNL     1       1.739   9.454  21.260  0.00  0.00    +0.000 S 
BRANCH  19  20
ATOM     20  C   UNL     1       0.224  10.400  21.482  0.00  0.00    +0.000 A 
ATOM     21  C   UNL     1      -0.437  10.392  22.730  0.00  0.00    +0.000 A 
ATOM     22 CL   UNL     1       0.066   9.386  24.052  0.00  0.00    +0.000 Cl
ATOM     23  C   UNL     1      -1.533  11.231  22.980  0.00  0.00    +0.000 A 
ATOM     24  C   UNL     1      -1.997  12.093  21.992  0.00  0.00    +0.000 A 
ATOM     25  C   UNL     1      -1.361  12.121  20.755  0.00  0.00    +0.000 A 
ATOM     26  C   UNL     1      -0.255  11.295  20.502  0.00  0.00    +0.000 A 
ATOM     27 CL   UNL     1       0.503  11.500  18.958  0.00  0.00    +0.000 Cl
ENDBRANCH  19  20
ENDBRANCH  18  19
ENDBRANCH   2  18
TORSDOF 7
ENDMDL
MODEL 5
REMARK VINA RESULT:      -6.3      3.329      7.157
REMARK  Name = 
REMARK  9 active torsions:
REMARK  status: ('A' for Active; 'I' for Inactive)
REMARK    1  A    between atoms: C_1  and  C_2
REMARK    2  A    between atoms: C_2  and  O_3
REMARK    3  A    between atoms: O_3  and  C_4
REMARK    4  A    between atoms: C_4  and  C_6
REMARK    5  A    between atoms: C_7  and  C_8
REMARK    6  A    between atoms: C_8  and  S_9
REMARK    7  A    between atoms: S_9  and  C_10
REMARK    8  A    between atoms: N_18  and  C_19
REMARK    9  A    between atoms: C_23  and  O_24
REMARK                            x       y       z     vdW  Elec       q    Type
REMARK                         _______ _______ _______ _____ _____    ______ ____
ROOT
ATOM      1  C   UNL     1       2.466   5.749  19.750  0.00  0.00    +0.000 A 
ATOM      2  C   UNL     1       2.137   7.122  19.770  0.00  0.00    +0.000 A 
ATOM      3  N   UNL     1       2.744   7.676  18.649  0.00  0.00    +0.000 N 
ATOM      4  C   UNL     1       2.747   9.036  18.149  0.00  0.00    +0.000 C 
ATOM      5  C   UNL     1       3.475   6.712  17.960  0.00  0.00    +0.000 A 
ATOM      6  C   UNL     1       4.276   6.828  16.805  0.00  0.00    +0.000 A 
ATOM      7  C   UNL     1       4.904   5.690  16.302  0.00  0.00    +0.000 A 
ATOM      8  C   UNL     1       4.738   4.471  16.938  0.00  0.00    +0.000 A 
ATOM      9  C   UNL     1       3.952   4.355  18.086  0.00  0.00    +0.000 A 
ATOM     10  C   UNL     1       3.308   5.499  18.616  0.00  0.00    +0.000 A 
ENDROOT
BRANCH   1  11
ATOM     11  C   UNL     1       2.059   4.790  20.779  0.00  0.00    +0.000 C 
ATOM     12  O   UNL     1       2.770   4.477  21.729  0.00  0.00    +0.000 OA
BRANCH  11  13
ATOM     13  O   UNL     1       0.870   4.188  20.494  0.00  0.00    +0.000 OA
BRANCH  13  15
ATOM     14  C   UNL     1       0.880   2.476  18.812  0.00  0.00    +0.000 C 
ATOM     15  C   UNL     1       0.941   2.770  20.304  0.00  0.00    +0.000 C 
ENDBRANCH  13  15
ENDBRANCH  11  13
ENDBRANCH   1  11
BRANCH   8  16
ATOM     16  O   UNL     1       5.344   3.343  16.463  0.00  0.00    +0.000 OA
ATOM     17  H   UNL     1       4.660   2.748  16.118  0.00  0.00    +0.000 HD
ENDBRANCH   8  16
BRANCH   2  18
ATOM     18  C   UNL     1       1.329   7.784  20.882  0.00  0.00    +0.000 C 
BRANCH  18  19
ATOM     19  S   UNL     1      -0.407   8.209  20.600  0.00  0.00    +0.000 S 
BRANCH  19  20
ATOM     20  C   UNL     1      -0.430  10.000  20.783  0.00  0.00    +0.000 A 
ATOM     21  C   UNL     1      -0.662  10.821  19.657  0.00  0.00    +0.000 A 
ATOM     22 CL   UNL     1      -0.791  10.190  18.046  0.00  0.00    +0.000 Cl
ATOM     23  C   UNL     1      -0.832  12.207  19.790  0.00  0.00    +0.000 A 
ATOM     24  C   UNL     1      -0.772  12.806  21.043  0.00  0.00    +0.000 A 
ATOM     25  C   UNL     1      -0.546  12.017  22.167  0.00  0.00    +0.000 A 
ATOM     26  C   UNL     1      -0.389  10.628  22.045  0.00  0.00    +0.000 A 
ATOM     27 CL   UNL     1      -0.214   9.755  23.531  0.00  0.00    +0.000 Cl
ENDBRANCH  19  20
ENDBRANCH  18  19
ENDBRANCH   2  18
TORSDOF 7
ENDMDL
MODEL 6
REMARK VINA RESULT:      -6.3      6.325      8.625
REMARK  Name = 
REMARK  9 active torsions:
REMARK  status: ('A' for Active; 'I' for Inactive)
REMARK    1  A    between atoms: C_1  and  C_2
REMARK    2  A    between atoms: C_2  and  O_3
REMARK    3  A    between atoms: O_3  and  C_4
REMARK    4  A    between atoms: C_4  and  C_6
REMARK    5  A    between atoms: C_7  and  C_8
REMARK    6  A    between atoms: C_8  and  S_9
REMARK    7  A    between atoms: S_9  and  C_10
REMARK    8  A    between atoms: N_18  and  C_19
REMARK    9  A    between atoms: C_23  and  O_24
REMARK                            x       y       z     vdW  Elec       q    Type
REMARK                         _______ _______ _______ _____ _____    ______ ____
ROOT
ATOM      1  C   UNL     1      -2.709  11.523  18.387  0.00  0.00    +0.000 A 
ATOM      2  C   UNL     1      -2.059  12.552  19.102  0.00  0.00    +0.000 A 
ATOM      3  N   UNL     1      -3.022  13.097  19.944  0.00  0.00    +0.000 N 
ATOM      4  C   UNL     1      -2.934  14.171  20.913  0.00  0.00    +0.000 C 
ATOM      5  C   UNL     1      -4.253  12.479  19.745  0.00  0.00    +0.000 A 
ATOM      6  C   UNL     1      -5.506  12.732  20.340  0.00  0.00    +0.000 A 
ATOM      7  C   UNL     1      -6.600  11.951  19.969  0.00  0.00    +0.000 A 
ATOM      8  C   UNL     1      -6.445  10.949  19.026  0.00  0.00    +0.000 A 
ATOM      9  C   UNL     1      -5.207  10.701  18.430  0.00  0.00    +0.000 A 
ATOM     10  C   UNL     1      -4.084  11.484  18.790  0.00  0.00    +0.000 A 
ENDROOT
BRANCH   1  11
ATOM     11  C   UNL     1      -2.065  10.706  17.355  0.00  0.00    +0.000 C 
ATOM     12  O   UNL     1      -1.098   9.982  17.573  0.00  0.00    +0.000 OA
BRANCH  11  13
ATOM     13  O   UNL     1      -2.569  10.939  16.110  0.00  0.00    +0.000 OA
BRANCH  13  15
ATOM     14  C   UNL     1      -3.314  10.153  13.968  0.00  0.00    +0.000 C 
ATOM     15  C   UNL     1      -3.019   9.772  15.412  0.00  0.00    +0.000 C 
ENDBRANCH  13  15
ENDBRANCH  11  13
ENDBRANCH   1  11
BRANCH   8  16
ATOM     16  O   UNL     1      -7.502  10.172  18.647  0.00  0.00    +0.000 OA
ATOM     17  H   UNL     1      -7.439   9.320  19.106  0.00  0.00    +0.000 HD
ENDBRANCH   8  16
BRANCH   2  18
ATOM     18  C   UNL     1      -0.605  12.956  18.874  0.00  0.00    +0.000 C 
BRANCH  18  19
ATOM     19  S   UNL     1       0.580  12.852  20.237  0.00  0.00    +0.000 S 
BRANCH  19  20
ATOM     20  C   UNL     1       0.092  11.346  21.096  0.00  0.00    +0.000 A 
ATOM     21  C   UNL     1       0.517  10.088  20.612  0.00  0.00    +0.000 A 
ATOM     22 CL   UNL     1       1.387   9.901  19.123  0.00  0.00    +0.000 Cl
ATOM     23  C   UNL     1       0.279   8.911  21.337  0.00  0.00    +0.000 A 
ATOM     24  C   UNL     1      -0.389   8.958  22.555  0.00  0.00    +0.000 A 
ATOM     25  C   UNL     1      -0.815  10.186  23.054  0.00  0.00    +0.000 A 
ATOM     26  C   UNL     1      -0.569  11.371  22.342  0.00  0.00    +0.000 A 
ATOM     27 CL   UNL     1      -1.064  12.836  23.121  0.00  0.00    +0.000 Cl
ENDBRANCH  19  20
ENDBRANCH  18  19
ENDBRANCH   2  18
TORSDOF 7
ENDMDL
MODEL 7
REMARK VINA RESULT:      -6.2      7.011     10.527
REMARK  Name = 
REMARK  9 active torsions:
REMARK  status: ('A' for Active; 'I' for Inactive)
REMARK    1  A    between atoms: C_1  and  C_2
REMARK    2  A    between atoms: C_2  and  O_3
REMARK    3  A    between atoms: O_3  and  C_4
REMARK    4  A    between atoms: C_4  and  C_6
REMARK    5  A    between atoms: C_7  and  C_8
REMARK    6  A    between atoms: C_8  and  S_9
REMARK    7  A    between atoms: S_9  and  C_10
REMARK    8  A    between atoms: N_18  and  C_19
REMARK    9  A    between atoms: C_23  and  O_24
REMARK                            x       y       z     vdW  Elec       q    Type
REMARK                         _______ _______ _______ _____ _____    ______ ____
ROOT
ATOM      1  C   UNL     1      -1.507  11.873  20.124  0.00  0.00    +0.000 A 
ATOM      2  C   UNL     1      -2.407  12.509  21.006  0.00  0.00    +0.000 A 
ATOM      3  N   UNL     1      -2.146  11.979  22.264  0.00  0.00    +0.000 N 
ATOM      4  C   UNL     1      -2.748  12.257  23.553  0.00  0.00    +0.000 C 
ATOM      5  C   UNL     1      -1.154  11.004  22.189  0.00  0.00    +0.000 A 
ATOM      6  C   UNL     1      -0.607  10.183  23.196  0.00  0.00    +0.000 A 
ATOM      7  C   UNL     1       0.401   9.280  22.857  0.00  0.00    +0.000 A 
ATOM      8  C   UNL     1       0.844   9.200  21.548  0.00  0.00    +0.000 A 
ATOM      9  C   UNL     1       0.298  10.007  20.548  0.00  0.00    +0.000 A 
ATOM     10  C   UNL     1      -0.728  10.928  20.870  0.00  0.00    +0.000 A 
ENDROOT
BRANCH   1  11
ATOM     11  C   UNL     1      -1.465  12.111  18.679  0.00  0.00    +0.000 C 
ATOM     12  O   UNL     1      -0.738  12.950  18.155  0.00  0.00    +0.000 OA
BRANCH  11  13
ATOM     13  O   UNL     1      -2.411  11.401  18.001  0.00  0.00    +0.000 OA
BRANCH  13  15
ATOM     14  C   UNL     1      -2.680   9.927  16.126  0.00  0.00    +0.000 C 
ATOM     15  C   UNL     1      -1.952  10.165  17.441  0.00  0.00    +0.000 C 
ENDBRANCH  13  15
ENDBRANCH  11  13
ENDBRANCH   1  11
BRANCH   8  16
ATOM     16  O   UNL     1       1.829   8.324  21.192  0.00  0.00    +0.000 OA
ATOM     17  H   UNL     1       2.148   8.561  20.308  0.00  0.00    +0.000 HD
ENDBRANCH   8  16
BRANCH   2  18
ATOM     18  C   UNL     1      -3.464  13.515  20.559  0.00  0.00    +0.000 C 
BRANCH  18  19
ATOM     19  S   UNL     1      -5.219  13.120  20.758  0.00  0.00    +0.000 S 
BRANCH  19  20
ATOM     20  C   UNL     1      -5.932  13.596  19.175  0.00  0.00    +0.000 A 
ATOM     21  C   UNL     1      -6.188  12.613  18.192  0.00  0.00    +0.000 A 
ATOM     22 CL   UNL     1      -5.714  10.954  18.378  0.00  0.00    +0.000 Cl
ATOM     23  C   UNL     1      -6.876  12.927  17.010  0.00  0.00    +0.000 A 
ATOM     24  C   UNL     1      -7.320  14.224  16.778  0.00  0.00    +0.000 A 
ATOM     25  C   UNL     1      -7.081  15.209  17.733  0.00  0.00    +0.000 A 
ATOM     26  C   UNL     1      -6.406  14.900  18.924  0.00  0.00    +0.000 A 
ATOM     27 CL   UNL     1      -6.263  16.195  20.067  0.00  0.00    +0.000 Cl
ENDBRANCH  19  20
ENDBRANCH  18  19
ENDBRANCH   2  18
TORSDOF 7
ENDMDL
MODEL 8
REMARK VINA RESULT:      -6.1      0.782      1.006
REMARK  Name = 
REMARK  9 active torsions:
REMARK  status: ('A' for Active; 'I' for Inactive)
REMARK    1  A    between atoms: C_1  and  C_2
REMARK    2  A    between atoms: C_2  and  O_3
REMARK    3  A    between atoms: O_3  and  C_4
REMARK    4  A    between atoms: C_4  and  C_6
REMARK    5  A    between atoms: C_7  and  C_8
REMARK    6  A    between atoms: C_8  and  S_9
REMARK    7  A    between atoms: S_9  and  C_10
REMARK    8  A    between atoms: N_18  and  C_19
REMARK    9  A    between atoms: C_23  and  O_24
REMARK                            x       y       z     vdW  Elec       q    Type
REMARK                         _______ _______ _______ _____ _____    ______ ____
ROOT
ATOM      1  C   UNL     1       1.627   6.642  20.196  0.00  0.00    +0.000 A 
ATOM      2  C   UNL     1       2.363   7.060  19.066  0.00  0.00    +0.000 A 
ATOM      3  N   UNL     1       2.195   8.438  18.990  0.00  0.00    +0.000 N 
ATOM      4  C   UNL     1       2.720   9.405  18.048  0.00  0.00    +0.000 C 
ATOM      5  C   UNL     1       1.347   8.884  20.000  0.00  0.00    +0.000 A 
ATOM      6  C   UNL     1       0.869  10.181  20.281  0.00  0.00    +0.000 A 
ATOM      7  C   UNL     1       0.025  10.367  21.376  0.00  0.00    +0.000 A 
ATOM      8  C   UNL     1      -0.331   9.286  22.165  0.00  0.00    +0.000 A 
ATOM      9  C   UNL     1       0.136   8.000  21.884  0.00  0.00    +0.000 A 
ATOM     10  C   UNL     1       0.991   7.788  20.776  0.00  0.00    +0.000 A 
ENDROOT
BRANCH   1  11
ATOM     11  C   UNL     1       1.500   5.247  20.625  0.00  0.00    +0.000 C 
ATOM     12  O   UNL     1       0.510   4.559  20.399  0.00  0.00    +0.000 OA
BRANCH  11  13
ATOM     13  O   UNL     1       2.536   4.844  21.414  0.00  0.00    +0.000 OA
BRANCH  13  15
ATOM     14  C   UNL     1       3.267   2.659  20.740  0.00  0.00    +0.000 C 
ATOM     15  C   UNL     1       2.508   3.461  21.788  0.00  0.00    +0.000 C 
ENDBRANCH  13  15
ENDBRANCH  11  13
ENDBRANCH   1  11
BRANCH   8  16
ATOM     16  O   UNL     1      -1.155   9.444  23.242  0.00  0.00    +0.000 OA
ATOM     17  H   UNL     1      -1.907   8.839  23.146  0.00  0.00    +0.000 HD
ENDBRANCH   8  16
BRANCH   2  18
ATOM     18  C   UNL     1       3.103   6.104  18.135  0.00  0.00    +0.000 C 
BRANCH  18  19
ATOM     19  S   UNL     1       4.718   5.450  18.618  0.00  0.00    +0.000 S 
BRANCH  19  20
ATOM     20  C   UNL     1       5.458   4.971  17.049  0.00  0.00    +0.000 A 
ATOM     21  C   UNL     1       4.824   4.005  16.236  0.00  0.00    +0.000 A 
ATOM     22 CL   UNL     1       3.411   3.134  16.741  0.00  0.00    +0.000 Cl
ATOM     23  C   UNL     1       5.294   3.717  14.945  0.00  0.00    +0.000 A 
ATOM     24  C   UNL     1       6.405   4.380  14.438  0.00  0.00    +0.000 A 
ATOM     25  C   UNL     1       7.046   5.337  15.220  0.00  0.00    +0.000 A 
ATOM     26  C   UNL     1       6.574   5.641  16.506  0.00  0.00    +0.000 A 
ATOM     27 CL   UNL     1       7.402   6.920  17.331  0.00  0.00    +0.000 Cl
ENDBRANCH  19  20
ENDBRANCH  18  19
ENDBRANCH   2  18
TORSDOF 7
ENDMDL
MODEL 9
REMARK VINA RESULT:      -6.1      7.179     10.714
REMARK  Name = 
REMARK  9 active torsions:
REMARK  status: ('A' for Active; 'I' for Inactive)
REMARK    1  A    between atoms: C_1  and  C_2
REMARK    2  A    between atoms: C_2  and  O_3
REMARK    3  A    between atoms: O_3  and  C_4
REMARK    4  A    between atoms: C_4  and  C_6
REMARK    5  A    between atoms: C_7  and  C_8
REMARK    6  A    between atoms: C_8  and  S_9
REMARK    7  A    between atoms: S_9  and  C_10
REMARK    8  A    between atoms: N_18  and  C_19
REMARK    9  A    between atoms: C_23  and  O_24
REMARK                            x       y       z     vdW  Elec       q    Type
REMARK                         _______ _______ _______ _____ _____    ______ ____
ROOT
ATOM      1  C   UNL     1      -1.544  12.089  20.200  0.00  0.00    +0.000 A 
ATOM      2  C   UNL     1      -2.504  12.685  21.046  0.00  0.00    +0.000 A 
ATOM      3  N   UNL     1      -2.324  12.103  22.296  0.00  0.00    +0.000 N 
ATOM      4  C   UNL     1      -3.011  12.325  23.552  0.00  0.00    +0.000 C 
ATOM      5  C   UNL     1      -1.323  11.137  22.247  0.00  0.00    +0.000 A 
ATOM      6  C   UNL     1      -0.837  10.276  23.253  0.00  0.00    +0.000 A 
ATOM      7  C   UNL     1       0.197   9.392  22.944  0.00  0.00    +0.000 A 
ATOM      8  C   UNL     1       0.726   9.369  21.665  0.00  0.00    +0.000 A 
ATOM      9  C   UNL     1       0.242  10.215  20.665  0.00  0.00    +0.000 A 
ATOM     10  C   UNL     1      -0.809  11.118  20.956  0.00  0.00    +0.000 A 
ENDROOT
BRANCH   1  11
ATOM     11  C   UNL     1      -1.407  12.388  18.773  0.00  0.00    +0.000 C 
ATOM     12  O   UNL     1      -0.621  13.220  18.329  0.00  0.00    +0.000 OA
BRANCH  11  13
ATOM     13  O   UNL     1      -2.337  11.746  18.010  0.00  0.00    +0.000 OA
BRANCH  13  15
ATOM     14  C   UNL     1      -3.044   9.560  17.313  0.00  0.00    +0.000 C 
ATOM     15  C   UNL     1      -1.879  10.538  17.390  0.00  0.00    +0.000 C 
ENDBRANCH  13  15
ENDBRANCH  11  13
ENDBRANCH   1  11
BRANCH   8  16
ATOM     16  O   UNL     1       1.739   8.512  21.340  0.00  0.00    +0.000 OA
ATOM     17  H   UNL     1       1.358   7.636  21.168  0.00  0.00    +0.000 HD
ENDBRANCH   8  16
BRANCH   2  18
ATOM     18  C   UNL     1      -3.536  13.704  20.572  0.00  0.00    +0.000 C 
BRANCH  18  19
ATOM     19  S   UNL     1      -5.289  13.441  20.934  0.00  0.00    +0.000 S 
BRANCH  19  20
ATOM     20  C   UNL     1      -6.087  13.719  19.344  0.00  0.00    +0.000 A 
ATOM     21  C   UNL     1      -6.398  15.034  18.932  0.00  0.00    +0.000 A 
ATOM     22 CL   UNL     1      -6.175  16.417  19.956  0.00  0.00    +0.000 Cl
ATOM     23  C   UNL     1      -6.883  15.297  17.641  0.00  0.00    +0.000 A 
ATOM     24  C   UNL     1      -7.072  14.259  16.737  0.00  0.00    +0.000 A 
ATOM     25  C   UNL     1      -6.771  12.955  17.120  0.00  0.00    +0.000 A 
ATOM     26  C   UNL     1      -6.272  12.685  18.404  0.00  0.00    +0.000 A 
ATOM     27 CL   UNL     1      -5.845  11.035  18.716  0.00  0.00    +0.000 Cl
ENDBRANCH  19  20
ENDBRANCH  18  19
ENDBRANCH   2  18
TORSDOF 7
ENDMDL
