MODEL 1
REMARK VINA RESULT:      -4.9      0.000      0.000
REMARK  Name = 
REMARK  2 active torsions:
REMARK  status: ('A' for Active; 'I' for Inactive)
REMARK    1  A    between atoms: C_2  and  C_3
REMARK    2  A    between atoms: C_7  and  C_8
REMARK                            x       y       z     vdW  Elec       q    Type
REMARK                         _______ _______ _______ _____ _____    ______ ____
ROOT
ATOM      1  C   UNL     1       3.491   4.741  18.239  0.00  0.00    +0.000 A 
ATOM      2  C   UNL     1       3.140   6.089  18.412  0.00  0.00    +0.000 A 
ATOM      3  C   UNL     1       2.386   6.487  19.514  0.00  0.00    +0.000 A 
ATOM      4  C   UNL     1       1.987   5.541  20.458  0.00  0.00    +0.000 A 
ATOM      5  C   UNL     1       2.338   4.191  20.304  0.00  0.00    +0.000 A 
ATOM      6  C   UNL     1       3.085   3.786  19.185  0.00  0.00    +0.000 A 
ATOM      7 CL   UNL     1       3.503   2.114  18.973  0.00  0.00    +0.000 Cl
ENDROOT
BRANCH   1   9
ATOM      8  N   UNL     1       4.896   4.134  16.143  0.00  0.00    +0.000 NA
ATOM      9  C   UNL     1       4.269   4.386  17.086  0.00  0.00    +0.000 C 
ENDBRANCH   1   9
BRANCH   5  10
ATOM     10  C   UNL     1       1.928   3.264  21.321  0.00  0.00    +0.000 C 
ATOM     11  N   UNL     1       1.561   2.526  22.137  0.00  0.00    +0.000 NA
ENDBRANCH   5  10
TORSDOF 2
ENDMDL
MODEL 2
REMARK VINA RESULT:      -4.9      0.106      3.950
REMARK  Name = 
REMARK  2 active torsions:
REMARK  status: ('A' for Active; 'I' for Inactive)
REMARK    1  A    between atoms: C_2  and  C_3
REMARK    2  A    between atoms: C_7  and  C_8
REMARK                            x       y       z     vdW  Elec       q    Type
REMARK                         _______ _______ _______ _____ _____    ______ ____
ROOT
ATOM      1  C   UNL     1       2.334   4.258  20.344  0.00  0.00    +0.000 A 
ATOM      2  C   UNL     1       1.965   5.601  20.517  0.00  0.00    +0.000 A 
ATOM      3  C   UNL     1       2.355   6.567  19.591  0.00  0.00    +0.000 A 
ATOM      4  C   UNL     1       3.107   6.194  18.478  0.00  0.00    +0.000 A 
ATOM      5  C   UNL     1       3.476   4.854  18.285  0.00  0.00    +0.000 A 
ATOM      6  C   UNL     1       3.097   3.882  19.226  0.00  0.00    +0.000 A 
ATOM      7 CL   UNL     1       3.570   2.225  19.010  0.00  0.00    +0.000 Cl
ENDROOT
BRANCH   1   9
ATOM      8  N   UNL     1       1.592   2.540  22.142  0.00  0.00    +0.000 NA
ATOM      9  C   UNL     1       1.906   3.305  21.328  0.00  0.00    +0.000 C 
ENDBRANCH   1   9
BRANCH   5  10
ATOM     10  C   UNL     1       4.223   4.520  17.106  0.00  0.00    +0.000 C 
ATOM     11  N   UNL     1       4.853   4.234  16.175  0.00  0.00    +0.000 NA
ENDBRANCH   5  10
TORSDOF 2
ENDMDL
MODEL 3
REMARK VINA RESULT:      -4.8      2.162      4.536
REMARK  Name = 
REMARK  2 active torsions:
REMARK  status: ('A' for Active; 'I' for Inactive)
REMARK    1  A    between atoms: C_2  and  C_3
REMARK    2  A    between atoms: C_7  and  C_8
REMARK                            x       y       z     vdW  Elec       q    Type
REMARK                         _______ _______ _______ _____ _____    ______ ____
ROOT
ATOM      1  C   UNL     1       1.962   3.208  19.919  0.00  0.00    +0.000 A 
ATOM      2  C   UNL     1       2.193   2.274  18.898  0.00  0.00    +0.000 A 
ATOM      3  C   UNL     1       2.553   2.697  17.620  0.00  0.00    +0.000 A 
ATOM      4  C   UNL     1       2.695   4.059  17.357  0.00  0.00    +0.000 A 
ATOM      5  C   UNL     1       2.477   5.006  18.369  0.00  0.00    +0.000 A 
ATOM      6  C   UNL     1       2.099   4.581  19.654  0.00  0.00    +0.000 A 
ATOM      7 CL   UNL     1       1.802   5.746  20.907  0.00  0.00    +0.000 Cl
ENDROOT
BRANCH   1   9
ATOM      8  N   UNL     1       1.314   2.350  22.281  0.00  0.00    +0.000 NA
ATOM      9  C   UNL     1       1.593   2.718  21.217  0.00  0.00    +0.000 C 
ENDBRANCH   1   9
BRANCH   5  10
ATOM     10  C   UNL     1       2.668   6.393  18.052  0.00  0.00    +0.000 C 
ATOM     11  N   UNL     1       2.819   7.521  17.832  0.00  0.00    +0.000 NA
ENDBRANCH   5  10
TORSDOF 2
ENDMDL
MODEL 4
REMARK VINA RESULT:      -4.8      2.528      2.934
REMARK  Name = 
REMARK  2 active torsions:
REMARK  status: ('A' for Active; 'I' for Inactive)
REMARK    1  A    between atoms: C_2  and  C_3
REMARK    2  A    between atoms: C_7  and  C_8
REMARK                            x       y       z     vdW  Elec       q    Type
REMARK                         _______ _______ _______ _____ _____    ______ ____
ROOT
ATOM      1  C   UNL     1       2.925   5.222  18.285  0.00  0.00    +0.000 A 
ATOM      2  C   UNL     1       1.681   4.675  17.936  0.00  0.00    +0.000 A 
ATOM      3  C   UNL     1       1.370   3.358  18.270  0.00  0.00    +0.000 A 
ATOM      4  C   UNL     1       2.296   2.583  18.967  0.00  0.00    +0.000 A 
ATOM      5  C   UNL     1       3.541   3.119  19.331  0.00  0.00    +0.000 A 
ATOM      6  C   UNL     1       3.862   4.441  18.982  0.00  0.00    +0.000 A 
ATOM      7 CL   UNL     1       5.409   5.105  19.407  0.00  0.00    +0.000 Cl
ENDROOT
BRANCH   1   9
ATOM      8  N   UNL     1       3.390   7.694  17.646  0.00  0.00    +0.000 NA
ATOM      9  C   UNL     1       3.195   6.583  17.916  0.00  0.00    +0.000 C 
ENDBRANCH   1   9
BRANCH   5  10
ATOM     10  C   UNL     1       4.444   2.288  20.075  0.00  0.00    +0.000 C 
ATOM     11  N   UNL     1       5.189   1.604  20.644  0.00  0.00    +0.000 NA
ENDBRANCH   5  10
TORSDOF 2
ENDMDL
MODEL 5
REMARK VINA RESULT:      -4.8      2.525      3.935
REMARK  Name = 
REMARK  2 active torsions:
REMARK  status: ('A' for Active; 'I' for Inactive)
REMARK    1  A    between atoms: C_2  and  C_3
REMARK    2  A    between atoms: C_7  and  C_8
REMARK                            x       y       z     vdW  Elec       q    Type
REMARK                         _______ _______ _______ _____ _____    ______ ____
ROOT
ATOM      1  C   UNL     1       3.511   3.092  19.329  0.00  0.00    +0.000 A 
ATOM      2  C   UNL     1       2.287   2.529  18.938  0.00  0.00    +0.000 A 
ATOM      3  C   UNL     1       1.348   3.290  18.244  0.00  0.00    +0.000 A 
ATOM      4  C   UNL     1       1.633   4.617  17.924  0.00  0.00    +0.000 A 
ATOM      5  C   UNL     1       2.858   5.192  18.299  0.00  0.00    +0.000 A 
ATOM      6  C   UNL     1       3.798   4.430  19.013  0.00  0.00    +0.000 A 
ATOM      7 CL   UNL     1       5.305   5.140  19.504  0.00  0.00    +0.000 Cl
ENDROOT
BRANCH   1   9
ATOM      8  N   UNL     1       5.195   1.620  20.646  0.00  0.00    +0.000 NA
ATOM      9  C   UNL     1       4.442   2.264  20.043  0.00  0.00    +0.000 C 
ENDBRANCH   1   9
BRANCH   5  10
ATOM     10  C   UNL     1       3.112   6.552  17.917  0.00  0.00    +0.000 C 
ATOM     11  N   UNL     1       3.344   7.653  17.636  0.00  0.00    +0.000 NA
ENDBRANCH   5  10
TORSDOF 2
ENDMDL
MODEL 6
REMARK VINA RESULT:      -4.8      3.252      4.586
REMARK  Name = 
REMARK  2 active torsions:
REMARK  status: ('A' for Active; 'I' for Inactive)
REMARK    1  A    between atoms: C_2  and  C_3
REMARK    2  A    between atoms: C_7  and  C_8
REMARK                            x       y       z     vdW  Elec       q    Type
REMARK                         _______ _______ _______ _____ _____    ______ ____
ROOT
ATOM      1  C   UNL     1       4.438   4.072  17.068  0.00  0.00    +0.000 A 
ATOM      2  C   UNL     1       5.117   3.949  15.846  0.00  0.00    +0.000 A 
ATOM      3  C   UNL     1       6.468   4.276  15.752  0.00  0.00    +0.000 A 
ATOM      4  C   UNL     1       7.153   4.718  16.884  0.00  0.00    +0.000 A 
ATOM      5  C   UNL     1       6.490   4.837  18.115  0.00  0.00    +0.000 A 
ATOM      6  C   UNL     1       5.125   4.522  18.208  0.00  0.00    +0.000 A 
ATOM      7 CL   UNL     1       4.290   4.691  19.721  0.00  0.00    +0.000 Cl
ENDROOT
BRANCH   1   9
ATOM      8  N   UNL     1       1.931   3.403  17.134  0.00  0.00    +0.000 NA
ATOM      9  C   UNL     1       3.046   3.721  17.109  0.00  0.00    +0.000 C 
ENDBRANCH   1   9
BRANCH   5  10
ATOM     10  C   UNL     1       7.251   5.266  19.254  0.00  0.00    +0.000 C 
ATOM     11  N   UNL     1       7.868   5.577  20.186  0.00  0.00    +0.000 NA
ENDBRANCH   5  10
TORSDOF 2
ENDMDL
MODEL 7
REMARK VINA RESULT:      -4.8      2.289      2.410
REMARK  Name = 
REMARK  2 active torsions:
REMARK  status: ('A' for Active; 'I' for Inactive)
REMARK    1  A    between atoms: C_2  and  C_3
REMARK    2  A    between atoms: C_7  and  C_8
REMARK                            x       y       z     vdW  Elec       q    Type
REMARK                         _______ _______ _______ _____ _____    ______ ____
ROOT
ATOM      1  C   UNL     1       4.597   5.224  18.892  0.00  0.00    +0.000 A 
ATOM      2  C   UNL     1       4.076   6.395  18.321  0.00  0.00    +0.000 A 
ATOM      3  C   UNL     1       2.761   6.430  17.858  0.00  0.00    +0.000 A 
ATOM      4  C   UNL     1       1.956   5.298  17.975  0.00  0.00    +0.000 A 
ATOM      5  C   UNL     1       2.460   4.123  18.553  0.00  0.00    +0.000 A 
ATOM      6  C   UNL     1       3.789   4.081  19.005  0.00  0.00    +0.000 A 
ATOM      7 CL   UNL     1       4.429   2.623  19.698  0.00  0.00    +0.000 Cl
ENDROOT
BRANCH   1   9
ATOM      8  N   UNL     1       7.063   5.283  19.699  0.00  0.00    +0.000 NA
ATOM      9  C   UNL     1       5.957   5.241  19.352  0.00  0.00    +0.000 C 
ENDBRANCH   1   9
BRANCH   5  10
ATOM     10  C   UNL     1       1.577   2.998  18.677  0.00  0.00    +0.000 C 
ATOM     11  N   UNL     1       0.835   2.112  18.776  0.00  0.00    +0.000 NA
ENDBRANCH   5  10
TORSDOF 2
ENDMDL
MODEL 8
REMARK VINA RESULT:      -4.8      2.347      4.371
REMARK  Name = 
REMARK  2 active torsions:
REMARK  status: ('A' for Active; 'I' for Inactive)
REMARK    1  A    between atoms: C_2  and  C_3
REMARK    2  A    between atoms: C_7  and  C_8
REMARK                            x       y       z     vdW  Elec       q    Type
REMARK                         _______ _______ _______ _____ _____    ______ ____
ROOT
ATOM      1  C   UNL     1       2.715   5.017  17.825  0.00  0.00    +0.000 A 
ATOM      2  C   UNL     1       2.236   6.294  18.158  0.00  0.00    +0.000 A 
ATOM      3  C   UNL     1       3.033   7.420  17.965  0.00  0.00    +0.000 A 
ATOM      4  C   UNL     1       4.311   7.280  17.425  0.00  0.00    +0.000 A 
ATOM      5  C   UNL     1       4.801   6.011  17.078  0.00  0.00    +0.000 A 
ATOM      6  C   UNL     1       4.005   4.873  17.286  0.00  0.00    +0.000 A 
ATOM      7 CL   UNL     1       4.612   3.297  16.884  0.00  0.00    +0.000 Cl
ENDROOT
BRANCH   1   9
ATOM      8  N   UNL     1       1.142   2.985  18.188  0.00  0.00    +0.000 NA
ATOM      9  C   UNL     1       1.853   3.891  18.044  0.00  0.00    +0.000 C 
ENDBRANCH   1   9
BRANCH   5  10
ATOM     10  C   UNL     1       6.111   5.927  16.497  0.00  0.00    +0.000 C 
ATOM     11  N   UNL     1       7.169   5.896  16.023  0.00  0.00    +0.000 NA
ENDBRANCH   5  10
TORSDOF 2
ENDMDL
MODEL 9
REMARK VINA RESULT:      -4.8      2.731      3.041
REMARK  Name = 
REMARK  2 active torsions:
REMARK  status: ('A' for Active; 'I' for Inactive)
REMARK    1  A    between atoms: C_2  and  C_3
REMARK    2  A    between atoms: C_7  and  C_8
REMARK                            x       y       z     vdW  Elec       q    Type
REMARK                         _______ _______ _______ _____ _____    ______ ____
ROOT
ATOM      1  C   UNL     1       4.679   6.369  17.316  0.00  0.00    +0.000 A 
ATOM      2  C   UNL     1       3.772   7.322  17.804  0.00  0.00    +0.000 A 
ATOM      3  C   UNL     1       2.483   6.945  18.176  0.00  0.00    +0.000 A 
ATOM      4  C   UNL     1       2.096   5.609  18.075  0.00  0.00    +0.000 A 
ATOM      5  C   UNL     1       2.995   4.643  17.598  0.00  0.00    +0.000 A 
ATOM      6  C   UNL     1       4.289   5.024  17.207  0.00  0.00    +0.000 A 
ATOM      7 CL   UNL     1       5.400   3.839  16.592  0.00  0.00    +0.000 Cl
ENDROOT
BRANCH   1   9
ATOM      8  N   UNL     1       7.065   7.170  16.684  0.00  0.00    +0.000 NA
ATOM      9  C   UNL     1       5.994   6.811  16.946  0.00  0.00    +0.000 C 
ENDBRANCH   1   9
BRANCH   5  10
ATOM     10  C   UNL     1       2.555   3.277  17.544  0.00  0.00    +0.000 C 
ATOM     11  N   UNL     1       2.234   2.163  17.510  0.00  0.00    +0.000 NA
ENDBRANCH   5  10
TORSDOF 2
ENDMDL
