MODEL 1
REMARK VINA RESULT:      -6.6      0.000      0.000
REMARK  Name = 
REMARK  3 active torsions:
REMARK  status: ('A' for Active; 'I' for Inactive)
REMARK    1  A    between atoms: C_2  and  C_3
REMARK    2  A    between atoms: C_3  and  C_4
REMARK    3  A    between atoms: C_8  and  O_9
REMARK                            x       y       z     vdW  Elec       q    Type
REMARK                         _______ _______ _______ _____ _____    ______ ____
ROOT
ATOM      1  C   UNL     1       3.425   3.695  18.813  0.00  0.00    +0.000 C 
ATOM      2  C   UNL     1       3.133   5.008  19.575  0.00  0.00    +0.000 C 
ATOM      3  C   UNL     1       2.291   4.801  20.834  0.00  0.00    +0.000 C 
ATOM      4  C   UNL     1       1.003   4.040  20.549  0.00  0.00    +0.000 C 
ATOM      5  C   UNL     1       1.265   2.735  19.806  0.00  0.00    +0.000 C 
ATOM      6  C   UNL     1       2.080   2.971  18.534  0.00  0.00    +0.000 C 
ENDROOT
BRANCH   1   7
ATOM      7  C   UNL     1       4.161   3.999  17.489  0.00  0.00    +0.000 C 
ATOM      8  O   UNL     1       3.645   3.774  16.391  0.00  0.00    +0.000 OA
ATOM      9  N   UNL     1       5.422   4.525  17.566  0.00  0.00    +0.000 N 
ATOM     10  C   UNL     1       6.377   4.816  16.506  0.00  0.00    +0.000 C 
ATOM     11  C   UNL     1       7.395   5.058  17.645  0.00  0.00    +0.000 C 
ATOM     12  C   UNL     1       6.180   5.245  18.574  0.00  0.00    +0.000 C 
BRANCH  11  13
ATOM     13  O   UNL     1       8.287   3.966  17.973  0.00  0.00    +0.000 OA
ATOM     14  H   UNL     1       7.706   3.239  18.263  0.00  0.00    +0.000 HD
ENDBRANCH  11  13
ENDBRANCH   1   7
BRANCH   1  16
ATOM     15  N   UNL     1       4.965   2.059  20.212  0.00  0.00    +0.000 NA
ATOM     16  C   UNL     1       4.297   2.782  19.600  0.00  0.00    +0.000 C 
ENDBRANCH   1  16
TORSDOF 3
ENDMDL
MODEL 2
REMARK VINA RESULT:      -6.4      2.550      4.931
REMARK  Name = 
REMARK  3 active torsions:
REMARK  status: ('A' for Active; 'I' for Inactive)
REMARK    1  A    between atoms: C_2  and  C_3
REMARK    2  A    between atoms: C_3  and  C_4
REMARK    3  A    between atoms: C_8  and  O_9
REMARK                            x       y       z     vdW  Elec       q    Type
REMARK                         _______ _______ _______ _____ _____    ______ ____
ROOT
ATOM      1  C   UNL     1       4.126   5.393  18.168  0.00  0.00    +0.000 C 
ATOM      2  C   UNL     1       3.935   4.239  17.157  0.00  0.00    +0.000 C 
ATOM      3  C   UNL     1       5.073   4.132  16.142  0.00  0.00    +0.000 C 
ATOM      4  C   UNL     1       5.330   5.448  15.421  0.00  0.00    +0.000 C 
ATOM      5  C   UNL     1       5.531   6.602  16.398  0.00  0.00    +0.000 C 
ATOM      6  C   UNL     1       4.365   6.710  17.381  0.00  0.00    +0.000 C 
ENDROOT
BRANCH   1   7
ATOM      7  C   UNL     1       2.879   5.523  19.071  0.00  0.00    +0.000 C 
ATOM      8  O   UNL     1       2.301   6.600  19.233  0.00  0.00    +0.000 OA
ATOM      9  N   UNL     1       2.429   4.394  19.703  0.00  0.00    +0.000 N 
ATOM     10  C   UNL     1       1.356   4.235  20.674  0.00  0.00    +0.000 C 
ATOM     11  C   UNL     1       1.894   2.797  20.864  0.00  0.00    +0.000 C 
ATOM     12  C   UNL     1       2.575   2.966  19.492  0.00  0.00    +0.000 C 
BRANCH  11  13
ATOM     13  O   UNL     1       2.773   2.567  21.990  0.00  0.00    +0.000 OA
ATOM     14  H   UNL     1       2.368   3.049  22.735  0.00  0.00    +0.000 HD
ENDBRANCH  11  13
ENDBRANCH   1   7
BRANCH   1  16
ATOM     15  N   UNL     1       6.206   4.991  19.753  0.00  0.00    +0.000 NA
ATOM     16  C   UNL     1       5.292   5.159  19.061  0.00  0.00    +0.000 C 
ENDBRANCH   1  16
TORSDOF 3
ENDMDL
MODEL 3
REMARK VINA RESULT:      -6.4      2.230      5.090
REMARK  Name = 
REMARK  3 active torsions:
REMARK  status: ('A' for Active; 'I' for Inactive)
REMARK    1  A    between atoms: C_2  and  C_3
REMARK    2  A    between atoms: C_3  and  C_4
REMARK    3  A    between atoms: C_8  and  O_9
REMARK                            x       y       z     vdW  Elec       q    Type
REMARK                         _______ _______ _______ _____ _____    ______ ____
ROOT
ATOM      1  C   UNL     1       6.088   5.244  17.510  0.00  0.00    +0.000 C 
ATOM      2  C   UNL     1       6.690   4.173  16.571  0.00  0.00    +0.000 C 
ATOM      3  C   UNL     1       6.974   4.696  15.163  0.00  0.00    +0.000 C 
ATOM      4  C   UNL     1       5.751   5.347  14.531  0.00  0.00    +0.000 C 
ATOM      5  C   UNL     1       5.143   6.415  15.434  0.00  0.00    +0.000 C 
ATOM      6  C   UNL     1       4.837   5.860  16.826  0.00  0.00    +0.000 C 
ENDROOT
BRANCH   1   7
ATOM      7  C   UNL     1       5.705   4.610  18.866  0.00  0.00    +0.000 C 
ATOM      8  O   UNL     1       6.204   4.991  19.927  0.00  0.00    +0.000 OA
ATOM      9  N   UNL     1       4.787   3.593  18.858  0.00  0.00    +0.000 N 
ATOM     10  C   UNL     1       4.315   2.756  19.951  0.00  0.00    +0.000 C 
ATOM     11  C   UNL     1       3.630   1.907  18.855  0.00  0.00    +0.000 C 
ATOM     12  C   UNL     1       3.754   3.143  17.943  0.00  0.00    +0.000 C 
BRANCH  11  13
ATOM     13  O   UNL     1       4.326   0.717  18.414  0.00  0.00    +0.000 OA
ATOM     14  H   UNL     1       4.764   0.970  17.580  0.00  0.00    +0.000 HD
ENDBRANCH  11  13
ENDBRANCH   1   7
BRANCH   1  16
ATOM     15  N   UNL     1       7.823   7.179  18.011  0.00  0.00    +0.000 NA
ATOM     16  C   UNL     1       7.056   6.337  17.794  0.00  0.00    +0.000 C 
ENDBRANCH   1  16
TORSDOF 3
ENDMDL
MODEL 4
REMARK VINA RESULT:      -6.3      1.054      1.213
REMARK  Name = 
REMARK  3 active torsions:
REMARK  status: ('A' for Active; 'I' for Inactive)
REMARK    1  A    between atoms: C_2  and  C_3
REMARK    2  A    between atoms: C_3  and  C_4
REMARK    3  A    between atoms: C_8  and  O_9
REMARK                            x       y       z     vdW  Elec       q    Type
REMARK                         _______ _______ _______ _____ _____    ______ ____
ROOT
ATOM      1  C   UNL     1       3.859   3.457  18.523  0.00  0.00    +0.000 C 
ATOM      2  C   UNL     1       3.049   4.658  19.065  0.00  0.00    +0.000 C 
ATOM      3  C   UNL     1       1.819   4.241  19.871  0.00  0.00    +0.000 C 
ATOM      4  C   UNL     1       0.921   3.282  19.101  0.00  0.00    +0.000 C 
ATOM      5  C   UNL     1       1.695   2.083  18.563  0.00  0.00    +0.000 C 
ATOM      6  C   UNL     1       2.901   2.524  17.734  0.00  0.00    +0.000 C 
ENDROOT
BRANCH   1   7
ATOM      7  C   UNL     1       5.003   3.953  17.611  0.00  0.00    +0.000 C 
ATOM      8  O   UNL     1       5.102   3.594  16.436  0.00  0.00    +0.000 OA
ATOM      9  N   UNL     1       5.924   4.810  18.153  0.00  0.00    +0.000 N 
ATOM     10  C   UNL     1       7.143   5.355  17.573  0.00  0.00    +0.000 C 
ATOM     11  C   UNL     1       7.456   5.871  18.997  0.00  0.00    +0.000 C 
ATOM     12  C   UNL     1       5.951   5.712  19.290  0.00  0.00    +0.000 C 
BRANCH  11  13
ATOM     13  O   UNL     1       8.351   5.070  19.805  0.00  0.00    +0.000 OA
ATOM     14  H   UNL     1       8.809   5.705  20.387  0.00  0.00    +0.000 HD
ENDBRANCH  11  13
ENDBRANCH   1   7
BRANCH   1  16
ATOM     15  N   UNL     1       4.959   2.046  20.474  0.00  0.00    +0.000 NA
ATOM     16  C   UNL     1       4.483   2.671  19.622  0.00  0.00    +0.000 C 
ENDBRANCH   1  16
TORSDOF 3
ENDMDL
MODEL 5
REMARK VINA RESULT:      -6.2      2.049      2.278
REMARK  Name = 
REMARK  3 active torsions:
REMARK  status: ('A' for Active; 'I' for Inactive)
REMARK    1  A    between atoms: C_2  and  C_3
REMARK    2  A    between atoms: C_3  and  C_4
REMARK    3  A    between atoms: C_8  and  O_9
REMARK                            x       y       z     vdW  Elec       q    Type
REMARK                         _______ _______ _______ _____ _____    ______ ____
ROOT
ATOM      1  C   UNL     1       3.228   4.355  18.294  0.00  0.00    +0.000 C 
ATOM      2  C   UNL     1       2.095   4.915  19.184  0.00  0.00    +0.000 C 
ATOM      3  C   UNL     1       1.326   3.830  19.936  0.00  0.00    +0.000 C 
ATOM      4  C   UNL     1       0.801   2.743  19.006  0.00  0.00    +0.000 C 
ATOM      5  C   UNL     1       1.903   2.168  18.123  0.00  0.00    +0.000 C 
ATOM      6  C   UNL     1       2.636   3.268  17.356  0.00  0.00    +0.000 C 
ENDROOT
BRANCH   1   7
ATOM      7  C   UNL     1       3.869   5.492  17.466  0.00  0.00    +0.000 C 
ATOM      8  O   UNL     1       3.563   6.675  17.639  0.00  0.00    +0.000 OA
ATOM      9  N   UNL     1       4.793   5.147  16.517  0.00  0.00    +0.000 N 
ATOM     10  C   UNL     1       5.478   5.979  15.538  0.00  0.00    +0.000 C 
ATOM     11  C   UNL     1       5.971   4.649  14.921  0.00  0.00    +0.000 C 
ATOM     12  C   UNL     1       5.652   4.001  16.283  0.00  0.00    +0.000 C 
BRANCH  11  13
ATOM     13  O   UNL     1       5.236   4.139  13.784  0.00  0.00    +0.000 OA
ATOM     14  H   UNL     1       5.059   4.917  13.223  0.00  0.00    +0.000 HD
ENDBRANCH  11  13
ENDBRANCH   1   7
BRANCH   1  16
ATOM     15  N   UNL     1       5.164   3.273  19.739  0.00  0.00    +0.000 NA
ATOM     16  C   UNL     1       4.313   3.738  19.104  0.00  0.00    +0.000 C 
ENDBRANCH   1  16
TORSDOF 3
ENDMDL
MODEL 6
REMARK VINA RESULT:      -6.2      1.889      2.909
REMARK  Name = 
REMARK  3 active torsions:
REMARK  status: ('A' for Active; 'I' for Inactive)
REMARK    1  A    between atoms: C_2  and  C_3
REMARK    2  A    between atoms: C_3  and  C_4
REMARK    3  A    between atoms: C_8  and  O_9
REMARK                            x       y       z     vdW  Elec       q    Type
REMARK                         _______ _______ _______ _____ _____    ______ ____
ROOT
ATOM      1  C   UNL     1       3.681   4.824  18.794  0.00  0.00    +0.000 C 
ATOM      2  C   UNL     1       3.029   3.675  17.992  0.00  0.00    +0.000 C 
ATOM      3  C   UNL     1       1.505   3.649  18.106  0.00  0.00    +0.000 C 
ATOM      4  C   UNL     1       1.033   3.638  19.554  0.00  0.00    +0.000 C 
ATOM      5  C   UNL     1       1.656   4.769  20.364  0.00  0.00    +0.000 C 
ATOM      6  C   UNL     1       3.182   4.755  20.262  0.00  0.00    +0.000 C 
ENDROOT
BRANCH   1   7
ATOM      7  C   UNL     1       5.221   4.705  18.741  0.00  0.00    +0.000 C 
ATOM      8  O   UNL     1       5.915   4.768  19.759  0.00  0.00    +0.000 OA
ATOM      9  N   UNL     1       5.806   4.532  17.515  0.00  0.00    +0.000 N 
ATOM     10  C   UNL     1       7.215   4.487  17.152  0.00  0.00    +0.000 C 
ATOM     11  C   UNL     1       6.723   4.541  15.687  0.00  0.00    +0.000 C 
ATOM     12  C   UNL     1       5.361   4.054  16.218  0.00  0.00    +0.000 C 
BRANCH  11  13
ATOM     13  O   UNL     1       6.730   5.834  15.038  0.00  0.00    +0.000 OA
ATOM     14  H   UNL     1       7.116   6.447  15.691  0.00  0.00    +0.000 HD
ENDBRANCH  11  13
ENDBRANCH   1   7
BRANCH   1  16
ATOM     15  N   UNL     1       3.056   7.203  17.816  0.00  0.00    +0.000 NA
ATOM     16  C   UNL     1       3.325   6.157  18.237  0.00  0.00    +0.000 C 
ENDBRANCH   1  16
TORSDOF 3
ENDMDL
MODEL 7
REMARK VINA RESULT:      -6.1      2.109      4.796
REMARK  Name = 
REMARK  3 active torsions:
REMARK  status: ('A' for Active; 'I' for Inactive)
REMARK    1  A    between atoms: C_2  and  C_3
REMARK    2  A    between atoms: C_3  and  C_4
REMARK    3  A    between atoms: C_8  and  O_9
REMARK                            x       y       z     vdW  Elec       q    Type
REMARK                         _______ _______ _______ _____ _____    ______ ____
ROOT
ATOM      1  C   UNL     1       4.574   4.397  17.802  0.00  0.00    +0.000 C 
ATOM      2  C   UNL     1       5.207   4.153  16.413  0.00  0.00    +0.000 C 
ATOM      3  C   UNL     1       5.899   5.390  15.840  0.00  0.00    +0.000 C 
ATOM      4  C   UNL     1       4.981   6.605  15.813  0.00  0.00    +0.000 C 
ATOM      5  C   UNL     1       4.351   6.873  17.175  0.00  0.00    +0.000 C 
ATOM      6  C   UNL     1       3.637   5.633  17.713  0.00  0.00    +0.000 C 
ENDROOT
BRANCH   1   7
ATOM      7  C   UNL     1       3.782   3.150  18.255  0.00  0.00    +0.000 C 
ATOM      8  O   UNL     1       3.858   2.077  17.652  0.00  0.00    +0.000 OA
ATOM      9  N   UNL     1       2.975   3.271  19.354  0.00  0.00    +0.000 N 
ATOM     10  C   UNL     1       2.053   2.311  19.943  0.00  0.00    +0.000 C 
ATOM     11  C   UNL     1       1.567   3.488  20.822  0.00  0.00    +0.000 C 
ATOM     12  C   UNL     1       2.906   4.174  20.488  0.00  0.00    +0.000 C 
BRANCH  11  13
ATOM     13  O   UNL     1       0.371   4.179  20.391  0.00  0.00    +0.000 OA
ATOM     14  H   UNL     1      -0.345   3.520  20.458  0.00  0.00    +0.000 HD
ENDBRANCH  11  13
ENDBRANCH   1   7
BRANCH   1  16
ATOM     15  N   UNL     1       6.398   4.877  19.659  0.00  0.00    +0.000 NA
ATOM     16  C   UNL     1       5.606   4.662  18.841  0.00  0.00    +0.000 C 
ENDBRANCH   1  16
TORSDOF 3
ENDMDL
MODEL 8
REMARK VINA RESULT:      -6.1      2.444      5.018
REMARK  Name = 
REMARK  3 active torsions:
REMARK  status: ('A' for Active; 'I' for Inactive)
REMARK    1  A    between atoms: C_2  and  C_3
REMARK    2  A    between atoms: C_3  and  C_4
REMARK    3  A    between atoms: C_8  and  O_9
REMARK                            x       y       z     vdW  Elec       q    Type
REMARK                         _______ _______ _______ _____ _____    ______ ____
ROOT
ATOM      1  C   UNL     1       4.538   5.138  18.237  0.00  0.00    +0.000 C 
ATOM      2  C   UNL     1       4.588   3.916  17.291  0.00  0.00    +0.000 C 
ATOM      3  C   UNL     1       5.629   4.055  16.180  0.00  0.00    +0.000 C 
ATOM      4  C   UNL     1       5.464   5.348  15.392  0.00  0.00    +0.000 C 
ATOM      5  C   UNL     1       5.421   6.570  16.303  0.00  0.00    +0.000 C 
ATOM      6  C   UNL     1       4.351   6.422  17.384  0.00  0.00    +0.000 C 
ENDROOT
BRANCH   1   7
ATOM      7  C   UNL     1       3.377   4.985  19.246  0.00  0.00    +0.000 C 
ATOM      8  O   UNL     1       3.358   5.600  20.314  0.00  0.00    +0.000 OA
ATOM      9  N   UNL     1       2.359   4.129  18.920  0.00  0.00    +0.000 N 
ATOM     10  C   UNL     1       1.203   3.716  19.704  0.00  0.00    +0.000 C 
ATOM     11  C   UNL     1       0.965   2.669  18.590  0.00  0.00    +0.000 C 
ATOM     12  C   UNL     1       1.846   3.556  17.689  0.00  0.00    +0.000 C 
BRANCH  11  13
ATOM     13  O   UNL     1       1.449   1.328  18.835  0.00  0.00    +0.000 OA
ATOM     14  H   UNL     1       1.175   1.118  19.747  0.00  0.00    +0.000 HD
ENDBRANCH  11  13
ENDBRANCH   1   7
BRANCH   1  16
ATOM     15  N   UNL     1       6.772   5.394  19.633  0.00  0.00    +0.000 NA
ATOM     16  C   UNL     1       5.791   5.276  19.028  0.00  0.00    +0.000 C 
ENDBRANCH   1  16
TORSDOF 3
ENDMDL
MODEL 9
REMARK VINA RESULT:      -6.1      2.074      4.977
REMARK  Name = 
REMARK  3 active torsions:
REMARK  status: ('A' for Active; 'I' for Inactive)
REMARK    1  A    between atoms: C_2  and  C_3
REMARK    2  A    between atoms: C_3  and  C_4
REMARK    3  A    between atoms: C_8  and  O_9
REMARK                            x       y       z     vdW  Elec       q    Type
REMARK                         _______ _______ _______ _____ _____    ______ ____
ROOT
ATOM      1  C   UNL     1       5.344   4.578  17.867  0.00  0.00    +0.000 C 
ATOM      2  C   UNL     1       4.964   3.964  16.500  0.00  0.00    +0.000 C 
ATOM      3  C   UNL     1       5.484   4.770  15.310  0.00  0.00    +0.000 C 
ATOM      4  C   UNL     1       5.074   6.235  15.380  0.00  0.00    +0.000 C 
ATOM      5  C   UNL     1       5.446   6.867  16.717  0.00  0.00    +0.000 C 
ATOM      6  C   UNL     1       4.887   6.062  17.890  0.00  0.00    +0.000 C 
ENDROOT
BRANCH   1   7
ATOM      7  C   UNL     1       4.672   3.788  19.012  0.00  0.00    +0.000 C 
ATOM      8  O   UNL     1       5.329   3.127  19.820  0.00  0.00    +0.000 OA
ATOM      9  N   UNL     1       3.307   3.835  19.105  0.00  0.00    +0.000 N 
ATOM     10  C   UNL     1       2.409   3.126  20.005  0.00  0.00    +0.000 C 
ATOM     11  C   UNL     1       1.268   3.669  19.112  0.00  0.00    +0.000 C 
ATOM     12  C   UNL     1       2.271   4.735  18.631  0.00  0.00    +0.000 C 
BRANCH  11  13
ATOM     13  O   UNL     1       0.747   2.778  18.097  0.00  0.00    +0.000 OA
ATOM     14  H   UNL     1      -0.134   3.132  17.873  0.00  0.00    +0.000 HD
ENDBRANCH  11  13
ENDBRANCH   1   7
BRANCH   1  16
ATOM     15  N   UNL     1       7.956   4.514  18.288  0.00  0.00    +0.000 NA
ATOM     16  C   UNL     1       6.811   4.533  18.104  0.00  0.00    +0.000 C 
ENDBRANCH   1  16
TORSDOF 3
ENDMDL
