MODEL 1
REMARK VINA RESULT:      -6.8      0.000      0.000
REMARK  Name = 
REMARK  4 active torsions:
REMARK  status: ('A' for Active; 'I' for Inactive)
REMARK    1  A    between atoms: N_8  and  C_9
REMARK    2  A    between atoms: C_9  and  C_10
REMARK    3  A    between atoms: N_18  and  C_19
REMARK    4  A    between atoms: C_19  and  C_20
REMARK                            x       y       z     vdW  Elec       q    Type
REMARK                         _______ _______ _______ _____ _____    ______ ____
ROOT
ATOM      1  O   UNL     1       1.314   5.590  20.807  0.00  0.00    +0.000 OA
ATOM      2  C   UNL     1       2.308   5.413  20.103  0.00  0.00    +0.000 C 
ATOM      3  C   UNL     1       2.903   6.589  19.319  0.00  0.00    +0.000 C 
ATOM      4  O   UNL     1       4.308   6.603  19.220  0.00  0.00    +0.000 OA
ATOM      5  C   UNL     1       4.852   5.340  18.793  0.00  0.00    +0.000 C 
ATOM      6  C   UNL     1       4.358   4.960  17.381  0.00  0.00    +0.000 C 
ATOM      7  C   UNL     1       4.843   5.962  16.338  0.00  0.00    +0.000 C 
ATOM      8  N   UNL     1       6.306   6.100  16.333  0.00  0.00    +0.000 NA
ATOM      9  C   UNL     1       6.758   6.542  17.667  0.00  0.00    +0.000 C 
ATOM     10  C   UNL     1       6.373   5.568  18.792  0.00  0.00    +0.000 C 
ATOM     11  C   UNL     1       4.428   4.250  19.802  0.00  0.00    +0.000 C 
ATOM     12  N   UNL     1       2.966   4.187  19.969  0.00  0.00    +0.000 N 
ENDROOT
BRANCH   8  13
ATOM     13  C   UNL     1       6.956   4.849  15.881  0.00  0.00    +0.000 C 
BRANCH  13  14
ATOM     14  C   UNL     1       7.170   4.795  14.396  0.00  0.00    +0.000 A 
ATOM     15  N   UNL     1       8.028   5.564  13.751  0.00  0.00    +0.000 NA
ATOM     16  C   UNL     1       7.900   5.358  12.397  0.00  0.00    +0.000 A 
ATOM     17  C   UNL     1       7.002   4.383  12.027  0.00  0.00    +0.000 A 
ATOM     18  S   UNL     1       6.254   3.719  13.418  0.00  0.00    +0.000 S 
ENDBRANCH  13  14
ENDBRANCH   8  13
BRANCH  12  19
ATOM     19  C   UNL     1       2.398   3.068  20.712  0.00  0.00    +0.000 C 
BRANCH  19  20
ATOM     20  C   UNL     1       1.565   2.148  19.873  0.00  0.00    +0.000 C 
ATOM     21  C   UNL     1       0.823   2.552  18.621  0.00  0.00    +0.000 C 
ATOM     22  C   UNL     1       2.115   1.788  18.506  0.00  0.00    +0.000 C 
ENDBRANCH  19  20
ENDBRANCH  12  19
TORSDOF 4
ENDMDL
MODEL 2
REMARK VINA RESULT:      -6.6      0.895      1.001
REMARK  Name = 
REMARK  4 active torsions:
REMARK  status: ('A' for Active; 'I' for Inactive)
REMARK    1  A    between atoms: N_8  and  C_9
REMARK    2  A    between atoms: C_9  and  C_10
REMARK    3  A    between atoms: N_18  and  C_19
REMARK    4  A    between atoms: C_19  and  C_20
REMARK                            x       y       z     vdW  Elec       q    Type
REMARK                         _______ _______ _______ _____ _____    ______ ____
ROOT
ATOM      1  O   UNL     1       1.459   5.985  20.598  0.00  0.00    +0.000 OA
ATOM      2  C   UNL     1       2.437   5.735  19.891  0.00  0.00    +0.000 C 
ATOM      3  C   UNL     1       3.046   6.840  19.020  0.00  0.00    +0.000 C 
ATOM      4  O   UNL     1       4.450   6.811  18.898  0.00  0.00    +0.000 OA
ATOM      5  C   UNL     1       4.954   5.508  18.549  0.00  0.00    +0.000 C 
ATOM      6  C   UNL     1       4.427   5.046  17.174  0.00  0.00    +0.000 C 
ATOM      7  C   UNL     1       4.918   5.963  16.058  0.00  0.00    +0.000 C 
ATOM      8  N   UNL     1       6.384   6.063  16.021  0.00  0.00    +0.000 NA
ATOM      9  C   UNL     1       6.870   6.581  17.315  0.00  0.00    +0.000 C 
ATOM     10  C   UNL     1       6.481   5.696  18.509  0.00  0.00    +0.000 C 
ATOM     11  C   UNL     1       4.522   4.500  19.636  0.00  0.00    +0.000 C 
ATOM     12  N   UNL     1       3.062   4.486  19.831  0.00  0.00    +0.000 N 
ENDROOT
BRANCH   8  13
ATOM     13  C   UNL     1       6.994   4.767  15.644  0.00  0.00    +0.000 C 
BRANCH  13  14
ATOM     14  C   UNL     1       6.865   4.453  14.182  0.00  0.00    +0.000 A 
ATOM     15  N   UNL     1       6.005   3.577  13.695  0.00  0.00    +0.000 NA
ATOM     16  C   UNL     1       6.217   3.430  12.343  0.00  0.00    +0.000 A 
ATOM     17  C   UNL     1       7.182   4.249  11.801  0.00  0.00    +0.000 A 
ATOM     18  S   UNL     1       7.884   5.215  13.029  0.00  0.00    +0.000 S 
ENDBRANCH  13  14
ENDBRANCH   8  13
BRANCH  12  19
ATOM     19  C   UNL     1       2.479   3.435  20.657  0.00  0.00    +0.000 C 
BRANCH  19  20
ATOM     20  C   UNL     1       1.523   2.548  19.918  0.00  0.00    +0.000 C 
ATOM     21  C   UNL     1       1.013   2.800  18.520  0.00  0.00    +0.000 C 
ATOM     22  C   UNL     1       2.086   1.769  18.745  0.00  0.00    +0.000 C 
ENDBRANCH  19  20
ENDBRANCH  12  19
TORSDOF 4
ENDMDL
MODEL 3
REMARK VINA RESULT:      -6.3      2.779      6.850
REMARK  Name = 
REMARK  4 active torsions:
REMARK  status: ('A' for Active; 'I' for Inactive)
REMARK    1  A    between atoms: N_8  and  C_9
REMARK    2  A    between atoms: C_9  and  C_10
REMARK    3  A    between atoms: N_18  and  C_19
REMARK    4  A    between atoms: C_19  and  C_20
REMARK                            x       y       z     vdW  Elec       q    Type
REMARK                         _______ _______ _______ _____ _____    ______ ____
ROOT
ATOM      1  O   UNL     1       8.141   5.851  13.114  0.00  0.00    +0.000 OA
ATOM      2  C   UNL     1       7.440   5.458  14.047  0.00  0.00    +0.000 C 
ATOM      3  C   UNL     1       7.464   6.209  15.384  0.00  0.00    +0.000 C 
ATOM      4  O   UNL     1       6.230   6.285  16.060  0.00  0.00    +0.000 OA
ATOM      5  C   UNL     1       5.573   5.009  16.169  0.00  0.00    +0.000 C 
ATOM      6  C   UNL     1       6.413   4.007  16.990  0.00  0.00    +0.000 C 
ATOM      7  C   UNL     1       6.582   4.480  18.431  0.00  0.00    +0.000 C 
ATOM      8  N   UNL     1       5.294   4.713  19.098  0.00  0.00    +0.000 NA
ATOM      9  C   UNL     1       4.534   5.732  18.347  0.00  0.00    +0.000 C 
ATOM     10  C   UNL     1       4.252   5.328  16.891  0.00  0.00    +0.000 C 
ATOM     11  C   UNL     1       5.337   4.447  14.749  0.00  0.00    +0.000 C 
ATOM     12  N   UNL     1       6.587   4.353  13.976  0.00  0.00    +0.000 N 
ENDROOT
BRANCH   8  13
ATOM     13  C   UNL     1       4.552   3.444  19.277  0.00  0.00    +0.000 C 
BRANCH  13  14
ATOM     14  C   UNL     1       3.117   3.646  19.670  0.00  0.00    +0.000 A 
ATOM     15  N   UNL     1       2.740   4.285  20.763  0.00  0.00    +0.000 NA
ATOM     16  C   UNL     1       1.375   4.194  20.898  0.00  0.00    +0.000 A 
ATOM     17  C   UNL     1       0.717   3.553  19.873  0.00  0.00    +0.000 A 
ATOM     18  S   UNL     1       1.847   3.006  18.707  0.00  0.00    +0.000 S 
ENDBRANCH  13  14
ENDBRANCH   8  13
BRANCH  12  19
ATOM     19  C   UNL     1       6.567   3.637  12.705  0.00  0.00    +0.000 C 
BRANCH  19  20
ATOM     20  C   UNL     1       5.274   2.930  12.432  0.00  0.00    +0.000 C 
ATOM     21  C   UNL     1       4.309   3.287  11.327  0.00  0.00    +0.000 C 
ATOM     22  C   UNL     1       5.212   2.092  11.169  0.00  0.00    +0.000 C 
ENDBRANCH  19  20
ENDBRANCH  12  19
TORSDOF 4
ENDMDL
MODEL 4
REMARK VINA RESULT:      -6.1      0.777      1.295
REMARK  Name = 
REMARK  4 active torsions:
REMARK  status: ('A' for Active; 'I' for Inactive)
REMARK    1  A    between atoms: N_8  and  C_9
REMARK    2  A    between atoms: C_9  and  C_10
REMARK    3  A    between atoms: N_18  and  C_19
REMARK    4  A    between atoms: C_19  and  C_20
REMARK                            x       y       z     vdW  Elec       q    Type
REMARK                         _______ _______ _______ _____ _____    ______ ____
ROOT
ATOM      1  O   UNL     1       1.012   5.485  19.684  0.00  0.00    +0.000 OA
ATOM      2  C   UNL     1       2.107   5.344  19.139  0.00  0.00    +0.000 C 
ATOM      3  C   UNL     1       2.860   6.574  18.617  0.00  0.00    +0.000 C 
ATOM      4  O   UNL     1       4.261   6.532  18.755  0.00  0.00    +0.000 OA
ATOM      5  C   UNL     1       4.835   5.304  18.272  0.00  0.00    +0.000 C 
ATOM      6  C   UNL     1       4.580   5.116  16.761  0.00  0.00    +0.000 C 
ATOM      7  C   UNL     1       5.263   6.209  15.946  0.00  0.00    +0.000 C 
ATOM      8  N   UNL     1       6.709   6.276  16.202  0.00  0.00    +0.000 NA
ATOM      9  C   UNL     1       6.937   6.536  17.637  0.00  0.00    +0.000 C 
ATOM     10  C   UNL     1       6.339   5.457  18.553  0.00  0.00    +0.000 C 
ATOM     11  C   UNL     1       4.215   4.124  19.053  0.00  0.00    +0.000 C 
ATOM     12  N   UNL     1       2.745   4.112  18.966  0.00  0.00    +0.000 N 
ENDROOT
BRANCH   8  13
ATOM     13  C   UNL     1       7.392   5.057  15.713  0.00  0.00    +0.000 C 
BRANCH  13  14
ATOM     14  C   UNL     1       7.355   4.915  14.218  0.00  0.00    +0.000 A 
ATOM     15  N   UNL     1       8.073   5.657  13.395  0.00  0.00    +0.000 NA
ATOM     16  C   UNL     1       7.725   5.366  12.096  0.00  0.00    +0.000 A 
ATOM     17  C   UNL     1       6.803   4.356  11.939  0.00  0.00    +0.000 A 
ATOM     18  S   UNL     1       6.317   3.768  13.473  0.00  0.00    +0.000 S 
ENDBRANCH  13  14
ENDBRANCH   8  13
BRANCH  12  19
ATOM     19  C   UNL     1       2.028   2.942  19.459  0.00  0.00    +0.000 C 
BRANCH  19  20
ATOM     20  C   UNL     1       2.407   2.546  20.854  0.00  0.00    +0.000 C 
ATOM     21  C   UNL     1       2.216   3.405  22.080  0.00  0.00    +0.000 C 
ATOM     22  C   UNL     1       1.267   2.267  21.815  0.00  0.00    +0.000 C 
ENDBRANCH  19  20
ENDBRANCH  12  19
TORSDOF 4
ENDMDL
MODEL 5
REMARK VINA RESULT:      -5.9      3.747      7.318
REMARK  Name = 
REMARK  4 active torsions:
REMARK  status: ('A' for Active; 'I' for Inactive)
REMARK    1  A    between atoms: N_8  and  C_9
REMARK    2  A    between atoms: C_9  and  C_10
REMARK    3  A    between atoms: N_18  and  C_19
REMARK    4  A    between atoms: C_19  and  C_20
REMARK                            x       y       z     vdW  Elec       q    Type
REMARK                         _______ _______ _______ _____ _____    ______ ____
ROOT
ATOM      1  O   UNL     1       5.790   3.520  15.842  0.00  0.00    +0.000 OA
ATOM      2  C   UNL     1       5.219   4.102  16.765  0.00  0.00    +0.000 C 
ATOM      3  C   UNL     1       3.697   3.985  16.910  0.00  0.00    +0.000 C 
ATOM      4  O   UNL     1       3.216   3.933  18.234  0.00  0.00    +0.000 OA
ATOM      5  C   UNL     1       3.760   4.973  19.067  0.00  0.00    +0.000 C 
ATOM      6  C   UNL     1       3.363   6.374  18.556  0.00  0.00    +0.000 C 
ATOM      7  C   UNL     1       1.852   6.578  18.620  0.00  0.00    +0.000 C 
ATOM      8  N   UNL     1       1.317   6.371  19.972  0.00  0.00    +0.000 NA
ATOM      9  C   UNL     1       1.634   5.000  20.418  0.00  0.00    +0.000 C 
ATOM     10  C   UNL     1       3.142   4.706  20.451  0.00  0.00    +0.000 C 
ATOM     11  C   UNL     1       5.299   4.844  19.085  0.00  0.00    +0.000 C 
ATOM     12  N   UNL     1       5.873   4.875  17.728  0.00  0.00    +0.000 N 
ENDROOT
BRANCH   8  13
ATOM     13  C   UNL     1       1.806   7.416  20.902  0.00  0.00    +0.000 C 
BRANCH  13  14
ATOM     14  C   UNL     1       0.985   8.673  20.866  0.00  0.00    +0.000 A 
ATOM     15  N   UNL     1       1.120   9.609  19.945  0.00  0.00    +0.000 NA
ATOM     16  C   UNL     1       0.315  10.679  20.259  0.00  0.00    +0.000 A 
ATOM     17  C   UNL     1      -0.480  10.519  21.371  0.00  0.00    +0.000 A 
ATOM     18  S   UNL     1      -0.187   8.987  22.081  0.00  0.00    +0.000 S 
ENDBRANCH  13  14
ENDBRANCH   8  13
BRANCH  12  19
ATOM     19  C   UNL     1       7.320   4.989  17.588  0.00  0.00    +0.000 C 
BRANCH  19  20
ATOM     20  C   UNL     1       7.787   6.374  17.255  0.00  0.00    +0.000 C 
ATOM     21  C   UNL     1       6.991   7.635  17.491  0.00  0.00    +0.000 C 
ATOM     22  C   UNL     1       8.116   7.279  18.426  0.00  0.00    +0.000 C 
ENDBRANCH  19  20
ENDBRANCH  12  19
TORSDOF 4
ENDMDL
MODEL 6
REMARK VINA RESULT:      -5.9      1.761      3.227
REMARK  Name = 
REMARK  4 active torsions:
REMARK  status: ('A' for Active; 'I' for Inactive)
REMARK    1  A    between atoms: N_8  and  C_9
REMARK    2  A    between atoms: C_9  and  C_10
REMARK    3  A    between atoms: N_18  and  C_19
REMARK    4  A    between atoms: C_19  and  C_20
REMARK                            x       y       z     vdW  Elec       q    Type
REMARK                         _______ _______ _______ _____ _____    ______ ____
ROOT
ATOM      1  O   UNL     1       2.147   3.963  21.957  0.00  0.00    +0.000 OA
ATOM      2  C   UNL     1       2.698   4.181  20.877  0.00  0.00    +0.000 C 
ATOM      3  C   UNL     1       3.746   3.196  20.347  0.00  0.00    +0.000 C 
ATOM      4  O   UNL     1       3.746   3.003  18.951  0.00  0.00    +0.000 OA
ATOM      5  C   UNL     1       3.747   4.240  18.216  0.00  0.00    +0.000 C 
ATOM      6  C   UNL     1       5.019   5.067  18.501  0.00  0.00    +0.000 C 
ATOM      7  C   UNL     1       6.272   4.335  18.030  0.00  0.00    +0.000 C 
ATOM      8  N   UNL     1       6.213   3.989  16.603  0.00  0.00    +0.000 NA
ATOM      9  C   UNL     1       5.037   3.132  16.357  0.00  0.00    +0.000 C 
ATOM     10  C   UNL     1       3.708   3.799  16.742  0.00  0.00    +0.000 C 
ATOM     11  C   UNL     1       2.497   5.056  18.612  0.00  0.00    +0.000 C 
ATOM     12  N   UNL     1       2.422   5.285  20.065  0.00  0.00    +0.000 N 
ENDROOT
BRANCH   8  13
ATOM     13  C   UNL     1       6.235   5.207  15.761  0.00  0.00    +0.000 C 
BRANCH  13  14
ATOM     14  C   UNL     1       6.787   4.968  14.385  0.00  0.00    +0.000 A 
ATOM     15  N   UNL     1       7.864   5.568  13.914  0.00  0.00    +0.000 NA
ATOM     16  C   UNL     1       8.036   5.229  12.592  0.00  0.00    +0.000 A 
ATOM     17  C   UNL     1       7.135   4.317  12.090  0.00  0.00    +0.000 A 
ATOM     18  S   UNL     1       6.001   3.891  13.302  0.00  0.00    +0.000 S 
ENDBRANCH  13  14
ENDBRANCH   8  13
BRANCH  12  19
ATOM     19  C   UNL     1       1.428   6.224  20.571  0.00  0.00    +0.000 C 
BRANCH  19  20
ATOM     20  C   UNL     1       1.875   7.654  20.535  0.00  0.00    +0.000 C 
ATOM     21  C   UNL     1       0.991   8.828  20.190  0.00  0.00    +0.000 C 
ATOM     22  C   UNL     1       1.344   8.560  21.629  0.00  0.00    +0.000 C 
ENDBRANCH  19  20
ENDBRANCH  12  19
TORSDOF 4
ENDMDL
MODEL 7
REMARK VINA RESULT:      -5.8      5.432      7.452
REMARK  Name = 
REMARK  4 active torsions:
REMARK  status: ('A' for Active; 'I' for Inactive)
REMARK    1  A    between atoms: N_8  and  C_9
REMARK    2  A    between atoms: C_9  and  C_10
REMARK    3  A    between atoms: N_18  and  C_19
REMARK    4  A    between atoms: C_19  and  C_20
REMARK                            x       y       z     vdW  Elec       q    Type
REMARK                         _______ _______ _______ _____ _____    ______ ____
ROOT
ATOM      1  O   UNL     1      -0.521  13.509  18.149  0.00  0.00    +0.000 OA
ATOM      2  C   UNL     1      -0.282  12.328  18.405  0.00  0.00    +0.000 C 
ATOM      3  C   UNL     1       1.078  11.941  18.999  0.00  0.00    +0.000 C 
ATOM      4  O   UNL     1       1.051  10.901  19.949  0.00  0.00    +0.000 OA
ATOM      5  C   UNL     1       0.312   9.751  19.498  0.00  0.00    +0.000 C 
ATOM      6  C   UNL     1       0.952   9.124  18.241  0.00  0.00    +0.000 C 
ATOM      7  C   UNL     1       2.350   8.592  18.540  0.00  0.00    +0.000 C 
ATOM      8  N   UNL     1       2.355   7.618  19.640  0.00  0.00    +0.000 NA
ATOM      9  C   UNL     1       1.815   8.254  20.857  0.00  0.00    +0.000 C 
ATOM     10  C   UNL     1       0.379   8.774  20.685  0.00  0.00    +0.000 C 
ATOM     11  C   UNL     1      -1.137  10.183  19.182  0.00  0.00    +0.000 C 
ATOM     12  N   UNL     1      -1.187  11.282  18.203  0.00  0.00    +0.000 N 
ENDROOT
BRANCH   8  13
ATOM     13  C   UNL     1       1.633   6.382  19.256  0.00  0.00    +0.000 C 
BRANCH  13  14
ATOM     14  C   UNL     1       2.525   5.339  18.646  0.00  0.00    +0.000 A 
ATOM     15  N   UNL     1       2.138   4.514  17.691  0.00  0.00    +0.000 NA
ATOM     16  C   UNL     1       3.140   3.607  17.436  0.00  0.00    +0.000 A 
ATOM     17  C   UNL     1       4.306   3.795  18.143  0.00  0.00    +0.000 A 
ATOM     18  S   UNL     1       4.137   5.133  19.199  0.00  0.00    +0.000 S 
ENDBRANCH  13  14
ENDBRANCH   8  13
BRANCH  12  19
ATOM     19  C   UNL     1      -2.478  11.650  17.635  0.00  0.00    +0.000 C 
BRANCH  19  20
ATOM     20  C   UNL     1      -2.662  11.205  16.216  0.00  0.00    +0.000 C 
ATOM     21  C   UNL     1      -2.856   9.774  15.776  0.00  0.00    +0.000 C 
ATOM     22  C   UNL     1      -4.040  10.702  15.834  0.00  0.00    +0.000 C 
ENDBRANCH  19  20
ENDBRANCH  12  19
TORSDOF 4
ENDMDL
MODEL 8
REMARK VINA RESULT:      -5.8      5.439      7.662
REMARK  Name = 
REMARK  4 active torsions:
REMARK  status: ('A' for Active; 'I' for Inactive)
REMARK    1  A    between atoms: N_8  and  C_9
REMARK    2  A    between atoms: C_9  and  C_10
REMARK    3  A    between atoms: N_18  and  C_19
REMARK    4  A    between atoms: C_19  and  C_20
REMARK                            x       y       z     vdW  Elec       q    Type
REMARK                         _______ _______ _______ _____ _____    ______ ____
ROOT
ATOM      1  O   UNL     1      -0.320  13.528  18.484  0.00  0.00    +0.000 OA
ATOM      2  C   UNL     1      -0.075  12.324  18.573  0.00  0.00    +0.000 C 
ATOM      3  C   UNL     1       1.295  11.864  19.085  0.00  0.00    +0.000 C 
ATOM      4  O   UNL     1       1.286  10.704  19.884  0.00  0.00    +0.000 OA
ATOM      5  C   UNL     1       0.539   9.624  19.294  0.00  0.00    +0.000 C 
ATOM      6  C   UNL     1       1.156   9.175  17.952  0.00  0.00    +0.000 C 
ATOM      7  C   UNL     1       2.560   8.612  18.151  0.00  0.00    +0.000 C 
ATOM      8  N   UNL     1       2.584   7.497  19.108  0.00  0.00    +0.000 NA
ATOM      9  C   UNL     1       2.066   7.960  20.410  0.00  0.00    +0.000 C 
ATOM     10  C   UNL     1       0.628   8.495  20.335  0.00  0.00    +0.000 C 
ATOM     11  C   UNL     1      -0.915  10.091  19.066  0.00  0.00    +0.000 C 
ATOM     12  N   UNL     1      -0.983  11.313  18.247  0.00  0.00    +0.000 N 
ENDROOT
BRANCH   8  13
ATOM     13  C   UNL     1       1.857   6.323  18.573  0.00  0.00    +0.000 C 
BRANCH  13  14
ATOM     14  C   UNL     1       2.260   5.029  19.218  0.00  0.00    +0.000 A 
ATOM     15  N   UNL     1       3.422   4.437  19.007  0.00  0.00    +0.000 NA
ATOM     16  C   UNL     1       3.437   3.218  19.645  0.00  0.00    +0.000 A 
ATOM     17  C   UNL     1       2.320   2.926  20.395  0.00  0.00    +0.000 A 
ATOM     18  S   UNL     1       1.185   4.204  20.273  0.00  0.00    +0.000 S 
ENDBRANCH  13  14
ENDBRANCH   8  13
BRANCH  12  19
ATOM     19  C   UNL     1      -2.285  11.751  17.757  0.00  0.00    +0.000 C 
BRANCH  19  20
ATOM     20  C   UNL     1      -2.613  11.250  16.383  0.00  0.00    +0.000 C 
ATOM     21  C   UNL     1      -2.962   9.821  16.044  0.00  0.00    +0.000 C 
ATOM     22  C   UNL     1      -4.054  10.853  16.130  0.00  0.00    +0.000 C 
ENDBRANCH  19  20
ENDBRANCH  12  19
TORSDOF 4
ENDMDL
MODEL 9
REMARK VINA RESULT:      -5.7      2.714      6.877
REMARK  Name = 
REMARK  4 active torsions:
REMARK  status: ('A' for Active; 'I' for Inactive)
REMARK    1  A    between atoms: N_8  and  C_9
REMARK    2  A    between atoms: C_9  and  C_10
REMARK    3  A    between atoms: N_18  and  C_19
REMARK    4  A    between atoms: C_19  and  C_20
REMARK                            x       y       z     vdW  Elec       q    Type
REMARK                         _______ _______ _______ _____ _____    ______ ____
ROOT
ATOM      1  O   UNL     1       8.518   5.273  14.230  0.00  0.00    +0.000 OA
ATOM      2  C   UNL     1       7.455   5.322  14.850  0.00  0.00    +0.000 C 
ATOM      3  C   UNL     1       7.419   5.953  16.246  0.00  0.00    +0.000 C 
ATOM      4  O   UNL     1       6.252   6.681  16.553  0.00  0.00    +0.000 OA
ATOM      5  C   UNL     1       5.045   5.954  16.258  0.00  0.00    +0.000 C 
ATOM      6  C   UNL     1       4.941   4.665  17.101  0.00  0.00    +0.000 C 
ATOM      7  C   UNL     1       4.846   4.984  18.589  0.00  0.00    +0.000 C 
ATOM      8  N   UNL     1       3.719   5.875  18.899  0.00  0.00    +0.000 NA
ATOM      9  C   UNL     1       3.872   7.136  18.148  0.00  0.00    +0.000 C 
ATOM     10  C   UNL     1       3.918   6.934  16.626  0.00  0.00    +0.000 C 
ATOM     11  C   UNL     1       5.035   5.595  14.756  0.00  0.00    +0.000 C 
ATOM     12  N   UNL     1       6.238   4.842  14.358  0.00  0.00    +0.000 N 
ENDROOT
BRANCH   8  13
ATOM     13  C   UNL     1       2.425   5.199  18.648  0.00  0.00    +0.000 C 
BRANCH  13  14
ATOM     14  C   UNL     1       2.065   4.194  19.705  0.00  0.00    +0.000 A 
ATOM     15  N   UNL     1       2.073   4.458  20.998  0.00  0.00    +0.000 NA
ATOM     16  C   UNL     1       1.816   3.304  21.702  0.00  0.00    +0.000 A 
ATOM     17  C   UNL     1       1.541   2.192  20.940  0.00  0.00    +0.000 A 
ATOM     18  S   UNL     1       1.644   2.585  19.276  0.00  0.00    +0.000 S 
ENDBRANCH  13  14
ENDBRANCH   8  13
BRANCH  12  19
ATOM     19  C   UNL     1       6.273   4.238  13.031  0.00  0.00    +0.000 C 
BRANCH  19  20
ATOM     20  C   UNL     1       5.118   3.324  12.753  0.00  0.00    +0.000 C 
ATOM     21  C   UNL     1       4.253   3.373  11.517  0.00  0.00    +0.000 C 
ATOM     22  C   UNL     1       5.308   2.307  11.645  0.00  0.00    +0.000 C 
ENDBRANCH  19  20
ENDBRANCH  12  19
TORSDOF 4
ENDMDL
