MODEL 1
REMARK VINA RESULT:      -6.2      0.000      0.000
REMARK  Name = 
REMARK  6 active torsions:
REMARK  status: ('A' for Active; 'I' for Inactive)
REMARK    1  A    between atoms: C_1  and  C_2
REMARK    2  A    between atoms: C_2  and  CA_3
REMARK    3  A    between atoms: CA_3  and  C_4
REMARK    4  A    between atoms: CA_3  and  N_6
REMARK    5  A    between atoms: C_4  and  O_5
REMARK    6  A    between atoms: C_7  and  C_9
REMARK                            x       y       z     vdW  Elec       q    Type
REMARK                         _______ _______ _______ _____ _____    ______ ____
ROOT
ATOM      1  N   UNL     1       5.195   4.499  17.172  0.00  0.00    +0.000 N 
ATOM      2  C   UNL     1       4.938   4.059  18.444  0.00  0.00    +0.000 C 
ATOM      3  O   UNL     1       5.808   3.912  19.292  0.00  0.00    +0.000 OA
ATOM      4  H   UNL     1       4.421   4.551  16.513  0.00  0.00    +0.000 HD
ENDROOT
BRANCH   2   5
ATOM      5  C   UNL     1       3.520   3.700  18.765  0.00  0.00    +0.000 A 
ATOM      6  C   UNL     1       3.215   2.331  18.721  0.00  0.00    +0.000 A 
ATOM      7  C   UNL     1       1.930   1.874  19.036  0.00  0.00    +0.000 A 
ATOM      8  C   UNL     1       0.945   2.779  19.406  0.00  0.00    +0.000 A 
ATOM      9  C   UNL     1       1.234   4.143  19.457  0.00  0.00    +0.000 A 
ATOM     10  C   UNL     1       2.517   4.611  19.137  0.00  0.00    +0.000 A 
ATOM     11 BR   UNL     1       2.771   6.489  19.300  0.00  0.00    +0.000 Br
ENDBRANCH   2   5
BRANCH   1  12
ATOM     12  CA  UNL     1       6.491   5.020  16.729  0.00  0.00    +0.000 C 
BRANCH  12  14
ATOM     13  C   UNL     1       7.718   6.783  18.164  0.00  0.00    +0.000 C 
ATOM     14  C   UNL     1       6.699   6.509  17.068  0.00  0.00    +0.000 C 
ENDBRANCH  12  14
BRANCH  12  15
ATOM     15  C   UNL     1       6.583   4.820  15.203  0.00  0.00    +0.000 C 
BRANCH  15  16
ATOM     16  O   UNL     1       7.761   5.437  14.681  0.00  0.00    +0.000 OA
ATOM     17  H   UNL     1       7.516   6.340  14.403  0.00  0.00    +0.000 HD
ENDBRANCH  15  16
ENDBRANCH  12  15
ENDBRANCH   1  12
TORSDOF 5
ENDMDL
MODEL 2
REMARK VINA RESULT:      -6.2      2.095      3.080
REMARK  Name = 
REMARK  6 active torsions:
REMARK  status: ('A' for Active; 'I' for Inactive)
REMARK    1  A    between atoms: C_1  and  C_2
REMARK    2  A    between atoms: C_2  and  CA_3
REMARK    3  A    between atoms: CA_3  and  C_4
REMARK    4  A    between atoms: CA_3  and  N_6
REMARK    5  A    between atoms: C_4  and  O_5
REMARK    6  A    between atoms: C_7  and  C_9
REMARK                            x       y       z     vdW  Elec       q    Type
REMARK                         _______ _______ _______ _____ _____    ______ ____
ROOT
ATOM      1  N   UNL     1       5.629   5.285  18.742  0.00  0.00    +0.000 N 
ATOM      2  C   UNL     1       4.357   5.473  18.267  0.00  0.00    +0.000 C 
ATOM      3  O   UNL     1       4.105   6.132  17.266  0.00  0.00    +0.000 OA
ATOM      4  H   UNL     1       5.750   4.763  19.607  0.00  0.00    +0.000 HD
ENDROOT
BRANCH   2   5
ATOM      5  C   UNL     1       3.240   4.876  19.065  0.00  0.00    +0.000 A 
ATOM      6  C   UNL     1       2.570   5.756  19.928  0.00  0.00    +0.000 A 
ATOM      7  C   UNL     1       1.487   5.318  20.698  0.00  0.00    +0.000 A 
ATOM      8  C   UNL     1       1.058   4.002  20.604  0.00  0.00    +0.000 A 
ATOM      9  C   UNL     1       1.712   3.115  19.748  0.00  0.00    +0.000 A 
ATOM     10  C   UNL     1       2.804   3.543  18.977  0.00  0.00    +0.000 A 
ATOM     11 BR   UNL     1       3.559   2.234  17.822  0.00  0.00    +0.000 Br
ENDBRANCH   2   5
BRANCH   1  12
ATOM     12  CA  UNL     1       6.842   5.680  18.020  0.00  0.00    +0.000 C 
BRANCH  12  14
ATOM     13  C   UNL     1       6.897   4.489  15.729  0.00  0.00    +0.000 C 
ATOM     14  C   UNL     1       7.431   4.551  17.152  0.00  0.00    +0.000 C 
ENDBRANCH  12  14
BRANCH  12  15
ATOM     15  C   UNL     1       7.886   6.128  19.062  0.00  0.00    +0.000 C 
BRANCH  15  16
ATOM     16  O   UNL     1       7.704   5.432  20.296  0.00  0.00    +0.000 OA
ATOM     17  H   UNL     1       8.389   5.752  20.913  0.00  0.00    +0.000 HD
ENDBRANCH  15  16
ENDBRANCH  12  15
ENDBRANCH   1  12
TORSDOF 5
ENDMDL
MODEL 3
REMARK VINA RESULT:      -6.1      1.540      2.011
REMARK  Name = 
REMARK  6 active torsions:
REMARK  status: ('A' for Active; 'I' for Inactive)
REMARK    1  A    between atoms: C_1  and  C_2
REMARK    2  A    between atoms: C_2  and  CA_3
REMARK    3  A    between atoms: CA_3  and  C_4
REMARK    4  A    between atoms: CA_3  and  N_6
REMARK    5  A    between atoms: C_4  and  O_5
REMARK    6  A    between atoms: C_7  and  C_9
REMARK                            x       y       z     vdW  Elec       q    Type
REMARK                         _______ _______ _______ _____ _____    ______ ____
ROOT
ATOM      1  N   UNL     1       5.140   4.956  17.642  0.00  0.00    +0.000 N 
ATOM      2  C   UNL     1       4.993   4.640  18.968  0.00  0.00    +0.000 C 
ATOM      3  O   UNL     1       5.936   4.540  19.743  0.00  0.00    +0.000 OA
ATOM      4  H   UNL     1       4.310   4.973  17.054  0.00  0.00    +0.000 HD
ENDROOT
BRANCH   2   5
ATOM      5  C   UNL     1       3.604   4.358  19.448  0.00  0.00    +0.000 A 
ATOM      6  C   UNL     1       2.956   5.420  20.097  0.00  0.00    +0.000 A 
ATOM      7  C   UNL     1       1.642   5.284  20.557  0.00  0.00    +0.000 A 
ATOM      8  C   UNL     1       0.962   4.090  20.365  0.00  0.00    +0.000 A 
ATOM      9  C   UNL     1       1.590   3.025  19.720  0.00  0.00    +0.000 A 
ATOM     10  C   UNL     1       2.911   3.150  19.260  0.00  0.00    +0.000 A 
ATOM     11 BR   UNL     1       3.614   1.631  18.357  0.00  0.00    +0.000 Br
ENDBRANCH   2   5
BRANCH   1  12
ATOM     12  CA  UNL     1       6.402   5.392  17.037  0.00  0.00    +0.000 C 
BRANCH  12  14
ATOM     13  C   UNL     1       7.842   7.282  18.051  0.00  0.00    +0.000 C 
ATOM     14  C   UNL     1       6.654   6.906  17.176  0.00  0.00    +0.000 C 
ENDBRANCH  12  14
BRANCH  12  15
ATOM     15  C   UNL     1       6.366   5.011  15.544  0.00  0.00    +0.000 C 
BRANCH  15  16
ATOM     16  O   UNL     1       7.574   5.400  14.891  0.00  0.00    +0.000 OA
ATOM     17  H   UNL     1       7.732   4.762  14.169  0.00  0.00    +0.000 HD
ENDBRANCH  15  16
ENDBRANCH  12  15
ENDBRANCH   1  12
TORSDOF 5
ENDMDL
MODEL 4
REMARK VINA RESULT:      -6.1      1.542      2.211
REMARK  Name = 
REMARK  6 active torsions:
REMARK  status: ('A' for Active; 'I' for Inactive)
REMARK    1  A    between atoms: C_1  and  C_2
REMARK    2  A    between atoms: C_2  and  CA_3
REMARK    3  A    between atoms: CA_3  and  C_4
REMARK    4  A    between atoms: CA_3  and  N_6
REMARK    5  A    between atoms: C_4  and  O_5
REMARK    6  A    between atoms: C_7  and  C_9
REMARK                            x       y       z     vdW  Elec       q    Type
REMARK                         _______ _______ _______ _____ _____    ______ ____
ROOT
ATOM      1  N   UNL     1       5.077   4.504  17.681  0.00  0.00    +0.000 N 
ATOM      2  C   UNL     1       3.841   5.095  17.718  0.00  0.00    +0.000 C 
ATOM      3  O   UNL     1       3.614   6.207  17.259  0.00  0.00    +0.000 OA
ATOM      4  H   UNL     1       5.193   3.596  18.126  0.00  0.00    +0.000 HD
ENDROOT
BRANCH   2   5
ATOM      5  C   UNL     1       2.749   4.339  18.408  0.00  0.00    +0.000 A 
ATOM      6  C   UNL     1       2.529   3.031  17.948  0.00  0.00    +0.000 A 
ATOM      7  C   UNL     1       1.557   2.218  18.541  0.00  0.00    +0.000 A 
ATOM      8  C   UNL     1       0.805   2.700  19.603  0.00  0.00    +0.000 A 
ATOM      9  C   UNL     1       1.013   3.997  20.074  0.00  0.00    +0.000 A 
ATOM     10  C   UNL     1       1.981   4.823  19.481  0.00  0.00    +0.000 A 
ATOM     11 BR   UNL     1       2.183   6.545  20.263  0.00  0.00    +0.000 Br
ENDBRANCH   2   5
BRANCH   1  12
ATOM     12  CA  UNL     1       6.219   5.036  16.933  0.00  0.00    +0.000 C 
BRANCH  12  14
ATOM     13  C   UNL     1       5.626   4.301  14.528  0.00  0.00    +0.000 C 
ATOM     14  C   UNL     1       6.591   4.188  15.700  0.00  0.00    +0.000 C 
ENDBRANCH  12  14
BRANCH  12  15
ATOM     15  C   UNL     1       7.423   5.103  17.894  0.00  0.00    +0.000 C 
BRANCH  15  16
ATOM     16  O   UNL     1       8.298   3.993  17.690  0.00  0.00    +0.000 OA
ATOM     17  H   UNL     1       8.571   4.008  16.753  0.00  0.00    +0.000 HD
ENDBRANCH  15  16
ENDBRANCH  12  15
ENDBRANCH   1  12
TORSDOF 5
ENDMDL
MODEL 5
REMARK VINA RESULT:      -6.0      2.606      5.570
REMARK  Name = 
REMARK  6 active torsions:
REMARK  status: ('A' for Active; 'I' for Inactive)
REMARK    1  A    between atoms: C_1  and  C_2
REMARK    2  A    between atoms: C_2  and  CA_3
REMARK    3  A    between atoms: CA_3  and  C_4
REMARK    4  A    between atoms: CA_3  and  N_6
REMARK    5  A    between atoms: C_4  and  O_5
REMARK    6  A    between atoms: C_7  and  C_9
REMARK                            x       y       z     vdW  Elec       q    Type
REMARK                         _______ _______ _______ _____ _____    ______ ____
ROOT
ATOM      1  N   UNL     1       3.096   3.664  19.125  0.00  0.00    +0.000 N 
ATOM      2  C   UNL     1       2.985   3.839  17.770  0.00  0.00    +0.000 C 
ATOM      3  O   UNL     1       2.016   3.465  17.122  0.00  0.00    +0.000 OA
ATOM      4  H   UNL     1       3.955   3.963  19.582  0.00  0.00    +0.000 HD
ENDROOT
BRANCH   2   5
ATOM      5  C   UNL     1       4.146   4.475  17.070  0.00  0.00    +0.000 A 
ATOM      6  C   UNL     1       5.005   3.596  16.394  0.00  0.00    +0.000 A 
ATOM      7  C   UNL     1       6.103   4.080  15.675  0.00  0.00    +0.000 A 
ATOM      8  C   UNL     1       6.347   5.445  15.619  0.00  0.00    +0.000 A 
ATOM      9  C   UNL     1       5.501   6.332  16.284  0.00  0.00    +0.000 A 
ATOM     10  C   UNL     1       4.400   5.856  17.013  0.00  0.00    +0.000 A 
ATOM     11 BR   UNL     1       3.312   7.189  17.824  0.00  0.00    +0.000 Br
ENDBRANCH   2   5
BRANCH   1  12
ATOM     12  CA  UNL     1       2.009   3.187  19.983  0.00  0.00    +0.000 C 
BRANCH  12  14
ATOM     13  C   UNL     1       1.607   5.626  20.733  0.00  0.00    +0.000 C 
ATOM     14  C   UNL     1       0.993   4.287  20.351  0.00  0.00    +0.000 C 
ENDBRANCH  12  14
BRANCH  12  15
ATOM     15  C   UNL     1       2.638   2.616  21.269  0.00  0.00    +0.000 C 
BRANCH  15  16
ATOM     16  O   UNL     1       1.647   2.428  22.280  0.00  0.00    +0.000 OA
ATOM     17  H   UNL     1       1.752   3.153  22.926  0.00  0.00    +0.000 HD
ENDBRANCH  15  16
ENDBRANCH  12  15
ENDBRANCH   1  12
TORSDOF 5
ENDMDL
MODEL 6
REMARK VINA RESULT:      -6.0      1.963      2.433
REMARK  Name = 
REMARK  6 active torsions:
REMARK  status: ('A' for Active; 'I' for Inactive)
REMARK    1  A    between atoms: C_1  and  C_2
REMARK    2  A    between atoms: C_2  and  CA_3
REMARK    3  A    between atoms: CA_3  and  C_4
REMARK    4  A    between atoms: CA_3  and  N_6
REMARK    5  A    between atoms: C_4  and  O_5
REMARK    6  A    between atoms: C_7  and  C_9
REMARK                            x       y       z     vdW  Elec       q    Type
REMARK                         _______ _______ _______ _____ _____    ______ ____
ROOT
ATOM      1  N   UNL     1       5.789   5.503  18.983  0.00  0.00    +0.000 N 
ATOM      2  C   UNL     1       4.665   5.188  18.266  0.00  0.00    +0.000 C 
ATOM      3  O   UNL     1       4.601   5.276  17.046  0.00  0.00    +0.000 OA
ATOM      4  H   UNL     1       5.746   5.447  19.999  0.00  0.00    +0.000 HD
ENDROOT
BRANCH   2   5
ATOM      5  C   UNL     1       3.457   4.770  19.045  0.00  0.00    +0.000 A 
ATOM      6  C   UNL     1       2.849   5.776  19.812  0.00  0.00    +0.000 A 
ATOM      7  C   UNL     1       1.694   5.510  20.554  0.00  0.00    +0.000 A 
ATOM      8  C   UNL     1       1.131   4.242  20.529  0.00  0.00    +0.000 A 
ATOM      9  C   UNL     1       1.722   3.231  19.769  0.00  0.00    +0.000 A 
ATOM     10  C   UNL     1       2.885   3.486  19.027  0.00  0.00    +0.000 A 
ATOM     11 BR   UNL     1       3.545   2.025  18.004  0.00  0.00    +0.000 Br
ENDBRANCH   2   5
BRANCH   1  12
ATOM     12  CA  UNL     1       7.092   5.798  18.381  0.00  0.00    +0.000 C 
BRANCH  12  14
ATOM     13  C   UNL     1       7.945   8.161  17.776  0.00  0.00    +0.000 C 
ATOM     14  C   UNL     1       7.056   6.985  17.398  0.00  0.00    +0.000 C 
ENDBRANCH  12  14
BRANCH  12  15
ATOM     15  C   UNL     1       7.569   4.532  17.643  0.00  0.00    +0.000 C 
BRANCH  15  16
ATOM     16  O   UNL     1       7.578   4.740  16.230  0.00  0.00    +0.000 OA
ATOM     17  H   UNL     1       6.677   4.556  15.904  0.00  0.00    +0.000 HD
ENDBRANCH  15  16
ENDBRANCH  12  15
ENDBRANCH   1  12
TORSDOF 5
ENDMDL
MODEL 7
REMARK VINA RESULT:      -6.0      2.412      5.436
REMARK  Name = 
REMARK  6 active torsions:
REMARK  status: ('A' for Active; 'I' for Inactive)
REMARK    1  A    between atoms: C_1  and  C_2
REMARK    2  A    between atoms: C_2  and  CA_3
REMARK    3  A    between atoms: CA_3  and  C_4
REMARK    4  A    between atoms: CA_3  and  N_6
REMARK    5  A    between atoms: C_4  and  O_5
REMARK    6  A    between atoms: C_7  and  C_9
REMARK                            x       y       z     vdW  Elec       q    Type
REMARK                         _______ _______ _______ _____ _____    ______ ____
ROOT
ATOM      1  N   UNL     1       3.488   4.597  19.144  0.00  0.00    +0.000 N 
ATOM      2  C   UNL     1       4.686   3.982  18.892  0.00  0.00    +0.000 C 
ATOM      3  O   UNL     1       5.211   3.191  19.667  0.00  0.00    +0.000 OA
ATOM      4  H   UNL     1       3.142   5.277  18.469  0.00  0.00    +0.000 HD
ENDROOT
BRANCH   2   5
ATOM      5  C   UNL     1       5.388   4.355  17.624  0.00  0.00    +0.000 A 
ATOM      6  C   UNL     1       4.747   3.968  16.437  0.00  0.00    +0.000 A 
ATOM      7  C   UNL     1       5.293   4.293  15.190  0.00  0.00    +0.000 A 
ATOM      8  C   UNL     1       6.476   5.015  15.119  0.00  0.00    +0.000 A 
ATOM      9  C   UNL     1       7.124   5.410  16.290  0.00  0.00    +0.000 A 
ATOM     10  C   UNL     1       6.588   5.083  17.545  0.00  0.00    +0.000 A 
ATOM     11 BR   UNL     1       7.557   5.732  19.047  0.00  0.00    +0.000 Br
ENDBRANCH   2   5
BRANCH   1  12
ATOM     12  CA  UNL     1       2.606   4.252  20.262  0.00  0.00    +0.000 C 
BRANCH  12  14
ATOM     13  C   UNL     1       1.176   3.004  18.509  0.00  0.00    +0.000 C 
ATOM     14  C   UNL     1       1.657   3.078  19.951  0.00  0.00    +0.000 C 
ENDBRANCH  12  14
BRANCH  12  15
ATOM     15  C   UNL     1       1.778   5.504  20.614  0.00  0.00    +0.000 C 
BRANCH  15  16
ATOM     16  O   UNL     1       2.506   6.696  20.314  0.00  0.00    +0.000 OA
ATOM     17  H   UNL     1       3.437   6.537  20.564  0.00  0.00    +0.000 HD
ENDBRANCH  15  16
ENDBRANCH  12  15
ENDBRANCH   1  12
TORSDOF 5
ENDMDL
MODEL 8
REMARK VINA RESULT:      -6.0      1.721      2.485
REMARK  Name = 
REMARK  6 active torsions:
REMARK  status: ('A' for Active; 'I' for Inactive)
REMARK    1  A    between atoms: C_1  and  C_2
REMARK    2  A    between atoms: C_2  and  CA_3
REMARK    3  A    between atoms: CA_3  and  C_4
REMARK    4  A    between atoms: CA_3  and  N_6
REMARK    5  A    between atoms: C_4  and  O_5
REMARK    6  A    between atoms: C_7  and  C_9
REMARK                            x       y       z     vdW  Elec       q    Type
REMARK                         _______ _______ _______ _____ _____    ______ ____
ROOT
ATOM      1  N   UNL     1       5.616   5.132  18.722  0.00  0.00    +0.000 N 
ATOM      2  C   UNL     1       4.328   5.271  18.274  0.00  0.00    +0.000 C 
ATOM      3  O   UNL     1       4.027   5.936  17.291  0.00  0.00    +0.000 OA
ATOM      4  H   UNL     1       5.777   4.600  19.574  0.00  0.00    +0.000 HD
ENDROOT
BRANCH   2   5
ATOM      5  C   UNL     1       3.254   4.610  19.081  0.00  0.00    +0.000 A 
ATOM      6  C   UNL     1       3.275   3.207  19.087  0.00  0.00    +0.000 A 
ATOM      7  C   UNL     1       2.341   2.481  19.834  0.00  0.00    +0.000 A 
ATOM      8  C   UNL     1       1.387   3.149  20.587  0.00  0.00    +0.000 A 
ATOM      9  C   UNL     1       1.354   4.544  20.594  0.00  0.00    +0.000 A 
ATOM     10  C   UNL     1       2.283   5.281  19.843  0.00  0.00    +0.000 A 
ATOM     11 BR   UNL     1       2.144   7.172  19.991  0.00  0.00    +0.000 Br
ENDBRANCH   2   5
BRANCH   1  12
ATOM     12  CA  UNL     1       6.796   5.594  17.986  0.00  0.00    +0.000 C 
BRANCH  12  14
ATOM     13  C   UNL     1       6.836   4.539  15.628  0.00  0.00    +0.000 C 
ATOM     14  C   UNL     1       7.388   4.524  17.046  0.00  0.00    +0.000 C 
ENDBRANCH  12  14
BRANCH  12  15
ATOM     15  C   UNL     1       7.860   6.019  19.018  0.00  0.00    +0.000 C 
BRANCH  15  16
ATOM     16  O   UNL     1       7.571   5.466  20.302  0.00  0.00    +0.000 OA
ATOM     17  H   UNL     1       7.635   6.192  20.951  0.00  0.00    +0.000 HD
ENDBRANCH  15  16
ENDBRANCH  12  15
ENDBRANCH   1  12
TORSDOF 5
ENDMDL
MODEL 9
REMARK VINA RESULT:      -5.9      2.631      5.597
REMARK  Name = 
REMARK  6 active torsions:
REMARK  status: ('A' for Active; 'I' for Inactive)
REMARK    1  A    between atoms: C_1  and  C_2
REMARK    2  A    between atoms: C_2  and  CA_3
REMARK    3  A    between atoms: CA_3  and  C_4
REMARK    4  A    between atoms: CA_3  and  N_6
REMARK    5  A    between atoms: C_4  and  O_5
REMARK    6  A    between atoms: C_7  and  C_9
REMARK                            x       y       z     vdW  Elec       q    Type
REMARK                         _______ _______ _______ _____ _____    ______ ____
ROOT
ATOM      1  N   UNL     1       3.006   3.895  18.693  0.00  0.00    +0.000 N 
ATOM      2  C   UNL     1       3.579   5.028  18.177  0.00  0.00    +0.000 C 
ATOM      3  O   UNL     1       2.930   5.958  17.714  0.00  0.00    +0.000 OA
ATOM      4  H   UNL     1       3.618   3.149  19.016  0.00  0.00    +0.000 HD
ENDROOT
BRANCH   2   5
ATOM      5  C   UNL     1       5.075   5.078  18.145  0.00  0.00    +0.000 A 
ATOM      6  C   UNL     1       5.698   5.433  19.352  0.00  0.00    +0.000 A 
ATOM      7  C   UNL     1       7.093   5.479  19.451  0.00  0.00    +0.000 A 
ATOM      8  C   UNL     1       7.875   5.161  18.350  0.00  0.00    +0.000 A 
ATOM      9  C   UNL     1       7.272   4.804  17.144  0.00  0.00    +0.000 A 
ATOM     10  C   UNL     1       5.873   4.762  17.033  0.00  0.00    +0.000 A 
ATOM     11 BR   UNL     1       5.199   4.210  15.342  0.00  0.00    +0.000 Br
ENDBRANCH   2   5
BRANCH   1  12
ATOM     12  CA  UNL     1       1.568   3.735  18.925  0.00  0.00    +0.000 C 
BRANCH  12  14
ATOM     13  C   UNL     1       1.484   2.978  21.394  0.00  0.00    +0.000 C 
ATOM     14  C   UNL     1       1.144   4.054  20.373  0.00  0.00    +0.000 C 
ENDBRANCH  12  14
BRANCH  12  15
ATOM     15  C   UNL     1       1.196   2.277  18.589  0.00  0.00    +0.000 C 
BRANCH  15  16
ATOM     16  O   UNL     1       2.264   1.625  17.900  0.00  0.00    +0.000 OA
ATOM     17  H   UNL     1       1.908   1.308  17.048  0.00  0.00    +0.000 HD
ENDBRANCH  15  16
ENDBRANCH  12  15
ENDBRANCH   1  12
TORSDOF 5
ENDMDL
