MODEL 1
REMARK VINA RESULT:      -7.7      0.000      0.000
REMARK  Name = 
REMARK  7 active torsions:
REMARK  status: ('A' for Active; 'I' for Inactive)
REMARK    1  A    between atoms: C_1  and  S_2
REMARK    2  A    between atoms: S_2  and  C_3
REMARK    3  A    between atoms: N_11  and  C_12
REMARK    4  A    between atoms: C_12  and  C_13
REMARK    5  A    between atoms: N_15  and  C_16
REMARK    6  A    between atoms: C_18  and  C_19
REMARK    7  A    between atoms: C_25  and  N_26
REMARK                            x       y       z     vdW  Elec       q    Type
REMARK                         _______ _______ _______ _____ _____    ______ ____
ROOT
ATOM      1  C   UNL     1       1.684   8.545  18.795  0.00  0.00    +0.000 C 
ATOM      2  O   UNL     1       1.568   8.477  17.573  0.00  0.00    +0.000 OA
ATOM      3  N   UNL     1       0.916   9.360  19.625  0.00  0.00    +0.000 N 
ATOM      4  H   UNL     1       1.480   9.787  20.358  0.00  0.00    +0.000 HD
ENDROOT
BRANCH   3   5
ATOM      5  C   UNL     1      -0.014  10.253  19.033  0.00  0.00    +0.000 A 
ATOM      6  C   UNL     1      -1.191   9.683  18.516  0.00  0.00    +0.000 A 
ATOM      7  C   UNL     1      -2.145  10.471  17.860  0.00  0.00    +0.000 A 
ATOM      8  C   UNL     1      -1.894  11.839  17.725  0.00  0.00    +0.000 A 
ATOM      9  C   UNL     1      -0.704  12.395  18.208  0.00  0.00    +0.000 A 
ATOM     10  C   UNL     1       0.285  11.628  18.855  0.00  0.00    +0.000 A 
BRANCH  10  11
ATOM     11  N   UNL     1       1.484  12.223  19.200  0.00  0.00    +0.000 N 
ATOM     12  C   UNL     1       1.805  12.625  20.579  0.00  0.00    +0.000 C 
ATOM     13  C   UNL     1       2.331  14.076  20.574  0.00  0.00    +0.000 C 
ATOM     14  O   UNL     1       3.418  14.270  19.650  0.00  0.00    +0.000 OA
ATOM     15  C   UNL     1       3.027  13.882  18.320  0.00  0.00    +0.000 C 
ATOM     16  C   UNL     1       2.617  12.405  18.288  0.00  0.00    +0.000 C 
ENDBRANCH  10  11
BRANCH   7  17
ATOM     17  C   UNL     1      -3.413   9.873  17.306  0.00  0.00    +0.000 C 
ATOM     18  F   UNL     1      -3.883   8.821  18.031  0.00  0.00    +0.000 F 
ATOM     19  F   UNL     1      -4.435  10.771  17.241  0.00  0.00    +0.000 F 
ATOM     20  F   UNL     1      -3.251   9.402  16.037  0.00  0.00    +0.000 F 
ENDBRANCH   7  17
ENDBRANCH   3   5
BRANCH   1  21
ATOM     21  C   UNL     1       2.658   7.659  19.542  0.00  0.00    +0.000 C 
BRANCH  21  30
ATOM     22  C   UNL     1       2.262   5.200  19.162  0.00  0.00    +0.000 A 
ATOM     23  N   UNL     1       2.696   4.231  18.394  0.00  0.00    +0.000 NA
ATOM     24  C   UNL     1       3.606   4.819  17.554  0.00  0.00    +0.000 A 
ATOM     25  C   UNL     1       4.390   4.234  16.549  0.00  0.00    +0.000 A 
ATOM     26  C   UNL     1       5.267   5.044  15.821  0.00  0.00    +0.000 A 
ATOM     27  C   UNL     1       5.354   6.413  16.083  0.00  0.00    +0.000 A 
ATOM     28  C   UNL     1       4.581   7.015  17.083  0.00  0.00    +0.000 A 
ATOM     29  C   UNL     1       3.718   6.184  17.808  0.00  0.00    +0.000 A 
ATOM     30  N   UNL     1       2.854   6.401  18.862  0.00  0.00    +0.000 N 
BRANCH  22  32
ATOM     31  C   UNL     1       1.360   3.251  20.833  0.00  0.00    +0.000 C 
ATOM     32  S   UNL     1       1.127   5.004  20.458  0.00  0.00    +0.000 S 
ENDBRANCH  22  32
ENDBRANCH  21  30
ENDBRANCH   1  21
TORSDOF 6
ENDMDL
MODEL 2
REMARK VINA RESULT:      -7.7      1.213      2.708
REMARK  Name = 
REMARK  7 active torsions:
REMARK  status: ('A' for Active; 'I' for Inactive)
REMARK    1  A    between atoms: C_1  and  S_2
REMARK    2  A    between atoms: S_2  and  C_3
REMARK    3  A    between atoms: N_11  and  C_12
REMARK    4  A    between atoms: C_12  and  C_13
REMARK    5  A    between atoms: N_15  and  C_16
REMARK    6  A    between atoms: C_18  and  C_19
REMARK    7  A    between atoms: C_25  and  N_26
REMARK                            x       y       z     vdW  Elec       q    Type
REMARK                         _______ _______ _______ _____ _____    ______ ____
ROOT
ATOM      1  C   UNL     1       1.802   8.544  18.696  0.00  0.00    +0.000 C 
ATOM      2  O   UNL     1       1.636   8.465  17.480  0.00  0.00    +0.000 OA
ATOM      3  N   UNL     1       1.068   9.366  19.550  0.00  0.00    +0.000 N 
ATOM      4  H   UNL     1       1.661   9.800  20.255  0.00  0.00    +0.000 HD
ENDROOT
BRANCH   3   5
ATOM      5  C   UNL     1       0.113  10.252  18.990  0.00  0.00    +0.000 A 
ATOM      6  C   UNL     1      -1.057   9.669  18.470  0.00  0.00    +0.000 A 
ATOM      7  C   UNL     1      -2.035  10.451  17.842  0.00  0.00    +0.000 A 
ATOM      8  C   UNL     1      -1.816  11.827  17.739  0.00  0.00    +0.000 A 
ATOM      9  C   UNL     1      -0.633  12.397  18.224  0.00  0.00    +0.000 A 
ATOM     10  C   UNL     1       0.379  11.637  18.843  0.00  0.00    +0.000 A 
BRANCH  10  11
ATOM     11  N   UNL     1       1.568  12.250  19.190  0.00  0.00    +0.000 N 
ATOM     12  C   UNL     1       1.876  12.664  20.568  0.00  0.00    +0.000 C 
ATOM     13  C   UNL     1       2.383  14.122  20.558  0.00  0.00    +0.000 C 
ATOM     14  O   UNL     1       3.472  14.325  19.638  0.00  0.00    +0.000 OA
ATOM     15  C   UNL     1       3.094  13.924  18.309  0.00  0.00    +0.000 C 
ATOM     16  C   UNL     1       2.703  12.442  18.283  0.00  0.00    +0.000 C 
ENDBRANCH  10  11
BRANCH   7  17
ATOM     17  C   UNL     1      -3.295   9.838  17.286  0.00  0.00    +0.000 C 
ATOM     18  F   UNL     1      -4.329  10.717  17.179  0.00  0.00    +0.000 F 
ATOM     19  F   UNL     1      -3.121   9.311  16.043  0.00  0.00    +0.000 F 
ATOM     20  F   UNL     1      -3.758   8.817  18.062  0.00  0.00    +0.000 F 
ENDBRANCH   7  17
ENDBRANCH   3   5
BRANCH   1  21
ATOM     21  C   UNL     1       2.808   7.667  19.409  0.00  0.00    +0.000 C 
BRANCH  21  30
ATOM     22  C   UNL     1       3.652   5.997  17.721  0.00  0.00    +0.000 A 
ATOM     23  N   UNL     1       3.457   4.748  17.377  0.00  0.00    +0.000 NA
ATOM     24  C   UNL     1       2.536   4.268  18.272  0.00  0.00    +0.000 A 
ATOM     25  C   UNL     1       1.953   2.995  18.346  0.00  0.00    +0.000 A 
ATOM     26  C   UNL     1       1.016   2.740  19.352  0.00  0.00    +0.000 A 
ATOM     27  C   UNL     1       0.673   3.732  20.273  0.00  0.00    +0.000 A 
ATOM     28  C   UNL     1       1.242   5.010  20.215  0.00  0.00    +0.000 A 
ATOM     29  C   UNL     1       2.169   5.247  19.193  0.00  0.00    +0.000 A 
ATOM     30  N   UNL     1       2.890   6.359  18.804  0.00  0.00    +0.000 N 
BRANCH  22  32
ATOM     31  C   UNL     1       5.404   6.006  15.640  0.00  0.00    +0.000 C 
ATOM     32  S   UNL     1       4.688   7.105  16.882  0.00  0.00    +0.000 S 
ENDBRANCH  22  32
ENDBRANCH  21  30
ENDBRANCH   1  21
TORSDOF 6
ENDMDL
MODEL 3
REMARK VINA RESULT:      -7.6      4.221      8.387
REMARK  Name = 
REMARK  7 active torsions:
REMARK  status: ('A' for Active; 'I' for Inactive)
REMARK    1  A    between atoms: C_1  and  S_2
REMARK    2  A    between atoms: S_2  and  C_3
REMARK    3  A    between atoms: N_11  and  C_12
REMARK    4  A    between atoms: C_12  and  C_13
REMARK    5  A    between atoms: N_15  and  C_16
REMARK    6  A    between atoms: C_18  and  C_19
REMARK    7  A    between atoms: C_25  and  N_26
REMARK                            x       y       z     vdW  Elec       q    Type
REMARK                         _______ _______ _______ _____ _____    ______ ____
ROOT
ATOM      1  C   UNL     1       2.005   8.109  19.186  0.00  0.00    +0.000 C 
ATOM      2  O   UNL     1       2.432   7.981  20.332  0.00  0.00    +0.000 OA
ATOM      3  N   UNL     1       2.475   7.407  18.077  0.00  0.00    +0.000 N 
ATOM      4  H   UNL     1       2.540   8.004  17.255  0.00  0.00    +0.000 HD
ENDROOT
BRANCH   3   5
ATOM      5  C   UNL     1       3.586   6.541  18.239  0.00  0.00    +0.000 A 
ATOM      6  C   UNL     1       4.833   7.031  17.807  0.00  0.00    +0.000 A 
ATOM      7  C   UNL     1       5.981   6.232  17.868  0.00  0.00    +0.000 A 
ATOM      8  C   UNL     1       5.857   4.931  18.363  0.00  0.00    +0.000 A 
ATOM      9  C   UNL     1       4.608   4.436  18.755  0.00  0.00    +0.000 A 
ATOM     10  C   UNL     1       3.430   5.205  18.689  0.00  0.00    +0.000 A 
BRANCH  10  11
ATOM     11  N   UNL     1       2.218   4.611  18.982  0.00  0.00    +0.000 N 
ATOM     12  C   UNL     1       1.587   4.704  20.309  0.00  0.00    +0.000 C 
ATOM     13  C   UNL     1       1.157   3.293  20.765  0.00  0.00    +0.000 C 
ATOM     14  O   UNL     1       0.345   2.616  19.787  0.00  0.00    +0.000 OA
ATOM     15  C   UNL     1       1.032   2.539  18.525  0.00  0.00    +0.000 C 
ATOM     16  C   UNL     1       1.357   3.943  18.001  0.00  0.00    +0.000 C 
ENDBRANCH  10  11
BRANCH   7  17
ATOM     17  C   UNL     1       7.323   6.748  17.414  0.00  0.00    +0.000 C 
ATOM     18  F   UNL     1       7.338   8.086  17.167  0.00  0.00    +0.000 F 
ATOM     19  F   UNL     1       8.310   6.523  18.325  0.00  0.00    +0.000 F 
ATOM     20  F   UNL     1       7.740   6.155  16.260  0.00  0.00    +0.000 F 
ENDBRANCH   7  17
ENDBRANCH   3   5
BRANCH   1  21
ATOM     21  C   UNL     1       0.836   9.020  18.880  0.00  0.00    +0.000 C 
BRANCH  21  30
ATOM     22  C   UNL     1       0.334  10.399  20.930  0.00  0.00    +0.000 A 
ATOM     23  N   UNL     1       0.493  11.624  21.366  0.00  0.00    +0.000 NA
ATOM     24  C   UNL     1       1.173  12.274  20.369  0.00  0.00    +0.000 A 
ATOM     25  C   UNL     1       1.581  13.615  20.304  0.00  0.00    +0.000 A 
ATOM     26  C   UNL     1       2.259  14.059  19.164  0.00  0.00    +0.000 A 
ATOM     27  C   UNL     1       2.535  13.182  18.114  0.00  0.00    +0.000 A 
ATOM     28  C   UNL     1       2.135  11.840  18.159  0.00  0.00    +0.000 A 
ATOM     29  C   UNL     1       1.447  11.420  19.304  0.00  0.00    +0.000 A 
ATOM     30  N   UNL     1       0.879  10.220  19.683  0.00  0.00    +0.000 N 
BRANCH  22  32
ATOM     31  C   UNL     1      -0.040   9.520  23.477  0.00  0.00    +0.000 C 
ATOM     32  S   UNL     1      -0.521   9.150  21.775  0.00  0.00    +0.000 S 
ENDBRANCH  22  32
ENDBRANCH  21  30
ENDBRANCH   1  21
TORSDOF 6
ENDMDL
MODEL 4
REMARK VINA RESULT:      -7.3      4.039      8.279
REMARK  Name = 
REMARK  7 active torsions:
REMARK  status: ('A' for Active; 'I' for Inactive)
REMARK    1  A    between atoms: C_1  and  S_2
REMARK    2  A    between atoms: S_2  and  C_3
REMARK    3  A    between atoms: N_11  and  C_12
REMARK    4  A    between atoms: C_12  and  C_13
REMARK    5  A    between atoms: N_15  and  C_16
REMARK    6  A    between atoms: C_18  and  C_19
REMARK    7  A    between atoms: C_25  and  N_26
REMARK                            x       y       z     vdW  Elec       q    Type
REMARK                         _______ _______ _______ _____ _____    ______ ____
ROOT
ATOM      1  C   UNL     1       2.140   8.466  17.995  0.00  0.00    +0.000 C 
ATOM      2  O   UNL     1       2.939   8.775  17.113  0.00  0.00    +0.000 OA
ATOM      3  N   UNL     1       2.292   7.390  18.869  0.00  0.00    +0.000 N 
ATOM      4  H   UNL     1       1.411   6.903  19.022  0.00  0.00    +0.000 HD
ENDROOT
BRANCH   3   5
ATOM      5  C   UNL     1       3.397   6.519  18.692  0.00  0.00    +0.000 A 
ATOM      6  C   UNL     1       4.598   7.107  18.254  0.00  0.00    +0.000 A 
ATOM      7  C   UNL     1       5.730   6.325  17.992  0.00  0.00    +0.000 A 
ATOM      8  C   UNL     1       5.635   4.942  18.170  0.00  0.00    +0.000 A 
ATOM      9  C   UNL     1       4.427   4.358  18.570  0.00  0.00    +0.000 A 
ATOM     10  C   UNL     1       3.265   5.113  18.822  0.00  0.00    +0.000 A 
BRANCH  10  11
ATOM     11  N   UNL     1       2.080   4.457  19.098  0.00  0.00    +0.000 N 
ATOM     12  C   UNL     1       1.451   4.478  20.429  0.00  0.00    +0.000 C 
ATOM     13  C   UNL     1       1.085   3.036  20.839  0.00  0.00    +0.000 C 
ATOM     14  O   UNL     1       0.299   2.357  19.841  0.00  0.00    +0.000 OA
ATOM     15  C   UNL     1       0.984   2.352  18.575  0.00  0.00    +0.000 C 
ATOM     16  C   UNL     1       1.246   3.785  18.098  0.00  0.00    +0.000 C 
ENDBRANCH  10  11
BRANCH   7  17
ATOM     17  C   UNL     1       7.023   6.944  17.527  0.00  0.00    +0.000 C 
ATOM     18  F   UNL     1       8.029   6.859  18.441  0.00  0.00    +0.000 F 
ATOM     19  F   UNL     1       7.502   6.372  16.388  0.00  0.00    +0.000 F 
ATOM     20  F   UNL     1       6.889   8.272  17.250  0.00  0.00    +0.000 F 
ENDBRANCH   7  17
ENDBRANCH   3   5
BRANCH   1  21
ATOM     21  C   UNL     1       0.909   9.303  18.269  0.00  0.00    +0.000 C 
BRANCH  21  30
ATOM     22  C   UNL     1       0.818  10.204  20.620  0.00  0.00    +0.000 A 
ATOM     23  N   UNL     1       1.130  11.293  21.279  0.00  0.00    +0.000 NA
ATOM     24  C   UNL     1       1.702  12.123  20.351  0.00  0.00    +0.000 A 
ATOM     25  C   UNL     1       2.194  13.427  20.513  0.00  0.00    +0.000 A 
ATOM     26  C   UNL     1       2.728  14.088  19.402  0.00  0.00    +0.000 A 
ATOM     27  C   UNL     1       2.780  13.459  18.157  0.00  0.00    +0.000 A 
ATOM     28  C   UNL     1       2.294  12.159  17.974  0.00  0.00    +0.000 A 
ATOM     29  C   UNL     1       1.752  11.519  19.096  0.00  0.00    +0.000 A 
ATOM     30  N   UNL     1       1.159  10.288  19.294  0.00  0.00    +0.000 N 
BRANCH  22  32
ATOM     31  C   UNL     1      -0.360   9.459  22.956  0.00  0.00    +0.000 C 
ATOM     32  S   UNL     1       0.007   8.832  21.302  0.00  0.00    +0.000 S 
ENDBRANCH  22  32
ENDBRANCH  21  30
ENDBRANCH   1  21
TORSDOF 6
ENDMDL
MODEL 5
REMARK VINA RESULT:      -7.2      4.415      8.749
REMARK  Name = 
REMARK  7 active torsions:
REMARK  status: ('A' for Active; 'I' for Inactive)
REMARK    1  A    between atoms: C_1  and  S_2
REMARK    2  A    between atoms: S_2  and  C_3
REMARK    3  A    between atoms: N_11  and  C_12
REMARK    4  A    between atoms: C_12  and  C_13
REMARK    5  A    between atoms: N_15  and  C_16
REMARK    6  A    between atoms: C_18  and  C_19
REMARK    7  A    between atoms: C_25  and  N_26
REMARK                            x       y       z     vdW  Elec       q    Type
REMARK                         _______ _______ _______ _____ _____    ______ ____
ROOT
ATOM      1  C   UNL     1       2.074   8.152  18.895  0.00  0.00    +0.000 C 
ATOM      2  O   UNL     1       2.506   8.169  20.046  0.00  0.00    +0.000 OA
ATOM      3  N   UNL     1       2.532   7.308  17.883  0.00  0.00    +0.000 N 
ATOM      4  H   UNL     1       2.599   7.794  16.991  0.00  0.00    +0.000 HD
ENDROOT
BRANCH   3   5
ATOM      5  C   UNL     1       3.636   6.460  18.150  0.00  0.00    +0.000 A 
ATOM      6  C   UNL     1       4.897   6.915  17.724  0.00  0.00    +0.000 A 
ATOM      7  C   UNL     1       6.042   6.125  17.887  0.00  0.00    +0.000 A 
ATOM      8  C   UNL     1       5.899   4.867  18.479  0.00  0.00    +0.000 A 
ATOM      9  C   UNL     1       4.637   4.403  18.867  0.00  0.00    +0.000 A 
ATOM     10  C   UNL     1       3.463   5.163  18.699  0.00  0.00    +0.000 A 
BRANCH  10  11
ATOM     11  N   UNL     1       2.240   4.593  18.997  0.00  0.00    +0.000 N 
ATOM     12  C   UNL     1       1.598   4.730  20.315  0.00  0.00    +0.000 C 
ATOM     13  C   UNL     1       1.146   3.338  20.805  0.00  0.00    +0.000 C 
ATOM     14  O   UNL     1       0.335   2.644  19.838  0.00  0.00    +0.000 OA
ATOM     15  C   UNL     1       1.032   2.524  18.585  0.00  0.00    +0.000 C 
ATOM     16  C   UNL     1       1.380   3.909  18.027  0.00  0.00    +0.000 C 
ENDBRANCH  10  11
BRANCH   7  17
ATOM     17  C   UNL     1       7.399   6.605  17.440  0.00  0.00    +0.000 C 
ATOM     18  F   UNL     1       7.474   7.954  17.276  0.00  0.00    +0.000 F 
ATOM     19  F   UNL     1       8.389   6.277  18.316  0.00  0.00    +0.000 F 
ATOM     20  F   UNL     1       7.768   6.067  16.243  0.00  0.00    +0.000 F 
ENDBRANCH   7  17
ENDBRANCH   3   5
BRANCH   1  21
ATOM     21  C   UNL     1       0.912   9.028  18.478  0.00  0.00    +0.000 C 
BRANCH  21  30
ATOM     22  C   UNL     1       1.064  11.405  19.302  0.00  0.00    +0.000 A 
ATOM     23  N   UNL     1       0.768  12.108  20.368  0.00  0.00    +0.000 NA
ATOM     24  C   UNL     1       0.168  11.223  21.226  0.00  0.00    +0.000 A 
ATOM     25  C   UNL     1      -0.323  11.440  22.522  0.00  0.00    +0.000 A 
ATOM     26  C   UNL     1      -0.888  10.367  23.217  0.00  0.00    +0.000 A 
ATOM     27  C   UNL     1      -0.973   9.104  22.630  0.00  0.00    +0.000 A 
ATOM     28  C   UNL     1      -0.488   8.866  21.337  0.00  0.00    +0.000 A 
ATOM     29  C   UNL     1       0.086   9.951  20.664  0.00  0.00    +0.000 A 
ATOM     30  N   UNL     1       0.688  10.092  19.429  0.00  0.00    +0.000 N 
BRANCH  22  32
ATOM     31  C   UNL     1       2.326  13.675  18.493  0.00  0.00    +0.000 C 
ATOM     32  S   UNL     1       1.898  12.019  17.912  0.00  0.00    +0.000 S 
ENDBRANCH  22  32
ENDBRANCH  21  30
ENDBRANCH   1  21
TORSDOF 6
ENDMDL
MODEL 6
REMARK VINA RESULT:      -7.2      1.379      2.748
REMARK  Name = 
REMARK  7 active torsions:
REMARK  status: ('A' for Active; 'I' for Inactive)
REMARK    1  A    between atoms: C_1  and  S_2
REMARK    2  A    between atoms: S_2  and  C_3
REMARK    3  A    between atoms: N_11  and  C_12
REMARK    4  A    between atoms: C_12  and  C_13
REMARK    5  A    between atoms: N_15  and  C_16
REMARK    6  A    between atoms: C_18  and  C_19
REMARK    7  A    between atoms: C_25  and  N_26
REMARK                            x       y       z     vdW  Elec       q    Type
REMARK                         _______ _______ _______ _____ _____    ______ ____
ROOT
ATOM      1  C   UNL     1       1.356   8.488  19.957  0.00  0.00    +0.000 C 
ATOM      2  O   UNL     1       0.395   8.407  20.720  0.00  0.00    +0.000 OA
ATOM      3  N   UNL     1       1.470   9.404  18.912  0.00  0.00    +0.000 N 
ATOM      4  H   UNL     1       1.876   8.977  18.081  0.00  0.00    +0.000 HD
ENDROOT
BRANCH   3   5
ATOM      5  C   UNL     1       0.374  10.259  18.632  0.00  0.00    +0.000 A 
ATOM      6  C   UNL     1      -0.766   9.657  18.069  0.00  0.00    +0.000 A 
ATOM      7  C   UNL     1      -1.878  10.424  17.701  0.00  0.00    +0.000 A 
ATOM      8  C   UNL     1      -1.826  11.806  17.901  0.00  0.00    +0.000 A 
ATOM      9  C   UNL     1      -0.674  12.405  18.427  0.00  0.00    +0.000 A 
ATOM     10  C   UNL     1       0.469  11.666  18.789  0.00  0.00    +0.000 A 
BRANCH  10  11
ATOM     11  N   UNL     1       1.608  12.337  19.190  0.00  0.00    +0.000 N 
ATOM     12  C   UNL     1       1.916  12.607  20.604  0.00  0.00    +0.000 C 
ATOM     13  C   UNL     1       2.293  14.095  20.766  0.00  0.00    +0.000 C 
ATOM     14  O   UNL     1       3.335  14.506  19.861  0.00  0.00    +0.000 OA
ATOM     15  C   UNL     1       2.957  14.237  18.499  0.00  0.00    +0.000 C 
ATOM     16  C   UNL     1       2.698  12.740  18.296  0.00  0.00    +0.000 C 
ENDBRANCH  10  11
BRANCH   7  17
ATOM     17  C   UNL     1      -3.107   9.789  17.102  0.00  0.00    +0.000 C 
ATOM     18  F   UNL     1      -3.660   8.823  17.885  0.00  0.00    +0.000 F 
ATOM     19  F   UNL     1      -4.100  10.690  16.859  0.00  0.00    +0.000 F 
ATOM     20  F   UNL     1      -2.848   9.190  15.905  0.00  0.00    +0.000 F 
ENDBRANCH   7  17
ENDBRANCH   3   5
BRANCH   1  21
ATOM     21  C   UNL     1       2.578   7.613  20.137  0.00  0.00    +0.000 C 
BRANCH  21  30
ATOM     22  C   UNL     1       3.050   6.369  17.997  0.00  0.00    +0.000 A 
ATOM     23  N   UNL     1       2.793   5.208  17.445  0.00  0.00    +0.000 NA
ATOM     24  C   UNL     1       2.086   4.510  18.389  0.00  0.00    +0.000 A 
ATOM     25  C   UNL     1       1.539   3.221  18.313  0.00  0.00    +0.000 A 
ATOM     26  C   UNL     1       0.838   2.720  19.414  0.00  0.00    +0.000 A 
ATOM     27  C   UNL     1       0.694   3.483  20.574  0.00  0.00    +0.000 A 
ATOM     28  C   UNL     1       1.232   4.773  20.670  0.00  0.00    +0.000 A 
ATOM     29  C   UNL     1       1.919   5.260  19.552  0.00  0.00    +0.000 A 
ATOM     30  N   UNL     1       2.535   6.463  19.265  0.00  0.00    +0.000 N 
BRANCH  22  32
ATOM     31  C   UNL     1       5.079   6.755  16.226  0.00  0.00    +0.000 C 
ATOM     32  S   UNL     1       3.879   7.675  17.215  0.00  0.00    +0.000 S 
ENDBRANCH  22  32
ENDBRANCH  21  30
ENDBRANCH   1  21
TORSDOF 6
ENDMDL
MODEL 7
REMARK VINA RESULT:      -7.2      3.575      7.717
REMARK  Name = 
REMARK  7 active torsions:
REMARK  status: ('A' for Active; 'I' for Inactive)
REMARK    1  A    between atoms: C_1  and  S_2
REMARK    2  A    between atoms: S_2  and  C_3
REMARK    3  A    between atoms: N_11  and  C_12
REMARK    4  A    between atoms: C_12  and  C_13
REMARK    5  A    between atoms: N_15  and  C_16
REMARK    6  A    between atoms: C_18  and  C_19
REMARK    7  A    between atoms: C_25  and  N_26
REMARK                            x       y       z     vdW  Elec       q    Type
REMARK                         _______ _______ _______ _____ _____    ______ ____
ROOT
ATOM      1  C   UNL     1       2.239   8.311  17.981  0.00  0.00    +0.000 C 
ATOM      2  O   UNL     1       1.186   7.943  17.464  0.00  0.00    +0.000 OA
ATOM      3  N   UNL     1       3.287   7.466  18.346  0.00  0.00    +0.000 N 
ATOM      4  H   UNL     1       3.693   7.736  19.240  0.00  0.00    +0.000 HD
ENDROOT
BRANCH   3   5
ATOM      5  C   UNL     1       3.116   6.066  18.202  0.00  0.00    +0.000 A 
ATOM      6  C   UNL     1       2.145   5.463  19.022  0.00  0.00    +0.000 A 
ATOM      7  C   UNL     1       1.941   4.077  18.999  0.00  0.00    +0.000 A 
ATOM      8  C   UNL     1       2.732   3.306  18.143  0.00  0.00    +0.000 A 
ATOM      9  C   UNL     1       3.722   3.907  17.356  0.00  0.00    +0.000 A 
ATOM     10  C   UNL     1       3.967   5.294  17.370  0.00  0.00    +0.000 A 
BRANCH  10  11
ATOM     11  N   UNL     1       5.037   5.798  16.657  0.00  0.00    +0.000 N 
ATOM     12  C   UNL     1       5.322   5.406  15.267  0.00  0.00    +0.000 C 
ATOM     13  C   UNL     1       6.813   5.027  15.143  0.00  0.00    +0.000 C 
ATOM     14  O   UNL     1       7.691   6.052  15.644  0.00  0.00    +0.000 OA
ATOM     15  C   UNL     1       7.373   6.367  17.012  0.00  0.00    +0.000 C 
ATOM     16  C   UNL     1       5.928   6.862  17.130  0.00  0.00    +0.000 C 
ENDBRANCH  10  11
BRANCH   7  17
ATOM     17  C   UNL     1       0.900   3.421  19.869  0.00  0.00    +0.000 C 
ATOM     18  F   UNL     1       0.021   2.644  19.178  0.00  0.00    +0.000 F 
ATOM     19  F   UNL     1       1.443   2.615  20.823  0.00  0.00    +0.000 F 
ATOM     20  F   UNL     1       0.139   4.331  20.540  0.00  0.00    +0.000 F 
ENDBRANCH   7  17
ENDBRANCH   3   5
BRANCH   1  21
ATOM     21  C   UNL     1       2.531   9.778  18.210  0.00  0.00    +0.000 C 
BRANCH  21  30
ATOM     22  C   UNL     1       1.152  11.667  19.148  0.00  0.00    +0.000 A 
ATOM     23  N   UNL     1       0.341  11.902  20.151  0.00  0.00    +0.000 NA
ATOM     24  C   UNL     1       0.237  10.708  20.816  0.00  0.00    +0.000 A 
ATOM     25  C   UNL     1      -0.485  10.402  21.979  0.00  0.00    +0.000 A 
ATOM     26  C   UNL     1      -0.427   9.099  22.485  0.00  0.00    +0.000 A 
ATOM     27  C   UNL     1       0.326   8.118  21.839  0.00  0.00    +0.000 A 
ATOM     28  C   UNL     1       1.055   8.403  20.677  0.00  0.00    +0.000 A 
ATOM     29  C   UNL     1       0.994   9.716  20.195  0.00  0.00    +0.000 A 
ATOM     30  N   UNL     1       1.589  10.366  19.132  0.00  0.00    +0.000 N 
BRANCH  22  32
ATOM     31  C   UNL     1       2.740  13.874  19.060  0.00  0.00    +0.000 C 
ATOM     32  S   UNL     1       1.684  12.856  18.005  0.00  0.00    +0.000 S 
ENDBRANCH  22  32
ENDBRANCH  21  30
ENDBRANCH   1  21
TORSDOF 6
ENDMDL
MODEL 8
REMARK VINA RESULT:      -7.1      3.196      7.680
REMARK  Name = 
REMARK  7 active torsions:
REMARK  status: ('A' for Active; 'I' for Inactive)
REMARK    1  A    between atoms: C_1  and  S_2
REMARK    2  A    between atoms: S_2  and  C_3
REMARK    3  A    between atoms: N_11  and  C_12
REMARK    4  A    between atoms: C_12  and  C_13
REMARK    5  A    between atoms: N_15  and  C_16
REMARK    6  A    between atoms: C_18  and  C_19
REMARK    7  A    between atoms: C_25  and  N_26
REMARK                            x       y       z     vdW  Elec       q    Type
REMARK                         _______ _______ _______ _____ _____    ______ ____
ROOT
ATOM      1  C   UNL     1       2.043   8.581  18.544  0.00  0.00    +0.000 C 
ATOM      2  O   UNL     1       1.555   8.274  19.630  0.00  0.00    +0.000 OA
ATOM      3  N   UNL     1       2.675   7.695  17.673  0.00  0.00    +0.000 N 
ATOM      4  H   UNL     1       3.503   8.111  17.251  0.00  0.00    +0.000 HD
ENDROOT
BRANCH   3   5
ATOM      5  C   UNL     1       2.863   6.351  18.085  0.00  0.00    +0.000 A 
ATOM      6  C   UNL     1       1.890   5.816  18.948  0.00  0.00    +0.000 A 
ATOM      7  C   UNL     1       2.015   4.519  19.460  0.00  0.00    +0.000 A 
ATOM      8  C   UNL     1       3.136   3.769  19.095  0.00  0.00    +0.000 A 
ATOM      9  C   UNL     1       4.121   4.319  18.266  0.00  0.00    +0.000 A 
ATOM     10  C   UNL     1       4.036   5.628  17.751  0.00  0.00    +0.000 A 
BRANCH  10  11
ATOM     11  N   UNL     1       5.101   6.143  17.036  0.00  0.00    +0.000 N 
ATOM     12  C   UNL     1       5.362   5.789  15.632  0.00  0.00    +0.000 C 
ATOM     13  C   UNL     1       6.847   5.400  15.474  0.00  0.00    +0.000 C 
ATOM     14  O   UNL     1       7.742   6.402  15.992  0.00  0.00    +0.000 OA
ATOM     15  C   UNL     1       7.447   6.679  17.373  0.00  0.00    +0.000 C 
ATOM     16  C   UNL     1       6.009   7.184  17.527  0.00  0.00    +0.000 C 
ENDBRANCH  10  11
BRANCH   7  17
ATOM     17  C   UNL     1       0.976   3.932  20.381  0.00  0.00    +0.000 C 
ATOM     18  F   UNL     1       0.328   2.855  19.859  0.00  0.00    +0.000 F 
ATOM     19  F   UNL     1       1.498   3.518  21.568  0.00  0.00    +0.000 F 
ATOM     20  F   UNL     1       0.001   4.831  20.697  0.00  0.00    +0.000 F 
ENDBRANCH   7  17
ENDBRANCH   3   5
BRANCH   1  21
ATOM     21  C   UNL     1       1.928   9.991  18.003  0.00  0.00    +0.000 C 
BRANCH  21  30
ATOM     22  C   UNL     1       0.667  11.569  19.508  0.00  0.00    +0.000 A 
ATOM     23  N   UNL     1      -0.568  11.933  19.755  0.00  0.00    +0.000 NA
ATOM     24  C   UNL     1      -1.335  11.228  18.865  0.00  0.00    +0.000 A 
ATOM     25  C   UNL     1      -2.729  11.218  18.710  0.00  0.00    +0.000 A 
ATOM     26  C   UNL     1      -3.292  10.396  17.728  0.00  0.00    +0.000 A 
ATOM     27  C   UNL     1      -2.482   9.608  16.909  0.00  0.00    +0.000 A 
ATOM     28  C   UNL     1      -1.088   9.603  17.048  0.00  0.00    +0.000 A 
ATOM     29  C   UNL     1      -0.546  10.423  18.045  0.00  0.00    +0.000 A 
ATOM     30  N   UNL     1       0.741  10.649  18.494  0.00  0.00    +0.000 N 
BRANCH  22  32
ATOM     31  C   UNL     1       2.497  13.581  19.430  0.00  0.00    +0.000 C 
ATOM     32  S   UNL     1       2.055  12.116  20.391  0.00  0.00    +0.000 S 
ENDBRANCH  22  32
ENDBRANCH  21  30
ENDBRANCH   1  21
TORSDOF 6
ENDMDL
MODEL 9
REMARK VINA RESULT:      -7.0      3.500      7.548
REMARK  Name = 
REMARK  7 active torsions:
REMARK  status: ('A' for Active; 'I' for Inactive)
REMARK    1  A    between atoms: C_1  and  S_2
REMARK    2  A    between atoms: S_2  and  C_3
REMARK    3  A    between atoms: N_11  and  C_12
REMARK    4  A    between atoms: C_12  and  C_13
REMARK    5  A    between atoms: N_15  and  C_16
REMARK    6  A    between atoms: C_18  and  C_19
REMARK    7  A    between atoms: C_25  and  N_26
REMARK                            x       y       z     vdW  Elec       q    Type
REMARK                         _______ _______ _______ _____ _____    ______ ____
ROOT
ATOM      1  C   UNL     1       2.081   7.960  18.695  0.00  0.00    +0.000 C 
ATOM      2  O   UNL     1       1.808   7.562  19.825  0.00  0.00    +0.000 OA
ATOM      3  N   UNL     1       2.530   7.153  17.651  0.00  0.00    +0.000 N 
ATOM      4  H   UNL     1       3.265   7.608  17.113  0.00  0.00    +0.000 HD
ENDROOT
BRANCH   3   5
ATOM      5  C   UNL     1       2.785   5.782  17.910  0.00  0.00    +0.000 A 
ATOM      6  C   UNL     1       1.826   5.099  18.680  0.00  0.00    +0.000 A 
ATOM      7  C   UNL     1       2.013   3.758  19.041  0.00  0.00    +0.000 A 
ATOM      8  C   UNL     1       3.182   3.117  18.622  0.00  0.00    +0.000 A 
ATOM      9  C   UNL     1       4.151   3.813  17.888  0.00  0.00    +0.000 A 
ATOM     10  C   UNL     1       4.003   5.166  17.525  0.00  0.00    +0.000 A 
BRANCH  10  11
ATOM     11  N   UNL     1       5.051   5.817  16.904  0.00  0.00    +0.000 N 
ATOM     12  C   UNL     1       5.408   5.585  15.495  0.00  0.00    +0.000 C 
ATOM     13  C   UNL     1       6.928   5.333  15.392  0.00  0.00    +0.000 C 
ATOM     14  O   UNL     1       7.707   6.368  16.021  0.00  0.00    +0.000 OA
ATOM     15  C   UNL     1       7.323   6.523  17.399  0.00  0.00    +0.000 C 
ATOM     16  C   UNL     1       5.840   6.894  17.509  0.00  0.00    +0.000 C 
ENDBRANCH  10  11
BRANCH   7  17
ATOM     17  C   UNL     1       0.990   3.014  19.860  0.00  0.00    +0.000 C 
ATOM     18  F   UNL     1       1.527   2.059  20.668  0.00  0.00    +0.000 F 
ATOM     19  F   UNL     1       0.271   3.834  20.676  0.00  0.00    +0.000 F 
ATOM     20  F   UNL     1       0.076   2.368  19.082  0.00  0.00    +0.000 F 
ENDBRANCH   7  17
ENDBRANCH   3   5
BRANCH   1  21
ATOM     21  C   UNL     1       1.874   9.407  18.301  0.00  0.00    +0.000 C 
BRANCH  21  30
ATOM     22  C   UNL     1       0.355  10.416  20.039  0.00  0.00    +0.000 A 
ATOM     23  N   UNL     1      -0.908  10.734  20.191  0.00  0.00    +0.000 NA
ATOM     24  C   UNL     1      -1.501  10.431  18.993  0.00  0.00    +0.000 A 
ATOM     25  C   UNL     1      -2.846  10.551  18.616  0.00  0.00    +0.000 A 
ATOM     26  C   UNL     1      -3.222  10.162  17.326  0.00  0.00    +0.000 A 
ATOM     27  C   UNL     1      -2.274   9.672  16.426  0.00  0.00    +0.000 A 
ATOM     28  C   UNL     1      -0.926   9.544  16.784  0.00  0.00    +0.000 A 
ATOM     29  C   UNL     1      -0.573   9.928  18.083  0.00  0.00    +0.000 A 
ATOM     30  N   UNL     1       0.613   9.911  18.790  0.00  0.00    +0.000 N 
BRANCH  22  32
ATOM     31  C   UNL     1       0.870   9.430  22.522  0.00  0.00    +0.000 C 
ATOM     32  S   UNL     1       1.563  10.540  21.276  0.00  0.00    +0.000 S 
ENDBRANCH  22  32
ENDBRANCH  21  30
ENDBRANCH   1  21
TORSDOF 6
ENDMDL
