MODEL 1
REMARK VINA RESULT:      -8.2      0.000      0.000
REMARK  Name = 
REMARK  7 active torsions:
REMARK  status: ('A' for Active; 'I' for Inactive)
REMARK    1  A    between atoms: C_1  and  C_2
REMARK    2  A    between atoms: C_3  and  C_4
REMARK    3  A    between atoms: N_6  and  C_7
REMARK    4  A    between atoms: C_13  and  C_14
REMARK    5  A    between atoms: C_22  and  S_23
REMARK    6  A    between atoms: S_23  and  C_24
REMARK    7  A    between atoms: C_24  and  C_25
REMARK                            x       y       z     vdW  Elec       q    Type
REMARK                         _______ _______ _______ _____ _____    ______ ____
ROOT
ATOM      1  C   UNL     1       1.571  14.292  19.050  0.00  0.00    +0.000 C 
ATOM      2  C   UNL     1       1.067  12.876  18.897  0.00  0.00    +0.000 C 
ATOM      3  C   UNL     1      -0.051  12.314  19.437  0.00  0.00    +0.000 C 
ATOM      4  C   UNL     1      -0.382  10.820  19.140  0.00  0.00    +0.000 C 
ATOM      5  N   UNL     1       0.780  10.101  18.588  0.00  0.00    +0.000 N 
ATOM      6  N   UNL     1       0.977   8.750  18.603  0.00  0.00    +0.000 NA
ATOM      7  C   UNL     1       2.186   8.669  18.019  0.00  0.00    +0.000 A 
ATOM      8  N   UNL     1       2.747   9.878  17.674  0.00  0.00    +0.000 NA
ATOM      9  C   UNL     1       1.864  10.749  18.073  0.00  0.00    +0.000 A 
ATOM     10  N   UNL     1       1.919  12.093  18.117  0.00  0.00    +0.000 N 
ATOM     11  H   UNL     1       2.799  12.517  17.828  0.00  0.00    +0.000 HD
ENDROOT
BRANCH   4  12
ATOM     12  C   UNL     1      -1.555  10.671  18.166  0.00  0.00    +0.000 A 
ATOM     13  C   UNL     1      -2.573   9.720  18.365  0.00  0.00    +0.000 A 
ATOM     14  C   UNL     1      -3.647   9.624  17.479  0.00  0.00    +0.000 A 
ATOM     15  C   UNL     1      -3.734  10.490  16.394  0.00  0.00    +0.000 A 
ATOM     16  C   UNL     1      -2.745  11.449  16.190  0.00  0.00    +0.000 A 
ATOM     17  C   UNL     1      -1.662  11.539  17.067  0.00  0.00    +0.000 A 
ENDBRANCH   4  12
BRANCH   3  18
ATOM     18  C   UNL     1      -1.052  12.930  20.385  0.00  0.00    +0.000 C 
ATOM     19  O   UNL     1      -1.852  13.741  19.931  0.00  0.00    +0.000 OA
ATOM     20  N   UNL     1      -0.937  12.593  21.717  0.00  0.00    +0.000 N 
ATOM     21  H   UNL     1      -0.142  12.036  21.992  0.00  0.00    +0.000 HD
BRANCH  20  22
ATOM     22  C   UNL     1      -1.768  13.030  22.784  0.00  0.00    +0.000 A 
ATOM     23  C   UNL     1      -2.980  12.445  23.146  0.00  0.00    +0.000 A 
ATOM     24  C   UNL     1      -3.744  12.995  24.180  0.00  0.00    +0.000 A 
ATOM     25  C   UNL     1      -3.262  14.111  24.843  0.00  0.00    +0.000 A 
ATOM     26  N   UNL     1      -2.078  14.688  24.556  0.00  0.00    +0.000 NA
ATOM     27  C   UNL     1      -1.367  14.134  23.541  0.00  0.00    +0.000 A 
ENDBRANCH  20  22
ENDBRANCH   3  18
BRANCH   7  28
ATOM     28  S   UNL     1       3.159   7.226  17.876  0.00  0.00    +0.000 S 
BRANCH  28  29
ATOM     29  C   UNL     1       3.036   6.403  19.479  0.00  0.00    +0.000 C 
BRANCH  29  30
ATOM     30  C   UNL     1       2.324   5.070  19.341  0.00  0.00    +0.000 A 
ATOM     31  C   UNL     1       1.937   4.582  18.082  0.00  0.00    +0.000 A 
ATOM     32  C   UNL     1       1.223   3.381  17.967  0.00  0.00    +0.000 A 
ATOM     33  C   UNL     1       0.887   2.646  19.104  0.00  0.00    +0.000 A 
ATOM     34  C   UNL     1       1.264   3.114  20.360  0.00  0.00    +0.000 A 
ATOM     35  C   UNL     1       1.973   4.318  20.469  0.00  0.00    +0.000 A 
ATOM     36  F   UNL     1       2.315   4.740  21.692  0.00  0.00    +0.000 F 
ENDBRANCH  29  30
ENDBRANCH  28  29
ENDBRANCH   7  28
TORSDOF 6
ENDMDL
MODEL 2
REMARK VINA RESULT:      -8.0      1.024      1.471
REMARK  Name = 
REMARK  7 active torsions:
REMARK  status: ('A' for Active; 'I' for Inactive)
REMARK    1  A    between atoms: C_1  and  C_2
REMARK    2  A    between atoms: C_3  and  C_4
REMARK    3  A    between atoms: N_6  and  C_7
REMARK    4  A    between atoms: C_13  and  C_14
REMARK    5  A    between atoms: C_22  and  S_23
REMARK    6  A    between atoms: S_23  and  C_24
REMARK    7  A    between atoms: C_24  and  C_25
REMARK                            x       y       z     vdW  Elec       q    Type
REMARK                         _______ _______ _______ _____ _____    ______ ____
ROOT
ATOM      1  C   UNL     1       1.356  14.442  19.183  0.00  0.00    +0.000 C 
ATOM      2  C   UNL     1       0.878  13.025  18.973  0.00  0.00    +0.000 C 
ATOM      3  C   UNL     1      -0.249  12.432  19.459  0.00  0.00    +0.000 C 
ATOM      4  C   UNL     1      -0.549  10.943  19.107  0.00  0.00    +0.000 C 
ATOM      5  N   UNL     1       0.640  10.256  18.573  0.00  0.00    +0.000 N 
ATOM      6  N   UNL     1       0.856   8.909  18.554  0.00  0.00    +0.000 NA
ATOM      7  C   UNL     1       2.084   8.861  18.008  0.00  0.00    +0.000 A 
ATOM      8  N   UNL     1       2.639  10.087  17.717  0.00  0.00    +0.000 NA
ATOM      9  C   UNL     1       1.731  10.934  18.113  0.00  0.00    +0.000 A 
ATOM     10  N   UNL     1       1.766  12.276  18.198  0.00  0.00    +0.000 N 
ATOM     11  H   UNL     1       2.649  12.721  17.951  0.00  0.00    +0.000 HD
ENDROOT
BRANCH   4  12
ATOM     12  C   UNL     1      -1.687  10.808  18.090  0.00  0.00    +0.000 A 
ATOM     13  C   UNL     1      -1.770  11.630  16.951  0.00  0.00    +0.000 A 
ATOM     14  C   UNL     1      -2.801  11.467  16.024  0.00  0.00    +0.000 A 
ATOM     15  C   UNL     1      -3.751  10.468  16.207  0.00  0.00    +0.000 A 
ATOM     16  C   UNL     1      -3.676   9.634  17.319  0.00  0.00    +0.000 A 
ATOM     17  C   UNL     1      -2.653   9.802  18.256  0.00  0.00    +0.000 A 
ENDBRANCH   4  12
BRANCH   3  18
ATOM     18  C   UNL     1      -1.289  13.006  20.390  0.00  0.00    +0.000 C 
ATOM     19  O   UNL     1      -1.483  14.217  20.362  0.00  0.00    +0.000 OA
ATOM     20  N   UNL     1      -1.890  12.130  21.269  0.00  0.00    +0.000 N 
ATOM     21  H   UNL     1      -1.536  11.184  21.303  0.00  0.00    +0.000 HD
BRANCH  20  22
ATOM     22  C   UNL     1      -2.901  12.431  22.221  0.00  0.00    +0.000 A 
ATOM     23  C   UNL     1      -2.694  12.562  23.594  0.00  0.00    +0.000 A 
ATOM     24  C   UNL     1      -3.774  12.805  24.446  0.00  0.00    +0.000 A 
ATOM     25  C   UNL     1      -5.039  12.931  23.899  0.00  0.00    +0.000 A 
ATOM     26  N   UNL     1      -5.284  12.852  22.576  0.00  0.00    +0.000 NA
ATOM     27  C   UNL     1      -4.214  12.607  21.777  0.00  0.00    +0.000 A 
ENDBRANCH  20  22
ENDBRANCH   3  18
BRANCH   7  28
ATOM     28  S   UNL     1       3.082   7.436  17.855  0.00  0.00    +0.000 S 
BRANCH  28  29
ATOM     29  C   UNL     1       2.785   6.478  19.357  0.00  0.00    +0.000 C 
BRANCH  29  30
ATOM     30  C   UNL     1       2.391   5.054  19.013  0.00  0.00    +0.000 A 
ATOM     31  C   UNL     1       2.916   4.410  17.880  0.00  0.00    +0.000 A 
ATOM     32  C   UNL     1       2.499   3.118  17.531  0.00  0.00    +0.000 A 
ATOM     33  C   UNL     1       1.554   2.446  18.307  0.00  0.00    +0.000 A 
ATOM     34  C   UNL     1       1.023   3.069  19.434  0.00  0.00    +0.000 A 
ATOM     35  C   UNL     1       1.441   4.362  19.774  0.00  0.00    +0.000 A 
ATOM     36  F   UNL     1       0.907   4.932  20.861  0.00  0.00    +0.000 F 
ENDBRANCH  29  30
ENDBRANCH  28  29
ENDBRANCH   7  28
TORSDOF 6
ENDMDL
MODEL 3
REMARK VINA RESULT:      -7.8      2.245      3.635
REMARK  Name = 
REMARK  7 active torsions:
REMARK  status: ('A' for Active; 'I' for Inactive)
REMARK    1  A    between atoms: C_1  and  C_2
REMARK    2  A    between atoms: C_3  and  C_4
REMARK    3  A    between atoms: N_6  and  C_7
REMARK    4  A    between atoms: C_13  and  C_14
REMARK    5  A    between atoms: C_22  and  S_23
REMARK    6  A    between atoms: S_23  and  C_24
REMARK    7  A    between atoms: C_24  and  C_25
REMARK                            x       y       z     vdW  Elec       q    Type
REMARK                         _______ _______ _______ _____ _____    ______ ____
ROOT
ATOM      1  C   UNL     1      -1.151  10.497  23.166  0.00  0.00    +0.000 C 
ATOM      2  C   UNL     1      -0.406  10.582  21.855  0.00  0.00    +0.000 C 
ATOM      3  C   UNL     1      -0.596  11.460  20.830  0.00  0.00    +0.000 C 
ATOM      4  C   UNL     1       0.301  11.365  19.558  0.00  0.00    +0.000 C 
ATOM      5  N   UNL     1       1.017  10.079  19.487  0.00  0.00    +0.000 N 
ATOM      6  N   UNL     1       1.536   9.503  18.364  0.00  0.00    +0.000 NA
ATOM      7  C   UNL     1       2.021   8.357  18.875  0.00  0.00    +0.000 A 
ATOM      8  N   UNL     1       1.810   8.186  20.224  0.00  0.00    +0.000 NA
ATOM      9  C   UNL     1       1.152   9.258  20.568  0.00  0.00    +0.000 A 
ATOM     10  N   UNL     1       0.566   9.587  21.733  0.00  0.00    +0.000 N 
ATOM     11  H   UNL     1       0.599   8.883  22.469  0.00  0.00    +0.000 HD
ENDROOT
BRANCH   4  12
ATOM     12  C   UNL     1       1.328  12.500  19.491  0.00  0.00    +0.000 A 
ATOM     13  C   UNL     1       2.017  12.950  20.633  0.00  0.00    +0.000 A 
ATOM     14  C   UNL     1       2.970  13.965  20.540  0.00  0.00    +0.000 A 
ATOM     15  C   UNL     1       3.267  14.531  19.305  0.00  0.00    +0.000 A 
ATOM     16  C   UNL     1       2.609  14.087  18.162  0.00  0.00    +0.000 A 
ATOM     17  C   UNL     1       1.645  13.080  18.252  0.00  0.00    +0.000 A 
ENDBRANCH   4  12
BRANCH   3  18
ATOM     18  C   UNL     1      -1.643  12.539  20.696  0.00  0.00    +0.000 C 
ATOM     19  O   UNL     1      -2.529  12.383  19.862  0.00  0.00    +0.000 OA
ATOM     20  N   UNL     1      -1.477  13.668  21.470  0.00  0.00    +0.000 N 
ATOM     21  H   UNL     1      -0.624  13.747  22.005  0.00  0.00    +0.000 HD
BRANCH  20  22
ATOM     22  C   UNL     1      -2.334  14.800  21.527  0.00  0.00    +0.000 A 
ATOM     23  C   UNL     1      -2.222  15.930  20.718  0.00  0.00    +0.000 A 
ATOM     24  C   UNL     1      -3.088  17.012  20.900  0.00  0.00    +0.000 A 
ATOM     25  C   UNL     1      -4.061  16.928  21.881  0.00  0.00    +0.000 A 
ATOM     26  N   UNL     1      -4.233  15.843  22.662  0.00  0.00    +0.000 NA
ATOM     27  C   UNL     1      -3.371  14.813  22.463  0.00  0.00    +0.000 A 
ENDBRANCH  20  22
ENDBRANCH   3  18
BRANCH   7  28
ATOM     28  S   UNL     1       2.670   7.021  17.955  0.00  0.00    +0.000 S 
BRANCH  28  29
ATOM     29  C   UNL     1       3.293   5.851  19.183  0.00  0.00    +0.000 C 
BRANCH  29  30
ATOM     30  C   UNL     1       2.568   4.523  19.069  0.00  0.00    +0.000 A 
ATOM     31  C   UNL     1       2.934   3.579  18.096  0.00  0.00    +0.000 A 
ATOM     32  C   UNL     1       2.219   2.381  17.954  0.00  0.00    +0.000 A 
ATOM     33  C   UNL     1       1.132   2.104  18.782  0.00  0.00    +0.000 A 
ATOM     34  C   UNL     1       0.756   3.028  19.754  0.00  0.00    +0.000 A 
ATOM     35  C   UNL     1       1.471   4.225  19.887  0.00  0.00    +0.000 A 
ATOM     36  F   UNL     1       1.080   5.093  20.828  0.00  0.00    +0.000 F 
ENDBRANCH  29  30
ENDBRANCH  28  29
ENDBRANCH   7  28
TORSDOF 6
ENDMDL
MODEL 4
REMARK VINA RESULT:      -7.8      4.482      6.686
REMARK  Name = 
REMARK  7 active torsions:
REMARK  status: ('A' for Active; 'I' for Inactive)
REMARK    1  A    between atoms: C_1  and  C_2
REMARK    2  A    between atoms: C_3  and  C_4
REMARK    3  A    between atoms: N_6  and  C_7
REMARK    4  A    between atoms: C_13  and  C_14
REMARK    5  A    between atoms: C_22  and  S_23
REMARK    6  A    between atoms: S_23  and  C_24
REMARK    7  A    between atoms: C_24  and  C_25
REMARK                            x       y       z     vdW  Elec       q    Type
REMARK                         _______ _______ _______ _____ _____    ______ ____
ROOT
ATOM      1  C   UNL     1       1.333   8.968  17.464  0.00  0.00    +0.000 C 
ATOM      2  C   UNL     1       2.146   7.843  18.060  0.00  0.00    +0.000 C 
ATOM      3  C   UNL     1       2.252   7.479  19.369  0.00  0.00    +0.000 C 
ATOM      4  C   UNL     1       3.156   6.270  19.762  0.00  0.00    +0.000 C 
ATOM      5  N   UNL     1       4.075   5.897  18.672  0.00  0.00    +0.000 N 
ATOM      6  N   UNL     1       5.239   5.197  18.800  0.00  0.00    +0.000 NA
ATOM      7  C   UNL     1       5.666   5.189  17.525  0.00  0.00    +0.000 A 
ATOM      8  N   UNL     1       4.855   5.858  16.636  0.00  0.00    +0.000 NA
ATOM      9  C   UNL     1       3.893   6.316  17.387  0.00  0.00    +0.000 A 
ATOM     10  N   UNL     1       2.879   7.150  17.095  0.00  0.00    +0.000 N 
ATOM     11  H   UNL     1       2.861   7.524  16.147  0.00  0.00    +0.000 HD
ENDROOT
BRANCH   4  12
ATOM     12  C   UNL     1       2.333   5.037  20.149  0.00  0.00    +0.000 A 
ATOM     13  C   UNL     1       1.407   4.451  19.266  0.00  0.00    +0.000 A 
ATOM     14  C   UNL     1       0.691   3.311  19.632  0.00  0.00    +0.000 A 
ATOM     15  C   UNL     1       0.904   2.723  20.875  0.00  0.00    +0.000 A 
ATOM     16  C   UNL     1       1.829   3.278  21.756  0.00  0.00    +0.000 A 
ATOM     17  C   UNL     1       2.537   4.428  21.398  0.00  0.00    +0.000 A 
ENDBRANCH   4  12
BRANCH   3  18
ATOM     18  C   UNL     1       1.643   8.138  20.584  0.00  0.00    +0.000 C 
ATOM     19  O   UNL     1       1.843   7.624  21.680  0.00  0.00    +0.000 OA
ATOM     20  N   UNL     1       0.834   9.231  20.359  0.00  0.00    +0.000 N 
ATOM     21  H   UNL     1       0.620   9.467  19.401  0.00  0.00    +0.000 HD
BRANCH  20  22
ATOM     22  C   UNL     1       0.169  10.019  21.338  0.00  0.00    +0.000 A 
ATOM     23  C   UNL     1      -0.495   9.515  22.455  0.00  0.00    +0.000 A 
ATOM     24  C   UNL     1      -1.164  10.382  23.323  0.00  0.00    +0.000 A 
ATOM     25  C   UNL     1      -1.135  11.741  23.061  0.00  0.00    +0.000 A 
ATOM     26  N   UNL     1      -0.474  12.279  22.017  0.00  0.00    +0.000 NA
ATOM     27  C   UNL     1       0.158  11.408  21.189  0.00  0.00    +0.000 A 
ENDBRANCH  20  22
ENDBRANCH   3  18
BRANCH   7  28
ATOM     28  S   UNL     1       7.220   4.617  16.969  0.00  0.00    +0.000 S 
BRANCH  28  29
ATOM     29  C   UNL     1       7.598   5.601  15.502  0.00  0.00    +0.000 C 
BRANCH  29  30
ATOM     30  C   UNL     1       7.128   4.889  14.247  0.00  0.00    +0.000 A 
ATOM     31  C   UNL     1       6.046   3.995  14.283  0.00  0.00    +0.000 A 
ATOM     32  C   UNL     1       5.658   3.292  13.134  0.00  0.00    +0.000 A 
ATOM     33  C   UNL     1       6.340   3.472  11.930  0.00  0.00    +0.000 A 
ATOM     34  C   UNL     1       7.414   4.356  11.876  0.00  0.00    +0.000 A 
ATOM     35  C   UNL     1       7.800   5.051  13.029  0.00  0.00    +0.000 A 
ATOM     36  F   UNL     1       8.840   5.889  12.942  0.00  0.00    +0.000 F 
ENDBRANCH  29  30
ENDBRANCH  28  29
ENDBRANCH   7  28
TORSDOF 6
ENDMDL
MODEL 5
REMARK VINA RESULT:      -7.7      1.173      1.459
REMARK  Name = 
REMARK  7 active torsions:
REMARK  status: ('A' for Active; 'I' for Inactive)
REMARK    1  A    between atoms: C_1  and  C_2
REMARK    2  A    between atoms: C_3  and  C_4
REMARK    3  A    between atoms: N_6  and  C_7
REMARK    4  A    between atoms: C_13  and  C_14
REMARK    5  A    between atoms: C_22  and  S_23
REMARK    6  A    between atoms: S_23  and  C_24
REMARK    7  A    between atoms: C_24  and  C_25
REMARK                            x       y       z     vdW  Elec       q    Type
REMARK                         _______ _______ _______ _____ _____    ______ ____
ROOT
ATOM      1  C   UNL     1       1.904  14.253  18.785  0.00  0.00    +0.000 C 
ATOM      2  C   UNL     1       1.319  12.861  18.770  0.00  0.00    +0.000 C 
ATOM      3  C   UNL     1       0.206  12.406  19.413  0.00  0.00    +0.000 C 
ATOM      4  C   UNL     1      -0.220  10.915  19.252  0.00  0.00    +0.000 C 
ATOM      5  N   UNL     1       0.867  10.091  18.694  0.00  0.00    +0.000 N 
ATOM      6  N   UNL     1       0.994   8.737  18.803  0.00  0.00    +0.000 NA
ATOM      7  C   UNL     1       2.159   8.543  18.160  0.00  0.00    +0.000 A 
ATOM      8  N   UNL     1       2.762   9.689  17.692  0.00  0.00    +0.000 NA
ATOM      9  C   UNL     1       1.951  10.637  18.071  0.00  0.00    +0.000 A 
ATOM     10  N   UNL     1       2.080  11.974  18.007  0.00  0.00    +0.000 N 
ATOM     11  H   UNL     1       2.963  12.325  17.638  0.00  0.00    +0.000 HD
ENDROOT
BRANCH   4  12
ATOM     12  C   UNL     1      -1.455  10.761  18.358  0.00  0.00    +0.000 A 
ATOM     13  C   UNL     1      -1.460   9.916  17.233  0.00  0.00    +0.000 A 
ATOM     14  C   UNL     1      -2.607   9.771  16.452  0.00  0.00    +0.000 A 
ATOM     15  C   UNL     1      -3.774  10.448  16.794  0.00  0.00    +0.000 A 
ATOM     16  C   UNL     1      -3.793  11.275  17.913  0.00  0.00    +0.000 A 
ATOM     17  C   UNL     1      -2.643  11.433  18.690  0.00  0.00    +0.000 A 
ENDBRANCH   4  12
BRANCH   3  18
ATOM     18  C   UNL     1      -0.702  13.146  20.364  0.00  0.00    +0.000 C 
ATOM     19  O   UNL     1      -1.218  14.189  19.974  0.00  0.00    +0.000 OA
ATOM     20  N   UNL     1      -0.821  12.634  21.639  0.00  0.00    +0.000 N 
ATOM     21  H   UNL     1      -0.227  11.857  21.888  0.00  0.00    +0.000 HD
BRANCH  20  22
ATOM     22  C   UNL     1      -1.624  13.144  22.694  0.00  0.00    +0.000 A 
ATOM     23  C   UNL     1      -2.901  12.690  23.020  0.00  0.00    +0.000 A 
ATOM     24  C   UNL     1      -3.625  13.305  24.046  0.00  0.00    +0.000 A 
ATOM     25  C   UNL     1      -3.041  14.353  24.736  0.00  0.00    +0.000 A 
ATOM     26  N   UNL     1      -1.795  14.802  24.485  0.00  0.00    +0.000 NA
ATOM     27  C   UNL     1      -1.124  14.188  23.478  0.00  0.00    +0.000 A 
ENDBRANCH  20  22
ENDBRANCH   3  18
BRANCH   7  28
ATOM     28  S   UNL     1       3.045   7.040  18.076  0.00  0.00    +0.000 S 
BRANCH  28  29
ATOM     29  C   UNL     1       1.788   5.743  18.046  0.00  0.00    +0.000 C 
BRANCH  29  30
ATOM     30  C   UNL     1       2.101   4.673  19.074  0.00  0.00    +0.000 A 
ATOM     31  C   UNL     1       1.516   4.701  20.351  0.00  0.00    +0.000 A 
ATOM     32  C   UNL     1       1.858   3.746  21.319  0.00  0.00    +0.000 A 
ATOM     33  C   UNL     1       2.786   2.746  21.028  0.00  0.00    +0.000 A 
ATOM     34  C   UNL     1       3.375   2.702  19.767  0.00  0.00    +0.000 A 
ATOM     35  C   UNL     1       3.032   3.662  18.806  0.00  0.00    +0.000 A 
ATOM     36  F   UNL     1       3.621   3.592  17.606  0.00  0.00    +0.000 F 
ENDBRANCH  29  30
ENDBRANCH  28  29
ENDBRANCH   7  28
TORSDOF 6
ENDMDL
MODEL 6
REMARK VINA RESULT:      -7.7      2.344      3.749
REMARK  Name = 
REMARK  7 active torsions:
REMARK  status: ('A' for Active; 'I' for Inactive)
REMARK    1  A    between atoms: C_1  and  C_2
REMARK    2  A    between atoms: C_3  and  C_4
REMARK    3  A    between atoms: N_6  and  C_7
REMARK    4  A    between atoms: C_13  and  C_14
REMARK    5  A    between atoms: C_22  and  S_23
REMARK    6  A    between atoms: S_23  and  C_24
REMARK    7  A    between atoms: C_24  and  C_25
REMARK                            x       y       z     vdW  Elec       q    Type
REMARK                         _______ _______ _______ _____ _____    ______ ____
ROOT
ATOM      1  C   UNL     1      -0.850   9.568  23.076  0.00  0.00    +0.000 C 
ATOM      2  C   UNL     1      -0.129   9.686  21.754  0.00  0.00    +0.000 C 
ATOM      3  C   UNL     1      -0.398  10.530  20.718  0.00  0.00    +0.000 C 
ATOM      4  C   UNL     1       0.488  10.481  19.436  0.00  0.00    +0.000 C 
ATOM      5  N   UNL     1       1.298   9.251  19.375  0.00  0.00    +0.000 N 
ATOM      6  N   UNL     1       1.844   8.697  18.255  0.00  0.00    +0.000 NA
ATOM      7  C   UNL     1       2.420   7.599  18.776  0.00  0.00    +0.000 A 
ATOM      8  N   UNL     1       2.238   7.435  20.131  0.00  0.00    +0.000 NA
ATOM      9  C   UNL     1       1.507   8.460  20.467  0.00  0.00    +0.000 A 
ATOM     10  N   UNL     1       0.912   8.764  21.634  0.00  0.00    +0.000 N 
ATOM     11  H   UNL     1       1.007   8.077  22.381  0.00  0.00    +0.000 HD
ENDROOT
BRANCH   4  12
ATOM     12  C   UNL     1       1.428  11.688  19.337  0.00  0.00    +0.000 A 
ATOM     13  C   UNL     1       2.029  12.067  18.122  0.00  0.00    +0.000 A 
ATOM     14  C   UNL     1       2.857  13.187  18.052  0.00  0.00    +0.000 A 
ATOM     15  C   UNL     1       3.080  13.961  19.187  0.00  0.00    +0.000 A 
ATOM     16  C   UNL     1       2.481  13.612  20.393  0.00  0.00    +0.000 A 
ATOM     17  C   UNL     1       1.661  12.483  20.471  0.00  0.00    +0.000 A 
ENDBRANCH   4  12
BRANCH   3  18
ATOM     18  C   UNL     1      -1.523  11.527  20.581  0.00  0.00    +0.000 C 
ATOM     19  O   UNL     1      -2.031  11.674  19.474  0.00  0.00    +0.000 OA
ATOM     20  N   UNL     1      -1.844  12.262  21.702  0.00  0.00    +0.000 N 
ATOM     21  H   UNL     1      -1.252  12.161  22.514  0.00  0.00    +0.000 HD
BRANCH  20  22
ATOM     22  C   UNL     1      -2.869  13.240  21.820  0.00  0.00    +0.000 A 
ATOM     23  C   UNL     1      -2.761  14.567  21.405  0.00  0.00    +0.000 A 
ATOM     24  C   UNL     1      -3.816  15.458  21.623  0.00  0.00    +0.000 A 
ATOM     25  C   UNL     1      -4.966  14.991  22.236  0.00  0.00    +0.000 A 
ATOM     26  N   UNL     1      -5.132  13.710  22.619  0.00  0.00    +0.000 NA
ATOM     27  C   UNL     1      -4.086  12.873  22.400  0.00  0.00    +0.000 A 
ENDBRANCH  20  22
ENDBRANCH   3  18
BRANCH   7  28
ATOM     28  S   UNL     1       3.155   6.299  17.869  0.00  0.00    +0.000 S 
BRANCH  28  29
ATOM     29  C   UNL     1       1.942   4.961  17.879  0.00  0.00    +0.000 C 
BRANCH  29  30
ATOM     30  C   UNL     1       2.116   4.092  19.110  0.00  0.00    +0.000 A 
ATOM     31  C   UNL     1       1.144   4.067  20.124  0.00  0.00    +0.000 A 
ATOM     32  C   UNL     1       1.340   3.312  21.288  0.00  0.00    +0.000 A 
ATOM     33  C   UNL     1       2.507   2.567  21.460  0.00  0.00    +0.000 A 
ATOM     34  C   UNL     1       3.481   2.579  20.465  0.00  0.00    +0.000 A 
ATOM     35  C   UNL     1       3.281   3.340  19.306  0.00  0.00    +0.000 A 
ATOM     36  F   UNL     1       4.240   3.331  18.372  0.00  0.00    +0.000 F 
ENDBRANCH  29  30
ENDBRANCH  28  29
ENDBRANCH   7  28
TORSDOF 6
ENDMDL
MODEL 7
REMARK VINA RESULT:      -7.7      1.152      1.508
REMARK  Name = 
REMARK  7 active torsions:
REMARK  status: ('A' for Active; 'I' for Inactive)
REMARK    1  A    between atoms: C_1  and  C_2
REMARK    2  A    between atoms: C_3  and  C_4
REMARK    3  A    between atoms: N_6  and  C_7
REMARK    4  A    between atoms: C_13  and  C_14
REMARK    5  A    between atoms: C_22  and  S_23
REMARK    6  A    between atoms: S_23  and  C_24
REMARK    7  A    between atoms: C_24  and  C_25
REMARK                            x       y       z     vdW  Elec       q    Type
REMARK                         _______ _______ _______ _____ _____    ______ ____
ROOT
ATOM      1  C   UNL     1       1.786  14.360  18.679  0.00  0.00    +0.000 C 
ATOM      2  C   UNL     1       1.147  12.992  18.729  0.00  0.00    +0.000 C 
ATOM      3  C   UNL     1       0.060  12.594  19.449  0.00  0.00    +0.000 C 
ATOM      4  C   UNL     1      -0.434  11.119  19.345  0.00  0.00    +0.000 C 
ATOM      5  N   UNL     1       0.583  10.242  18.736  0.00  0.00    +0.000 N 
ATOM      6  N   UNL     1       0.662   8.886  18.864  0.00  0.00    +0.000 NA
ATOM      7  C   UNL     1       1.776   8.634  18.155  0.00  0.00    +0.000 A 
ATOM      8  N   UNL     1       2.393   9.746  17.627  0.00  0.00    +0.000 NA
ATOM      9  C   UNL     1       1.646  10.732  18.036  0.00  0.00    +0.000 A 
ATOM     10  N   UNL     1       1.823  12.062  17.938  0.00  0.00    +0.000 N 
ATOM     11  H   UNL     1       2.694  12.370  17.507  0.00  0.00    +0.000 HD
ENDROOT
BRANCH   4  12
ATOM     12  C   UNL     1      -1.728  11.000  18.533  0.00  0.00    +0.000 A 
ATOM     13  C   UNL     1      -2.878  11.747  18.850  0.00  0.00    +0.000 A 
ATOM     14  C   UNL     1      -4.035  11.643  18.077  0.00  0.00    +0.000 A 
ATOM     15  C   UNL     1      -4.056  10.810  16.963  0.00  0.00    +0.000 A 
ATOM     16  C   UNL     1      -2.923  10.076  16.624  0.00  0.00    +0.000 A 
ATOM     17  C   UNL     1      -1.767  10.167  17.403  0.00  0.00    +0.000 A 
ENDBRANCH   4  12
BRANCH   3  18
ATOM     18  C   UNL     1      -0.757  13.388  20.440  0.00  0.00    +0.000 C 
ATOM     19  O   UNL     1      -1.155  14.498  20.101  0.00  0.00    +0.000 OA
ATOM     20  N   UNL     1      -0.928  12.835  21.691  0.00  0.00    +0.000 N 
ATOM     21  H   UNL     1      -0.422  11.986  21.901  0.00  0.00    +0.000 HD
BRANCH  20  22
ATOM     22  C   UNL     1      -1.665  13.383  22.775  0.00  0.00    +0.000 A 
ATOM     23  C   UNL     1      -1.237  14.436  23.584  0.00  0.00    +0.000 A 
ATOM     24  C   UNL     1      -2.022  14.857  24.661  0.00  0.00    +0.000 A 
ATOM     25  C   UNL     1      -3.231  14.224  24.891  0.00  0.00    +0.000 A 
ATOM     26  N   UNL     1      -3.705  13.230  24.115  0.00  0.00    +0.000 NA
ATOM     27  C   UNL     1      -2.914  12.840  23.083  0.00  0.00    +0.000 A 
ENDBRANCH  20  22
ENDBRANCH   3  18
BRANCH   7  28
ATOM     28  S   UNL     1       2.595   7.095  18.046  0.00  0.00    +0.000 S 
BRANCH  28  29
ATOM     29  C   UNL     1       2.791   6.533  19.751  0.00  0.00    +0.000 C 
BRANCH  29  30
ATOM     30  C   UNL     1       2.446   5.061  19.871  0.00  0.00    +0.000 A 
ATOM     31  C   UNL     1       1.288   4.639  20.544  0.00  0.00    +0.000 A 
ATOM     32  C   UNL     1       1.009   3.275  20.707  0.00  0.00    +0.000 A 
ATOM     33  C   UNL     1       1.877   2.310  20.198  0.00  0.00    +0.000 A 
ATOM     34  C   UNL     1       3.030   2.709  19.527  0.00  0.00    +0.000 A 
ATOM     35  C   UNL     1       3.306   4.074  19.372  0.00  0.00    +0.000 A 
ATOM     36  F   UNL     1       4.425   4.422  18.725  0.00  0.00    +0.000 F 
ENDBRANCH  29  30
ENDBRANCH  28  29
ENDBRANCH   7  28
TORSDOF 6
ENDMDL
MODEL 8
REMARK VINA RESULT:      -7.7      0.990      1.074
REMARK  Name = 
REMARK  7 active torsions:
REMARK  status: ('A' for Active; 'I' for Inactive)
REMARK    1  A    between atoms: C_1  and  C_2
REMARK    2  A    between atoms: C_3  and  C_4
REMARK    3  A    between atoms: N_6  and  C_7
REMARK    4  A    between atoms: C_13  and  C_14
REMARK    5  A    between atoms: C_22  and  S_23
REMARK    6  A    between atoms: S_23  and  C_24
REMARK    7  A    between atoms: C_24  and  C_25
REMARK                            x       y       z     vdW  Elec       q    Type
REMARK                         _______ _______ _______ _____ _____    ______ ____
ROOT
ATOM      1  C   UNL     1       1.684  14.572  18.827  0.00  0.00    +0.000 C 
ATOM      2  C   UNL     1       1.112  13.174  18.819  0.00  0.00    +0.000 C 
ATOM      3  C   UNL     1       0.027  12.702  19.495  0.00  0.00    +0.000 C 
ATOM      4  C   UNL     1      -0.390  11.208  19.334  0.00  0.00    +0.000 C 
ATOM      5  N   UNL     1       0.686  10.400  18.732  0.00  0.00    +0.000 N 
ATOM      6  N   UNL     1       0.829   9.046  18.823  0.00  0.00    +0.000 NA
ATOM      7  C   UNL     1       1.974   8.871  18.139  0.00  0.00    +0.000 A 
ATOM      8  N   UNL     1       2.549  10.027  17.662  0.00  0.00    +0.000 NA
ATOM      9  C   UNL     1       1.742  10.963  18.077  0.00  0.00    +0.000 A 
ATOM     10  N   UNL     1       1.856  12.302  18.022  0.00  0.00    +0.000 N 
ATOM     11  H   UNL     1       2.722  12.665  17.627  0.00  0.00    +0.000 HD
ENDROOT
BRANCH   4  12
ATOM     12  C   UNL     1      -1.654  11.050  18.482  0.00  0.00    +0.000 A 
ATOM     13  C   UNL     1      -1.678  10.244  17.328  0.00  0.00    +0.000 A 
ATOM     14  C   UNL     1      -2.850  10.094  16.585  0.00  0.00    +0.000 A 
ATOM     15  C   UNL     1      -4.020  10.725  16.994  0.00  0.00    +0.000 A 
ATOM     16  C   UNL     1      -4.020  11.512  18.142  0.00  0.00    +0.000 A 
ATOM     17  C   UNL     1      -2.845  11.676  18.881  0.00  0.00    +0.000 A 
ENDBRANCH   4  12
BRANCH   3  18
ATOM     18  C   UNL     1      -0.856  13.424  20.484  0.00  0.00    +0.000 C 
ATOM     19  O   UNL     1      -1.413  14.453  20.115  0.00  0.00    +0.000 OA
ATOM     20  N   UNL     1      -0.906  12.914  21.764  0.00  0.00    +0.000 N 
ATOM     21  H   UNL     1      -0.283  12.151  21.988  0.00  0.00    +0.000 HD
BRANCH  20  22
ATOM     22  C   UNL     1      -1.674  13.409  22.853  0.00  0.00    +0.000 A 
ATOM     23  C   UNL     1      -2.949  12.965  23.200  0.00  0.00    +0.000 A 
ATOM     24  C   UNL     1      -3.635  13.564  24.260  0.00  0.00    +0.000 A 
ATOM     25  C   UNL     1      -3.017  14.586  24.961  0.00  0.00    +0.000 A 
ATOM     26  N   UNL     1      -1.772  15.022  24.688  0.00  0.00    +0.000 NA
ATOM     27  C   UNL     1      -1.137  14.424  23.648  0.00  0.00    +0.000 A 
ENDBRANCH  20  22
ENDBRANCH   3  18
BRANCH   7  28
ATOM     28  S   UNL     1       2.871   7.378  18.010  0.00  0.00    +0.000 S 
BRANCH  28  29
ATOM     29  C   UNL     1       2.503   6.464  19.525  0.00  0.00    +0.000 C 
BRANCH  29  30
ATOM     30  C   UNL     1       2.915   5.011  19.385  0.00  0.00    +0.000 A 
ATOM     31  C   UNL     1       3.440   4.519  18.178  0.00  0.00    +0.000 A 
ATOM     32  C   UNL     1       3.759   3.162  18.034  0.00  0.00    +0.000 A 
ATOM     33  C   UNL     1       3.563   2.274  19.092  0.00  0.00    +0.000 A 
ATOM     34  C   UNL     1       3.046   2.744  20.296  0.00  0.00    +0.000 A 
ATOM     35  C   UNL     1       2.724   4.100  20.432  0.00  0.00    +0.000 A 
ATOM     36  F   UNL     1       2.224   4.517  21.602  0.00  0.00    +0.000 F 
ENDBRANCH  29  30
ENDBRANCH  28  29
ENDBRANCH   7  28
TORSDOF 6
ENDMDL
MODEL 9
REMARK VINA RESULT:      -7.6      2.363      3.825
REMARK  Name = 
REMARK  7 active torsions:
REMARK  status: ('A' for Active; 'I' for Inactive)
REMARK    1  A    between atoms: C_1  and  C_2
REMARK    2  A    between atoms: C_3  and  C_4
REMARK    3  A    between atoms: N_6  and  C_7
REMARK    4  A    between atoms: C_13  and  C_14
REMARK    5  A    between atoms: C_22  and  S_23
REMARK    6  A    between atoms: S_23  and  C_24
REMARK    7  A    between atoms: C_24  and  C_25
REMARK                            x       y       z     vdW  Elec       q    Type
REMARK                         _______ _______ _______ _____ _____    ______ ____
ROOT
ATOM      1  C   UNL     1      -1.117  10.481  23.121  0.00  0.00    +0.000 C 
ATOM      2  C   UNL     1      -0.379  10.583  21.808  0.00  0.00    +0.000 C 
ATOM      3  C   UNL     1      -0.574  11.475  20.796  0.00  0.00    +0.000 C 
ATOM      4  C   UNL     1       0.316  11.397  19.518  0.00  0.00    +0.000 C 
ATOM      5  N   UNL     1       1.031  10.112  19.426  0.00  0.00    +0.000 N 
ATOM      6  N   UNL     1       1.543   9.550  18.293  0.00  0.00    +0.000 NA
ATOM      7  C   UNL     1       2.030   8.397  18.785  0.00  0.00    +0.000 A 
ATOM      8  N   UNL     1       1.826   8.208  20.133  0.00  0.00    +0.000 NA
ATOM      9  C   UNL     1       1.171   9.275  20.495  0.00  0.00    +0.000 A 
ATOM     10  N   UNL     1       0.591   9.589  21.667  0.00  0.00    +0.000 N 
ATOM     11  H   UNL     1       0.628   8.876  22.394  0.00  0.00    +0.000 HD
ENDROOT
BRANCH   4  12
ATOM     12  C   UNL     1       1.344  12.532  19.460  0.00  0.00    +0.000 A 
ATOM     13  C   UNL     1       1.629  13.219  18.266  0.00  0.00    +0.000 A 
ATOM     14  C   UNL     1       2.548  14.268  18.246  0.00  0.00    +0.000 A 
ATOM     15  C   UNL     1       3.180  14.664  19.421  0.00  0.00    +0.000 A 
ATOM     16  C   UNL     1       2.897  14.008  20.615  0.00  0.00    +0.000 A 
ATOM     17  C   UNL     1       1.988  12.948  20.637  0.00  0.00    +0.000 A 
ENDBRANCH   4  12
BRANCH   3  18
ATOM     18  C   UNL     1      -1.621  12.557  20.682  0.00  0.00    +0.000 C 
ATOM     19  O   UNL     1      -2.490  12.430  19.825  0.00  0.00    +0.000 OA
ATOM     20  N   UNL     1      -1.473  13.656  21.501  0.00  0.00    +0.000 N 
ATOM     21  H   UNL     1      -0.631  13.717  22.055  0.00  0.00    +0.000 HD
BRANCH  20  22
ATOM     22  C   UNL     1      -2.333  14.784  21.584  0.00  0.00    +0.000 A 
ATOM     23  C   UNL     1      -2.131  15.995  20.924  0.00  0.00    +0.000 A 
ATOM     24  C   UNL     1      -3.015  17.059  21.123  0.00  0.00    +0.000 A 
ATOM     25  C   UNL     1      -4.096  16.877  21.969  0.00  0.00    +0.000 A 
ATOM     26  N   UNL     1      -4.355  15.714  22.598  0.00  0.00    +0.000 NA
ATOM     27  C   UNL     1      -3.473  14.704  22.388  0.00  0.00    +0.000 A 
ENDBRANCH  20  22
ENDBRANCH   3  18
BRANCH   7  28
ATOM     28  S   UNL     1       2.673   7.073  17.844  0.00  0.00    +0.000 S 
BRANCH  28  29
ATOM     29  C   UNL     1       3.312   5.891  19.052  0.00  0.00    +0.000 C 
BRANCH  29  30
ATOM     30  C   UNL     1       2.503   4.608  19.022  0.00  0.00    +0.000 A 
ATOM     31  C   UNL     1       1.567   4.317  20.028  0.00  0.00    +0.000 A 
ATOM     32  C   UNL     1       0.870   3.101  20.030  0.00  0.00    +0.000 A 
ATOM     33  C   UNL     1       1.092   2.157  19.027  0.00  0.00    +0.000 A 
ATOM     34  C   UNL     1       2.015   2.429  18.020  0.00  0.00    +0.000 A 
ATOM     35  C   UNL     1       2.712   3.644  18.028  0.00  0.00    +0.000 A 
ATOM     36  F   UNL     1       3.596   3.871  17.047  0.00  0.00    +0.000 F 
ENDBRANCH  29  30
ENDBRANCH  28  29
ENDBRANCH   7  28
TORSDOF 6
ENDMDL
