MODEL 1
REMARK VINA RESULT:      -7.8      0.000      0.000
REMARK  Name = 
REMARK  7 active torsions:
REMARK  status: ('A' for Active; 'I' for Inactive)
REMARK    1  A    between atoms: C_1  and  C_2
REMARK    2  A    between atoms: C_2  and  O_3
REMARK    3  A    between atoms: O_3  and  C_4
REMARK    4  A    between atoms: C_4  and  C_6
REMARK    5  A    between atoms: C_6  and  C_7
REMARK    6  A    between atoms: N_15  and  C_16
REMARK    7  A    between atoms: C_16  and  C_17
REMARK                            x       y       z     vdW  Elec       q    Type
REMARK                         _______ _______ _______ _____ _____    ______ ____
ROOT
ATOM      1  C   UNL     1       5.932   5.032  16.017  0.00  0.00    +0.000 C 
ATOM      2  C   UNL     1       4.955   6.225  16.221  0.00  0.00    +0.000 C 
ATOM      3  C   UNL     1       4.550   6.358  17.712  0.00  0.00    +0.000 C 
ATOM      4  N   UNL     1       3.864   5.134  18.193  0.00  0.00    +0.000 NA
ATOM      5  C   UNL     1       4.726   3.946  18.016  0.00  0.00    +0.000 C 
ATOM      6  C   UNL     1       5.185   3.780  16.562  0.00  0.00    +0.000 C 
ENDROOT
BRANCH   1   7
ATOM      7  C   UNL     1       6.349   4.759  14.560  0.00  0.00    +0.000 A 
ATOM      8  C   UNL     1       5.623   3.790  13.826  0.00  0.00    +0.000 A 
ATOM      9  C   UNL     1       5.967   3.463  12.516  0.00  0.00    +0.000 A 
ATOM     10  C   UNL     1       7.050   4.089  11.904  0.00  0.00    +0.000 A 
ATOM     11  C   UNL     1       7.785   5.049  12.603  0.00  0.00    +0.000 A 
ATOM     12  C   UNL     1       7.442   5.388  13.921  0.00  0.00    +0.000 A 
ENDBRANCH   1   7
BRANCH   1  13
ATOM     13  C   UNL     1       7.233   5.359  16.740  0.00  0.00    +0.000 C 
ATOM     14  O   UNL     1       7.969   4.476  17.159  0.00  0.00    +0.000 OA
BRANCH  13  15
ATOM     15  O   UNL     1       7.597   6.667  16.857  0.00  0.00    +0.000 OA
BRANCH  15  17
ATOM     16  C   UNL     1       8.057   8.794  17.832  0.00  0.00    +0.000 C 
ATOM     17  C   UNL     1       7.918   7.291  18.044  0.00  0.00    +0.000 C 
ENDBRANCH  15  17
ENDBRANCH  13  15
ENDBRANCH   1  13
BRANCH   4  18
ATOM     18  C   UNL     1       3.500   5.210  19.631  0.00  0.00    +0.000 C 
BRANCH  18  19
ATOM     19  C   UNL     1       2.030   4.895  19.917  0.00  0.00    +0.000 C 
ATOM     20  F   UNL     1       1.410   5.993  20.484  0.00  0.00    +0.000 F 
ATOM     21  F   UNL     1       1.395   4.584  18.727  0.00  0.00    +0.000 F 
ENDBRANCH  18  19
ENDBRANCH   4  18
TORSDOF 6
ENDMDL
MODEL 2
REMARK VINA RESULT:      -7.8      0.510      1.172
REMARK  Name = 
REMARK  7 active torsions:
REMARK  status: ('A' for Active; 'I' for Inactive)
REMARK    1  A    between atoms: C_1  and  C_2
REMARK    2  A    between atoms: C_2  and  O_3
REMARK    3  A    between atoms: O_3  and  C_4
REMARK    4  A    between atoms: C_4  and  C_6
REMARK    5  A    between atoms: C_6  and  C_7
REMARK    6  A    between atoms: N_15  and  C_16
REMARK    7  A    between atoms: C_16  and  C_17
REMARK                            x       y       z     vdW  Elec       q    Type
REMARK                         _______ _______ _______ _____ _____    ______ ____
ROOT
ATOM      1  C   UNL     1       5.869   5.037  15.948  0.00  0.00    +0.000 C 
ATOM      2  C   UNL     1       4.965   6.297  16.060  0.00  0.00    +0.000 C 
ATOM      3  C   UNL     1       4.558   6.555  17.534  0.00  0.00    +0.000 C 
ATOM      4  N   UNL     1       3.797   5.409  18.090  0.00  0.00    +0.000 NA
ATOM      5  C   UNL     1       4.587   4.162  18.003  0.00  0.00    +0.000 C 
ATOM      6  C   UNL     1       5.045   3.871  16.568  0.00  0.00    +0.000 C 
ENDROOT
BRANCH   1   7
ATOM      7  C   UNL     1       6.279   4.641  14.517  0.00  0.00    +0.000 A 
ATOM      8  C   UNL     1       7.386   5.300  13.931  0.00  0.00    +0.000 A 
ATOM      9  C   UNL     1       7.790   5.021  12.626  0.00  0.00    +0.000 A 
ATOM     10  C   UNL     1       7.097   4.081  11.869  0.00  0.00    +0.000 A 
ATOM     11  C   UNL     1       6.001   3.414  12.421  0.00  0.00    +0.000 A 
ATOM     12  C   UNL     1       5.590   3.685  13.735  0.00  0.00    +0.000 A 
ENDBRANCH   1   7
BRANCH   1  13
ATOM     13  C   UNL     1       7.183   5.334  16.660  0.00  0.00    +0.000 C 
ATOM     14  O   UNL     1       7.909   4.435  17.060  0.00  0.00    +0.000 OA
BRANCH  13  15
ATOM     15  O   UNL     1       7.568   6.634  16.789  0.00  0.00    +0.000 OA
BRANCH  15  17
ATOM     16  C   UNL     1       7.992   8.747  17.812  0.00  0.00    +0.000 C 
ATOM     17  C   UNL     1       7.934   7.233  17.977  0.00  0.00    +0.000 C 
ENDBRANCH  15  17
ENDBRANCH  13  15
ENDBRANCH   1  13
BRANCH   4  18
ATOM     18  C   UNL     1       3.429   5.605  19.516  0.00  0.00    +0.000 C 
BRANCH  18  19
ATOM     19  C   UNL     1       2.559   4.486  20.092  0.00  0.00    +0.000 C 
ATOM     20  F   UNL     1       2.422   4.647  21.458  0.00  0.00    +0.000 F 
ATOM     21  F   UNL     1       1.306   4.540  19.505  0.00  0.00    +0.000 F 
ENDBRANCH  18  19
ENDBRANCH   4  18
TORSDOF 6
ENDMDL
MODEL 3
REMARK VINA RESULT:      -7.4      2.192      3.053
REMARK  Name = 
REMARK  7 active torsions:
REMARK  status: ('A' for Active; 'I' for Inactive)
REMARK    1  A    between atoms: C_1  and  C_2
REMARK    2  A    between atoms: C_2  and  O_3
REMARK    3  A    between atoms: O_3  and  C_4
REMARK    4  A    between atoms: C_4  and  C_6
REMARK    5  A    between atoms: C_6  and  C_7
REMARK    6  A    between atoms: N_15  and  C_16
REMARK    7  A    between atoms: C_16  and  C_17
REMARK                            x       y       z     vdW  Elec       q    Type
REMARK                         _______ _______ _______ _____ _____    ______ ____
ROOT
ATOM      1  C   UNL     1       4.021   4.378  17.866  0.00  0.00    +0.000 C 
ATOM      2  C   UNL     1       2.982   5.479  18.225  0.00  0.00    +0.000 C 
ATOM      3  C   UNL     1       2.168   5.080  19.484  0.00  0.00    +0.000 C 
ATOM      4  N   UNL     1       1.422   3.817  19.262  0.00  0.00    +0.000 NA
ATOM      5  C   UNL     1       2.343   2.720  18.897  0.00  0.00    +0.000 C 
ATOM      6  C   UNL     1       3.199   3.071  17.674  0.00  0.00    +0.000 C 
ENDROOT
BRANCH   1   7
ATOM      7  C   UNL     1       4.842   4.634  16.588  0.00  0.00    +0.000 A 
ATOM      8  C   UNL     1       5.489   3.534  15.977  0.00  0.00    +0.000 A 
ATOM      9  C   UNL     1       6.280   3.695  14.841  0.00  0.00    +0.000 A 
ATOM     10  C   UNL     1       6.452   4.961  14.287  0.00  0.00    +0.000 A 
ATOM     11  C   UNL     1       5.824   6.066  14.868  0.00  0.00    +0.000 A 
ATOM     12  C   UNL     1       5.023   5.911  16.009  0.00  0.00    +0.000 A 
ENDBRANCH   1   7
BRANCH   1  13
ATOM     13  C   UNL     1       5.053   4.320  18.986  0.00  0.00    +0.000 C 
ATOM     14  O   UNL     1       5.338   3.266  19.535  0.00  0.00    +0.000 OA
BRANCH  13  15
ATOM     15  O   UNL     1       5.704   5.468  19.326  0.00  0.00    +0.000 OA
BRANCH  15  17
ATOM     16  C   UNL     1       7.821   5.415  18.230  0.00  0.00    +0.000 C 
ATOM     17  C   UNL     1       7.062   5.567  19.543  0.00  0.00    +0.000 C 
ENDBRANCH  15  17
ENDBRANCH  13  15
ENDBRANCH   1  13
BRANCH   4  18
ATOM     18  C   UNL     1       0.665   3.382  20.464  0.00  0.00    +0.000 C 
BRANCH  18  19
ATOM     19  C   UNL     1       1.531   2.720  21.538  0.00  0.00    +0.000 C 
ATOM     20  F   UNL     1       2.365   3.657  22.119  0.00  0.00    +0.000 F 
ATOM     21  F   UNL     1       0.709   2.183  22.514  0.00  0.00    +0.000 F 
ENDBRANCH  18  19
ENDBRANCH   4  18
TORSDOF 6
ENDMDL
MODEL 4
REMARK VINA RESULT:      -7.4      2.912      6.112
REMARK  Name = 
REMARK  7 active torsions:
REMARK  status: ('A' for Active; 'I' for Inactive)
REMARK    1  A    between atoms: C_1  and  C_2
REMARK    2  A    between atoms: C_2  and  O_3
REMARK    3  A    between atoms: O_3  and  C_4
REMARK    4  A    between atoms: C_4  and  C_6
REMARK    5  A    between atoms: C_6  and  C_7
REMARK    6  A    between atoms: N_15  and  C_16
REMARK    7  A    between atoms: C_16  and  C_17
REMARK                            x       y       z     vdW  Elec       q    Type
REMARK                         _______ _______ _______ _____ _____    ______ ____
ROOT
ATOM      1  C   UNL     1       4.326   5.122  17.963  0.00  0.00    +0.000 C 
ATOM      2  C   UNL     1       4.084   3.841  17.115  0.00  0.00    +0.000 C 
ATOM      3  C   UNL     1       5.243   3.617  16.109  0.00  0.00    +0.000 C 
ATOM      4  N   UNL     1       5.364   4.758  15.168  0.00  0.00    +0.000 NA
ATOM      5  C   UNL     1       5.579   6.023  15.903  0.00  0.00    +0.000 C 
ATOM      6  C   UNL     1       4.477   6.283  16.938  0.00  0.00    +0.000 C 
ENDROOT
BRANCH   1   7
ATOM      7  C   UNL     1       3.202   5.484  18.952  0.00  0.00    +0.000 A 
ATOM      8  C   UNL     1       2.961   6.853  19.219  0.00  0.00    +0.000 A 
ATOM      9  C   UNL     1       1.987   7.256  20.131  0.00  0.00    +0.000 A 
ATOM     10  C   UNL     1       1.230   6.302  20.806  0.00  0.00    +0.000 A 
ATOM     11  C   UNL     1       1.444   4.943  20.562  0.00  0.00    +0.000 A 
ATOM     12  C   UNL     1       2.420   4.530  19.642  0.00  0.00    +0.000 A 
ENDBRANCH   1   7
BRANCH   1  13
ATOM     13  C   UNL     1       5.551   4.884  18.837  0.00  0.00    +0.000 C 
ATOM     14  O   UNL     1       5.826   3.770  19.260  0.00  0.00    +0.000 OA
BRANCH  13  15
ATOM     15  O   UNL     1       6.379   5.936  19.090  0.00  0.00    +0.000 OA
BRANCH  15  17
ATOM     16  C   UNL     1       8.131   7.354  18.311  0.00  0.00    +0.000 C 
ATOM     17  C   UNL     1       7.726   5.967  18.795  0.00  0.00    +0.000 C 
ENDBRANCH  15  17
ENDBRANCH  13  15
ENDBRANCH   1  13
BRANCH   4  18
ATOM     18  C   UNL     1       6.493   4.597  14.217  0.00  0.00    +0.000 C 
BRANCH  18  19
ATOM     19  C   UNL     1       6.192   3.653  13.050  0.00  0.00    +0.000 C 
ATOM     20  F   UNL     1       4.868   3.775  12.671  0.00  0.00    +0.000 F 
ATOM     21  F   UNL     1       7.000   3.990  11.977  0.00  0.00    +0.000 F 
ENDBRANCH  18  19
ENDBRANCH   4  18
TORSDOF 6
ENDMDL
MODEL 5
REMARK VINA RESULT:      -7.3      0.863      1.084
REMARK  Name = 
REMARK  7 active torsions:
REMARK  status: ('A' for Active; 'I' for Inactive)
REMARK    1  A    between atoms: C_1  and  C_2
REMARK    2  A    between atoms: C_2  and  O_3
REMARK    3  A    between atoms: O_3  and  C_4
REMARK    4  A    between atoms: C_4  and  C_6
REMARK    5  A    between atoms: C_6  and  C_7
REMARK    6  A    between atoms: N_15  and  C_16
REMARK    7  A    between atoms: C_16  and  C_17
REMARK                            x       y       z     vdW  Elec       q    Type
REMARK                         _______ _______ _______ _____ _____    ______ ____
ROOT
ATOM      1  C   UNL     1       5.776   5.200  15.893  0.00  0.00    +0.000 C 
ATOM      2  C   UNL     1       4.973   6.529  15.994  0.00  0.00    +0.000 C 
ATOM      3  C   UNL     1       4.447   6.747  17.437  0.00  0.00    +0.000 C 
ATOM      4  N   UNL     1       3.543   5.646  17.850  0.00  0.00    +0.000 NA
ATOM      5  C   UNL     1       4.231   4.340  17.764  0.00  0.00    +0.000 C 
ATOM      6  C   UNL     1       4.801   4.082  16.364  0.00  0.00    +0.000 C 
ENDROOT
BRANCH   1   7
ATOM      7  C   UNL     1       6.290   4.843  14.485  0.00  0.00    +0.000 A 
ATOM      8  C   UNL     1       5.602   3.843  13.756  0.00  0.00    +0.000 A 
ATOM      9  C   UNL     1       6.032   3.439  12.493  0.00  0.00    +0.000 A 
ATOM     10  C   UNL     1       7.163   4.019  11.925  0.00  0.00    +0.000 A 
ATOM     11  C   UNL     1       7.861   5.009  12.621  0.00  0.00    +0.000 A 
ATOM     12  C   UNL     1       7.433   5.424  13.891  0.00  0.00    +0.000 A 
ENDBRANCH   1   7
BRANCH   1  13
ATOM     13  C   UNL     1       7.034   5.344  16.741  0.00  0.00    +0.000 C 
ATOM     14  O   UNL     1       7.521   4.386  17.326  0.00  0.00    +0.000 OA
BRANCH  13  15
ATOM     15  O   UNL     1       7.649   6.559  16.785  0.00  0.00    +0.000 OA
BRANCH  15  17
ATOM     16  C   UNL     1       7.806   8.743  17.729  0.00  0.00    +0.000 C 
ATOM     17  C   UNL     1       7.958   7.242  17.943  0.00  0.00    +0.000 C 
ENDBRANCH  15  17
ENDBRANCH  13  15
ENDBRANCH   1  13
BRANCH   4  18
ATOM     18  C   UNL     1       3.054   5.801  19.244  0.00  0.00    +0.000 C 
BRANCH  18  19
ATOM     19  C   UNL     1       2.412   7.161  19.530  0.00  0.00    +0.000 C 
ATOM     20  F   UNL     1       1.645   7.559  18.450  0.00  0.00    +0.000 F 
ATOM     21  F   UNL     1       1.597   7.051  20.643  0.00  0.00    +0.000 F 
ENDBRANCH  18  19
ENDBRANCH   4  18
TORSDOF 6
ENDMDL
MODEL 6
REMARK VINA RESULT:      -7.3      2.928      5.962
REMARK  Name = 
REMARK  7 active torsions:
REMARK  status: ('A' for Active; 'I' for Inactive)
REMARK    1  A    between atoms: C_1  and  C_2
REMARK    2  A    between atoms: C_2  and  O_3
REMARK    3  A    between atoms: O_3  and  C_4
REMARK    4  A    between atoms: C_4  and  C_6
REMARK    5  A    between atoms: C_6  and  C_7
REMARK    6  A    between atoms: N_15  and  C_16
REMARK    7  A    between atoms: C_16  and  C_17
REMARK                            x       y       z     vdW  Elec       q    Type
REMARK                         _______ _______ _______ _____ _____    ______ ____
ROOT
ATOM      1  C   UNL     1       4.684   5.068  17.781  0.00  0.00    +0.000 C 
ATOM      2  C   UNL     1       4.726   3.647  17.151  0.00  0.00    +0.000 C 
ATOM      3  C   UNL     1       5.796   3.571  16.030  0.00  0.00    +0.000 C 
ATOM      4  N   UNL     1       5.501   4.534  14.940  0.00  0.00    +0.000 NA
ATOM      5  C   UNL     1       5.427   5.914  15.465  0.00  0.00    +0.000 C 
ATOM      6  C   UNL     1       4.404   6.044  16.601  0.00  0.00    +0.000 C 
ENDROOT
BRANCH   1   7
ATOM      7  C   UNL     1       3.607   5.283  18.861  0.00  0.00    +0.000 A 
ATOM      8  C   UNL     1       3.157   4.156  19.590  0.00  0.00    +0.000 A 
ATOM      9  C   UNL     1       2.157   4.267  20.555  0.00  0.00    +0.000 A 
ATOM     10  C   UNL     1       1.576   5.505  20.815  0.00  0.00    +0.000 A 
ATOM     11  C   UNL     1       2.001   6.635  20.112  0.00  0.00    +0.000 A 
ATOM     12  C   UNL     1       3.010   6.532  19.142  0.00  0.00    +0.000 A 
ENDBRANCH   1   7
BRANCH   1  13
ATOM     13  C   UNL     1       6.008   5.305  18.499  0.00  0.00    +0.000 C 
ATOM     14  O   UNL     1       6.614   4.389  19.036  0.00  0.00    +0.000 OA
BRANCH  13  15
ATOM     15  O   UNL     1       6.540   6.559  18.476  0.00  0.00    +0.000 OA
BRANCH  15  17
ATOM     16  C   UNL     1       7.986   8.329  17.793  0.00  0.00    +0.000 C 
ATOM     17  C   UNL     1       7.847   6.853  18.149  0.00  0.00    +0.000 C 
ENDBRANCH  15  17
ENDBRANCH  13  15
ENDBRANCH   1  13
BRANCH   4  18
ATOM     18  C   UNL     1       6.530   4.518  13.870  0.00  0.00    +0.000 C 
BRANCH  18  19
ATOM     19  C   UNL     1       6.234   3.532  12.737  0.00  0.00    +0.000 C 
ATOM     20  F   UNL     1       4.906   3.623  12.365  0.00  0.00    +0.000 F 
ATOM     21  F   UNL     1       7.029   3.843  11.648  0.00  0.00    +0.000 F 
ENDBRANCH  18  19
ENDBRANCH   4  18
TORSDOF 6
ENDMDL
MODEL 7
REMARK VINA RESULT:      -7.2      2.974      6.057
REMARK  Name = 
REMARK  7 active torsions:
REMARK  status: ('A' for Active; 'I' for Inactive)
REMARK    1  A    between atoms: C_1  and  C_2
REMARK    2  A    between atoms: C_2  and  O_3
REMARK    3  A    between atoms: O_3  and  C_4
REMARK    4  A    between atoms: C_4  and  C_6
REMARK    5  A    between atoms: C_6  and  C_7
REMARK    6  A    between atoms: N_15  and  C_16
REMARK    7  A    between atoms: C_16  and  C_17
REMARK                            x       y       z     vdW  Elec       q    Type
REMARK                         _______ _______ _______ _____ _____    ______ ____
ROOT
ATOM      1  C   UNL     1       4.324   4.519  17.823  0.00  0.00    +0.000 C 
ATOM      2  C   UNL     1       4.203   3.397  16.753  0.00  0.00    +0.000 C 
ATOM      3  C   UNL     1       5.410   3.430  15.780  0.00  0.00    +0.000 C 
ATOM      4  N   UNL     1       5.485   4.726  15.061  0.00  0.00    +0.000 NA
ATOM      5  C   UNL     1       5.585   5.851  16.016  0.00  0.00    +0.000 C 
ATOM      6  C   UNL     1       4.430   5.852  17.026  0.00  0.00    +0.000 C 
ENDROOT
BRANCH   1   7
ATOM      7  C   UNL     1       3.142   4.628  18.805  0.00  0.00    +0.000 A 
ATOM      8  C   UNL     1       2.170   3.599  18.800  0.00  0.00    +0.000 A 
ATOM      9  C   UNL     1       1.054   3.649  19.632  0.00  0.00    +0.000 A 
ATOM     10  C   UNL     1       0.873   4.731  20.489  0.00  0.00    +0.000 A 
ATOM     11  C   UNL     1       1.815   5.762  20.516  0.00  0.00    +0.000 A 
ATOM     12  C   UNL     1       2.945   5.717  19.685  0.00  0.00    +0.000 A 
ENDBRANCH   1   7
BRANCH   1  13
ATOM     13  C   UNL     1       5.530   4.206  18.700  0.00  0.00    +0.000 C 
ATOM     14  O   UNL     1       5.475   3.361  19.581  0.00  0.00    +0.000 OA
BRANCH  13  15
ATOM     15  O   UNL     1       6.703   4.849  18.439  0.00  0.00    +0.000 OA
BRANCH  15  17
ATOM     16  C   UNL     1       8.017   6.836  18.558  0.00  0.00    +0.000 C 
ATOM     17  C   UNL     1       7.348   5.696  19.317  0.00  0.00    +0.000 C 
ENDBRANCH  15  17
ENDBRANCH  13  15
ENDBRANCH   1  13
BRANCH   4  18
ATOM     18  C   UNL     1       6.657   4.808  14.152  0.00  0.00    +0.000 C 
BRANCH  18  19
ATOM     19  C   UNL     1       6.578   3.863  12.951  0.00  0.00    +0.000 C 
ATOM     20  F   UNL     1       5.264   3.714  12.550  0.00  0.00    +0.000 F 
ATOM     21  F   UNL     1       7.309   4.400  11.905  0.00  0.00    +0.000 F 
ENDBRANCH  18  19
ENDBRANCH   4  18
TORSDOF 6
ENDMDL
MODEL 8
REMARK VINA RESULT:      -7.1      2.269      3.160
REMARK  Name = 
REMARK  7 active torsions:
REMARK  status: ('A' for Active; 'I' for Inactive)
REMARK    1  A    between atoms: C_1  and  C_2
REMARK    2  A    between atoms: C_2  and  O_3
REMARK    3  A    between atoms: O_3  and  C_4
REMARK    4  A    between atoms: C_4  and  C_6
REMARK    5  A    between atoms: C_6  and  C_7
REMARK    6  A    between atoms: N_15  and  C_16
REMARK    7  A    between atoms: C_16  and  C_17
REMARK                            x       y       z     vdW  Elec       q    Type
REMARK                         _______ _______ _______ _____ _____    ______ ____
ROOT
ATOM      1  C   UNL     1       4.127   4.127  17.866  0.00  0.00    +0.000 C 
ATOM      2  C   UNL     1       2.958   5.100  18.189  0.00  0.00    +0.000 C 
ATOM      3  C   UNL     1       2.144   4.599  19.410  0.00  0.00    +0.000 C 
ATOM      4  N   UNL     1       1.553   3.263  19.150  0.00  0.00    +0.000 NA
ATOM      5  C   UNL     1       2.606   2.280  18.816  0.00  0.00    +0.000 C 
ATOM      6  C   UNL     1       3.466   2.738  17.631  0.00  0.00    +0.000 C 
ENDROOT
BRANCH   1   7
ATOM      7  C   UNL     1       4.965   4.487  16.624  0.00  0.00    +0.000 A 
ATOM      8  C   UNL     1       4.906   5.816  16.139  0.00  0.00    +0.000 A 
ATOM      9  C   UNL     1       5.606   6.205  14.999  0.00  0.00    +0.000 A 
ATOM     10  C   UNL     1       6.380   5.277  14.307  0.00  0.00    +0.000 A 
ATOM     11  C   UNL     1       6.458   3.959  14.762  0.00  0.00    +0.000 A 
ATOM     12  C   UNL     1       5.759   3.560  15.913  0.00  0.00    +0.000 A 
ENDBRANCH   1   7
BRANCH   1  13
ATOM     13  C   UNL     1       5.113   4.172  19.027  0.00  0.00    +0.000 C 
ATOM     14  O   UNL     1       5.380   3.170  19.675  0.00  0.00    +0.000 OA
BRANCH  13  15
ATOM     15  O   UNL     1       5.745   5.349  19.292  0.00  0.00    +0.000 OA
BRANCH  15  17
ATOM     16  C   UNL     1       7.679   6.436  18.416  0.00  0.00    +0.000 C 
ATOM     17  C   UNL     1       7.107   5.490  19.464  0.00  0.00    +0.000 C 
ENDBRANCH  15  17
ENDBRANCH  13  15
ENDBRANCH   1  13
BRANCH   4  18
ATOM     18  C   UNL     1       0.802   2.734  20.317  0.00  0.00    +0.000 C 
BRANCH  18  19
ATOM     19  C   UNL     1       1.491   2.977  21.662  0.00  0.00    +0.000 C 
ATOM     20  F   UNL     1       0.741   2.429  22.685  0.00  0.00    +0.000 F 
ATOM     21  F   UNL     1       2.738   2.375  21.646  0.00  0.00    +0.000 F 
ENDBRANCH  18  19
ENDBRANCH   4  18
TORSDOF 6
ENDMDL
MODEL 9
REMARK VINA RESULT:      -7.0      1.252      1.508
REMARK  Name = 
REMARK  7 active torsions:
REMARK  status: ('A' for Active; 'I' for Inactive)
REMARK    1  A    between atoms: C_1  and  C_2
REMARK    2  A    between atoms: C_2  and  O_3
REMARK    3  A    between atoms: O_3  and  C_4
REMARK    4  A    between atoms: C_4  and  C_6
REMARK    5  A    between atoms: C_6  and  C_7
REMARK    6  A    between atoms: N_15  and  C_16
REMARK    7  A    between atoms: C_16  and  C_17
REMARK                            x       y       z     vdW  Elec       q    Type
REMARK                         _______ _______ _______ _____ _____    ______ ____
ROOT
ATOM      1  C   UNL     1       5.258   4.788  17.013  0.00  0.00    +0.000 C 
ATOM      2  C   UNL     1       4.129   5.842  17.198  0.00  0.00    +0.000 C 
ATOM      3  C   UNL     1       3.588   5.822  18.651  0.00  0.00    +0.000 C 
ATOM      4  N   UNL     1       3.020   4.495  18.994  0.00  0.00    +0.000 NA
ATOM      5  C   UNL     1       4.032   3.431  18.825  0.00  0.00    +0.000 C 
ATOM      6  C   UNL     1       4.628   3.422  17.412  0.00  0.00    +0.000 C 
ENDROOT
BRANCH   1   7
ATOM      7  C   UNL     1       5.825   4.669  15.586  0.00  0.00    +0.000 A 
ATOM      8  C   UNL     1       5.086   3.929  14.632  0.00  0.00    +0.000 A 
ATOM      9  C   UNL     1       5.555   3.745  13.332  0.00  0.00    +0.000 A 
ATOM     10  C   UNL     1       6.779   4.290  12.951  0.00  0.00    +0.000 A 
ATOM     11  C   UNL     1       7.530   5.026  13.871  0.00  0.00    +0.000 A 
ATOM     12  C   UNL     1       7.062   5.219  15.180  0.00  0.00    +0.000 A 
ENDBRANCH   1   7
BRANCH   1  13
ATOM     13  C   UNL     1       6.445   5.213  17.869  0.00  0.00    +0.000 C 
ATOM     14  O   UNL     1       7.188   4.389  18.383  0.00  0.00    +0.000 OA
BRANCH  13  15
ATOM     15  O   UNL     1       6.702   6.545  18.002  0.00  0.00    +0.000 OA
BRANCH  15  17
ATOM     16  C   UNL     1       8.030   8.514  17.784  0.00  0.00    +0.000 C 
ATOM     17  C   UNL     1       7.938   7.082  18.297  0.00  0.00    +0.000 C 
ENDBRANCH  15  17
ENDBRANCH  13  15
ENDBRANCH   1  13
BRANCH   4  18
ATOM     18  C   UNL     1       2.531   4.428  20.395  0.00  0.00    +0.000 C 
BRANCH  18  19
ATOM     19  C   UNL     1       1.086   3.938  20.526  0.00  0.00    +0.000 C 
ATOM     20  F   UNL     1       0.686   3.323  19.355  0.00  0.00    +0.000 F 
ATOM     21  F   UNL     1       1.011   3.024  21.562  0.00  0.00    +0.000 F 
ENDBRANCH  18  19
ENDBRANCH   4  18
TORSDOF 6
ENDMDL
