MODEL 1
REMARK VINA RESULT:      -8.1      0.000      0.000
REMARK  Name = 
REMARK  7 active torsions:
REMARK  status: ('A' for Active; 'I' for Inactive)
REMARK    1  A    between atoms: C_2  and  O_3
REMARK    2  A    between atoms: C_2  and  C_4
REMARK    3  A    between atoms: C_6  and  N_7
REMARK    4  A    between atoms: N_8  and  C_9
REMARK    5  A    between atoms: C_10  and  O_11
REMARK    6  A    between atoms: C_21  and  C_22
REMARK    7  A    between atoms: C_22  and  O_24
REMARK                            x       y       z     vdW  Elec       q    Type
REMARK                         _______ _______ _______ _____ _____    ______ ____
ROOT
ATOM      1  C   UNL     1       2.586   3.652  19.552  0.00  0.00    +0.000 A 
ATOM      2  C   UNL     1       1.891   4.853  19.344  0.00  0.00    +0.000 A 
ATOM      3  C   UNL     1       2.578   6.038  19.041  0.00  0.00    +0.000 A 
ATOM      4  C   UNL     1       3.976   5.981  18.925  0.00  0.00    +0.000 A 
ATOM      5  C   UNL     1       4.678   4.789  19.170  0.00  0.00    +0.000 A 
ATOM      6  C   UNL     1       3.981   3.621  19.480  0.00  0.00    +0.000 A 
ENDROOT
BRANCH   1   8
ATOM      7  O   UNL     1       1.520   2.196  21.079  0.00  0.00    +0.000 OA
ATOM      8  C   UNL     1       1.895   2.400  19.937  0.00  0.00    +0.000 C 
BRANCH   8   9
ATOM      9  O   UNL     1       1.770   1.509  18.936  0.00  0.00    +0.000 OA
ATOM     10  H   UNL     1       2.461   0.823  18.884  0.00  0.00    +0.000 HD
ENDBRANCH   8   9
ENDBRANCH   1   8
BRANCH   3  11
ATOM     11  N   UNL     1       1.813   7.227  18.944  0.00  0.00    +0.000 NA
ATOM     12  N   UNL     1       2.159   8.106  19.761  0.00  0.00    +0.000 NA
BRANCH  12  13
ATOM     13  C   UNL     1       1.286   9.224  19.744  0.00  0.00    +0.000 A 
ATOM     14  C   UNL     1       1.128   9.907  18.523  0.00  0.00    +0.000 A 
ATOM     15  C   UNL     1       0.228  10.953  18.373  0.00  0.00    +0.000 A 
ATOM     16  C   UNL     1      -0.511  11.373  19.473  0.00  0.00    +0.000 A 
ATOM     17  C   UNL     1      -0.359  10.753  20.722  0.00  0.00    +0.000 A 
ATOM     18  C   UNL     1      -1.078  11.231  21.828  0.00  0.00    +0.000 A 
ATOM     19  C   UNL     1      -0.958  10.624  23.076  0.00  0.00    +0.000 A 
ATOM     20  C   UNL     1      -0.148   9.505  23.227  0.00  0.00    +0.000 A 
ATOM     21  C   UNL     1       0.571   9.016  22.133  0.00  0.00    +0.000 A 
ATOM     22  C   UNL     1       0.516   9.642  20.867  0.00  0.00    +0.000 A 
BRANCH  14  23
ATOM     23  O   UNL     1       1.868   9.569  17.417  0.00  0.00    +0.000 OA
ATOM     24  H   UNL     1       1.868   8.596  17.371  0.00  0.00    +0.000 HD
ENDBRANCH  14  23
ENDBRANCH  12  13
ENDBRANCH   3  11
BRANCH   5  25
ATOM     25  C   UNL     1       6.156   4.818  19.052  0.00  0.00    +0.000 C 
ATOM     26  O   UNL     1       6.861   5.389  19.865  0.00  0.00    +0.000 OA
BRANCH  25  27
ATOM     27  O   UNL     1       6.652   4.126  18.007  0.00  0.00    +0.000 OA
ATOM     28  H   UNL     1       7.355   4.560  17.490  0.00  0.00    +0.000 HD
ENDBRANCH  25  27
ENDBRANCH   5  25
TORSDOF 7
ENDMDL
MODEL 2
REMARK VINA RESULT:      -8.1      1.546      3.310
REMARK  Name = 
REMARK  7 active torsions:
REMARK  status: ('A' for Active; 'I' for Inactive)
REMARK    1  A    between atoms: C_2  and  O_3
REMARK    2  A    between atoms: C_2  and  C_4
REMARK    3  A    between atoms: C_6  and  N_7
REMARK    4  A    between atoms: N_8  and  C_9
REMARK    5  A    between atoms: C_10  and  O_11
REMARK    6  A    between atoms: C_21  and  C_22
REMARK    7  A    between atoms: C_22  and  O_24
REMARK                            x       y       z     vdW  Elec       q    Type
REMARK                         _______ _______ _______ _____ _____    ______ ____
ROOT
ATOM      1  C   UNL     1       4.468   5.067  17.012  0.00  0.00    +0.000 A 
ATOM      2  C   UNL     1       4.135   6.286  17.621  0.00  0.00    +0.000 A 
ATOM      3  C   UNL     1       3.028   6.383  18.478  0.00  0.00    +0.000 A 
ATOM      4  C   UNL     1       2.282   5.221  18.729  0.00  0.00    +0.000 A 
ATOM      5  C   UNL     1       2.590   4.007  18.092  0.00  0.00    +0.000 A 
ATOM      6  C   UNL     1       3.688   3.929  17.235  0.00  0.00    +0.000 A 
ENDROOT
BRANCH   1   8
ATOM      7  O   UNL     1       5.927   5.872  15.336  0.00  0.00    +0.000 OA
ATOM      8  C   UNL     1       5.590   4.946  16.053  0.00  0.00    +0.000 C 
BRANCH   8   9
ATOM      9  O   UNL     1       6.157   3.725  16.018  0.00  0.00    +0.000 OA
ATOM     10  H   UNL     1       6.912   3.621  15.410  0.00  0.00    +0.000 HD
ENDBRANCH   8   9
ENDBRANCH   1   8
BRANCH   3  11
ATOM     11  N   UNL     1       2.700   7.669  18.973  0.00  0.00    +0.000 NA
ATOM     12  N   UNL     1       1.470   7.883  19.018  0.00  0.00    +0.000 NA
BRANCH  12  13
ATOM     13  C   UNL     1       1.173   9.224  19.375  0.00  0.00    +0.000 A 
ATOM     14  C   UNL     1       1.501  10.231  18.447  0.00  0.00    +0.000 A 
ATOM     15  C   UNL     1       1.169  11.562  18.656  0.00  0.00    +0.000 A 
ATOM     16  C   UNL     1       0.531  11.925  19.837  0.00  0.00    +0.000 A 
ATOM     17  C   UNL     1       0.220  10.964  20.811  0.00  0.00    +0.000 A 
ATOM     18  C   UNL     1      -0.375  11.364  22.017  0.00  0.00    +0.000 A 
ATOM     19  C   UNL     1      -0.708  10.429  22.995  0.00  0.00    +0.000 A 
ATOM     20  C   UNL     1      -0.487   9.077  22.764  0.00  0.00    +0.000 A 
ATOM     21  C   UNL     1       0.103   8.664  21.566  0.00  0.00    +0.000 A 
ATOM     22  C   UNL     1       0.504   9.591  20.577  0.00  0.00    +0.000 A 
BRANCH  14  23
ATOM     23  O   UNL     1       2.175   9.940  17.288  0.00  0.00    +0.000 OA
ATOM     24  H   UNL     1       1.499   9.823  16.596  0.00  0.00    +0.000 HD
ENDBRANCH  14  23
ENDBRANCH  12  13
ENDBRANCH   3  11
BRANCH   5  25
ATOM     25  C   UNL     1       1.737   2.831  18.390  0.00  0.00    +0.000 C 
ATOM     26  O   UNL     1       0.728   2.915  19.067  0.00  0.00    +0.000 OA
BRANCH  25  27
ATOM     27  O   UNL     1       2.143   1.681  17.816  0.00  0.00    +0.000 OA
ATOM     28  H   UNL     1       1.854   1.526  16.897  0.00  0.00    +0.000 HD
ENDBRANCH  25  27
ENDBRANCH   5  25
TORSDOF 7
ENDMDL
MODEL 3
REMARK VINA RESULT:      -8.0      0.916      1.155
REMARK  Name = 
REMARK  7 active torsions:
REMARK  status: ('A' for Active; 'I' for Inactive)
REMARK    1  A    between atoms: C_2  and  O_3
REMARK    2  A    between atoms: C_2  and  C_4
REMARK    3  A    between atoms: C_6  and  N_7
REMARK    4  A    between atoms: N_8  and  C_9
REMARK    5  A    between atoms: C_10  and  O_11
REMARK    6  A    between atoms: C_21  and  C_22
REMARK    7  A    between atoms: C_22  and  O_24
REMARK                            x       y       z     vdW  Elec       q    Type
REMARK                         _______ _______ _______ _____ _____    ______ ____
ROOT
ATOM      1  C   UNL     1       2.665   3.979  20.130  0.00  0.00    +0.000 A 
ATOM      2  C   UNL     1       1.994   5.191  19.915  0.00  0.00    +0.000 A 
ATOM      3  C   UNL     1       2.457   6.111  18.962  0.00  0.00    +0.000 A 
ATOM      4  C   UNL     1       3.593   5.768  18.210  0.00  0.00    +0.000 A 
ATOM      5  C   UNL     1       4.289   4.571  18.448  0.00  0.00    +0.000 A 
ATOM      6  C   UNL     1       3.822   3.673  19.408  0.00  0.00    +0.000 A 
ENDROOT
BRANCH   1   8
ATOM      7  O   UNL     1       3.046   2.399  21.846  0.00  0.00    +0.000 OA
ATOM      8  C   UNL     1       2.240   3.017  21.174  0.00  0.00    +0.000 C 
BRANCH   8   9
ATOM      9  O   UNL     1       0.906   2.862  21.270  0.00  0.00    +0.000 OA
ATOM     10  H   UNL     1       0.515   3.048  22.143  0.00  0.00    +0.000 HD
ENDBRANCH   8   9
ENDBRANCH   1   8
BRANCH   3  11
ATOM     11  N   UNL     1       1.784   7.354  18.875  0.00  0.00    +0.000 NA
ATOM     12  N   UNL     1       1.994   8.100  19.855  0.00  0.00    +0.000 NA
BRANCH  12  13
ATOM     13  C   UNL     1       1.195   9.272  19.816  0.00  0.00    +0.000 A 
ATOM     14  C   UNL     1       1.129   9.972  18.596  0.00  0.00    +0.000 A 
ATOM     15  C   UNL     1       0.304  11.075  18.423  0.00  0.00    +0.000 A 
ATOM     16  C   UNL     1      -0.451  11.532  19.497  0.00  0.00    +0.000 A 
ATOM     17  C   UNL     1      -0.389  10.893  20.744  0.00  0.00    +0.000 A 
ATOM     18  C   UNL     1      -1.119  11.407  21.826  0.00  0.00    +0.000 A 
ATOM     19  C   UNL     1      -1.087  10.783  23.072  0.00  0.00    +0.000 A 
ATOM     20  C   UNL     1      -0.356   9.614  23.242  0.00  0.00    +0.000 A 
ATOM     21  C   UNL     1       0.374   9.089  22.172  0.00  0.00    +0.000 A 
ATOM     22  C   UNL     1       0.409   9.728  20.911  0.00  0.00    +0.000 A 
BRANCH  14  23
ATOM     23  O   UNL     1       1.889   9.597  17.517  0.00  0.00    +0.000 OA
ATOM     24  H   UNL     1       2.013  10.397  16.974  0.00  0.00    +0.000 HD
ENDBRANCH  14  23
ENDBRANCH  12  13
ENDBRANCH   3  11
BRANCH   5  25
ATOM     25  C   UNL     1       5.495   4.295  17.630  0.00  0.00    +0.000 C 
ATOM     26  O   UNL     1       5.496   4.405  16.417  0.00  0.00    +0.000 OA
BRANCH  25  27
ATOM     27  O   UNL     1       6.592   3.962  18.339  0.00  0.00    +0.000 OA
ATOM     28  H   UNL     1       7.266   4.658  18.454  0.00  0.00    +0.000 HD
ENDBRANCH  25  27
ENDBRANCH   5  25
TORSDOF 7
ENDMDL
MODEL 4
REMARK VINA RESULT:      -8.0      2.631      7.310
REMARK  Name = 
REMARK  7 active torsions:
REMARK  status: ('A' for Active; 'I' for Inactive)
REMARK    1  A    between atoms: C_2  and  O_3
REMARK    2  A    between atoms: C_2  and  C_4
REMARK    3  A    between atoms: C_6  and  N_7
REMARK    4  A    between atoms: N_8  and  C_9
REMARK    5  A    between atoms: C_10  and  O_11
REMARK    6  A    between atoms: C_21  and  C_22
REMARK    7  A    between atoms: C_22  and  O_24
REMARK                            x       y       z     vdW  Elec       q    Type
REMARK                         _______ _______ _______ _____ _____    ______ ____
ROOT
ATOM      1  C   UNL     1       0.493  10.148  21.043  0.00  0.00    +0.000 A 
ATOM      2  C   UNL     1       0.923   8.990  20.378  0.00  0.00    +0.000 A 
ATOM      3  C   UNL     1       1.524   9.068  19.112  0.00  0.00    +0.000 A 
ATOM      4  C   UNL     1       1.707  10.340  18.545  0.00  0.00    +0.000 A 
ATOM      5  C   UNL     1       1.245  11.498  19.191  0.00  0.00    +0.000 A 
ATOM      6  C   UNL     1       0.639  11.403  20.444  0.00  0.00    +0.000 A 
ENDROOT
BRANCH   1   8
ATOM      7  O   UNL     1      -0.283  11.068  23.077  0.00  0.00    +0.000 OA
ATOM      8  C   UNL     1      -0.203  10.094  22.349  0.00  0.00    +0.000 C 
BRANCH   8   9
ATOM      9  O   UNL     1      -0.684   8.877  22.668  0.00  0.00    +0.000 OA
ATOM     10  H   UNL     1      -0.018   8.195  22.874  0.00  0.00    +0.000 HD
ENDBRANCH   8   9
ENDBRANCH   1   8
BRANCH   3  11
ATOM     11  N   UNL     1       1.838   7.849  18.465  0.00  0.00    +0.000 NA
ATOM     12  N   UNL     1       2.534   7.082  19.164  0.00  0.00    +0.000 NA
BRANCH  12  13
ATOM     13  C   UNL     1       2.958   5.937  18.442  0.00  0.00    +0.000 A 
ATOM     14  C   UNL     1       4.021   6.099  17.533  0.00  0.00    +0.000 A 
ATOM     15  C   UNL     1       4.575   5.027  16.847  0.00  0.00    +0.000 A 
ATOM     16  C   UNL     1       4.039   3.757  17.027  0.00  0.00    +0.000 A 
ATOM     17  C   UNL     1       2.953   3.551  17.890  0.00  0.00    +0.000 A 
ATOM     18  C   UNL     1       2.395   2.269  18.012  0.00  0.00    +0.000 A 
ATOM     19  C   UNL     1       1.326   2.032  18.874  0.00  0.00    +0.000 A 
ATOM     20  C   UNL     1       0.825   3.067  19.655  0.00  0.00    +0.000 A 
ATOM     21  C   UNL     1       1.372   4.348  19.546  0.00  0.00    +0.000 A 
ATOM     22  C   UNL     1       2.419   4.634  18.641  0.00  0.00    +0.000 A 
BRANCH  14  23
ATOM     23  O   UNL     1       4.558   7.336  17.278  0.00  0.00    +0.000 OA
ATOM     24  H   UNL     1       4.946   7.291  16.385  0.00  0.00    +0.000 HD
ENDBRANCH  14  23
ENDBRANCH  12  13
ENDBRANCH   3  11
BRANCH   5  25
ATOM     25  C   UNL     1       1.453  12.801  18.513  0.00  0.00    +0.000 C 
ATOM     26  O   UNL     1       0.928  13.828  18.904  0.00  0.00    +0.000 OA
BRANCH  25  27
ATOM     27  O   UNL     1       2.302  12.761  17.467  0.00  0.00    +0.000 OA
ATOM     28  H   UNL     1       2.854  13.552  17.322  0.00  0.00    +0.000 HD
ENDBRANCH  25  27
ENDBRANCH   5  25
TORSDOF 7
ENDMDL
MODEL 5
REMARK VINA RESULT:      -8.0      2.601      7.432
REMARK  Name = 
REMARK  7 active torsions:
REMARK  status: ('A' for Active; 'I' for Inactive)
REMARK    1  A    between atoms: C_2  and  O_3
REMARK    2  A    between atoms: C_2  and  C_4
REMARK    3  A    between atoms: C_6  and  N_7
REMARK    4  A    between atoms: N_8  and  C_9
REMARK    5  A    between atoms: C_10  and  O_11
REMARK    6  A    between atoms: C_21  and  C_22
REMARK    7  A    between atoms: C_22  and  O_24
REMARK                            x       y       z     vdW  Elec       q    Type
REMARK                         _______ _______ _______ _____ _____    ______ ____
ROOT
ATOM      1  C   UNL     1       0.375   9.528  21.643  0.00  0.00    +0.000 A 
ATOM      2  C   UNL     1       1.312   8.594  21.178  0.00  0.00    +0.000 A 
ATOM      3  C   UNL     1       1.567   8.452  19.806  0.00  0.00    +0.000 A 
ATOM      4  C   UNL     1       0.878   9.292  18.916  0.00  0.00    +0.000 A 
ATOM      5  C   UNL     1      -0.088  10.203  19.375  0.00  0.00    +0.000 A 
ATOM      6  C   UNL     1      -0.337  10.324  20.742  0.00  0.00    +0.000 A 
ENDROOT
BRANCH   1   8
ATOM      7  O   UNL     1       0.859   9.450  23.956  0.00  0.00    +0.000 OA
ATOM      8  C   UNL     1       0.037   9.656  23.080  0.00  0.00    +0.000 C 
BRANCH   8   9
ATOM      9  O   UNL     1      -1.252   9.966  23.317  0.00  0.00    +0.000 OA
ATOM     10  H   UNL     1      -1.908   9.544  22.733  0.00  0.00    +0.000 HD
ENDBRANCH   8   9
ENDBRANCH   1   8
BRANCH   3  11
ATOM     11  N   UNL     1       2.452   7.419  19.411  0.00  0.00    +0.000 NA
ATOM     12  N   UNL     1       2.203   6.961  18.276  0.00  0.00    +0.000 NA
BRANCH  12  13
ATOM     13  C   UNL     1       3.006   5.832  17.967  0.00  0.00    +0.000 A 
ATOM     14  C   UNL     1       4.292   6.074  17.447  0.00  0.00    +0.000 A 
ATOM     15  C   UNL     1       5.192   5.046  17.201  0.00  0.00    +0.000 A 
ATOM     16  C   UNL     1       4.801   3.732  17.431  0.00  0.00    +0.000 A 
ATOM     17  C   UNL     1       3.515   3.438  17.908  0.00  0.00    +0.000 A 
ATOM     18  C   UNL     1       3.127   2.100  18.080  0.00  0.00    +0.000 A 
ATOM     19  C   UNL     1       1.861   1.780  18.568  0.00  0.00    +0.000 A 
ATOM     20  C   UNL     1       0.981   2.793  18.927  0.00  0.00    +0.000 A 
ATOM     21  C   UNL     1       1.355   4.129  18.764  0.00  0.00    +0.000 A 
ATOM     22  C   UNL     1       2.609   4.488  18.219  0.00  0.00    +0.000 A 
BRANCH  14  23
ATOM     23  O   UNL     1       4.715   7.346  17.154  0.00  0.00    +0.000 OA
ATOM     24  H   UNL     1       4.092   7.700  16.495  0.00  0.00    +0.000 HD
ENDBRANCH  14  23
ENDBRANCH  12  13
ENDBRANCH   3  11
BRANCH   5  25
ATOM     25  C   UNL     1      -0.790  11.036  18.368  0.00  0.00    +0.000 C 
ATOM     26  O   UNL     1      -1.044  12.211  18.561  0.00  0.00    +0.000 OA
BRANCH  25  27
ATOM     27  O   UNL     1      -1.079  10.400  17.215  0.00  0.00    +0.000 OA
ATOM     28  H   UNL     1      -0.781   9.474  17.140  0.00  0.00    +0.000 HD
ENDBRANCH  25  27
ENDBRANCH   5  25
TORSDOF 7
ENDMDL
MODEL 6
REMARK VINA RESULT:      -7.9      0.971      1.123
REMARK  Name = 
REMARK  7 active torsions:
REMARK  status: ('A' for Active; 'I' for Inactive)
REMARK    1  A    between atoms: C_2  and  O_3
REMARK    2  A    between atoms: C_2  and  C_4
REMARK    3  A    between atoms: C_6  and  N_7
REMARK    4  A    between atoms: N_8  and  C_9
REMARK    5  A    between atoms: C_10  and  O_11
REMARK    6  A    between atoms: C_21  and  C_22
REMARK    7  A    between atoms: C_22  and  O_24
REMARK                            x       y       z     vdW  Elec       q    Type
REMARK                         _______ _______ _______ _____ _____    ______ ____
ROOT
ATOM      1  C   UNL     1       2.573   3.872  18.201  0.00  0.00    +0.000 A 
ATOM      2  C   UNL     1       1.922   5.114  18.209  0.00  0.00    +0.000 A 
ATOM      3  C   UNL     1       2.654   6.310  18.239  0.00  0.00    +0.000 A 
ATOM      4  C   UNL     1       4.056   6.227  18.231  0.00  0.00    +0.000 A 
ATOM      5  C   UNL     1       4.711   4.985  18.261  0.00  0.00    +0.000 A 
ATOM      6  C   UNL     1       3.968   3.804  18.242  0.00  0.00    +0.000 A 
ENDROOT
BRANCH   1   8
ATOM      7  O   UNL     1       0.618   2.555  18.377  0.00  0.00    +0.000 OA
ATOM      8  C   UNL     1       1.828   2.592  18.236  0.00  0.00    +0.000 C 
BRANCH   8   9
ATOM      9  O   UNL     1       2.607   1.498  18.147  0.00  0.00    +0.000 OA
ATOM     10  H   UNL     1       3.028   1.204  18.976  0.00  0.00    +0.000 HD
ENDBRANCH   8   9
ENDBRANCH   1   8
BRANCH   3  11
ATOM     11  N   UNL     1       1.923   7.519  18.347  0.00  0.00    +0.000 NA
ATOM     12  N   UNL     1       2.202   8.176  19.372  0.00  0.00    +0.000 NA
BRANCH  12  13
ATOM     13  C   UNL     1       1.354   9.303  19.531  0.00  0.00    +0.000 A 
ATOM     14  C   UNL     1       1.189  10.153  18.421  0.00  0.00    +0.000 A 
ATOM     15  C   UNL     1       0.310  11.228  18.440  0.00  0.00    +0.000 A 
ATOM     16  C   UNL     1      -0.400  11.503  19.604  0.00  0.00    +0.000 A 
ATOM     17  C   UNL     1      -0.238  10.709  20.749  0.00  0.00    +0.000 A 
ATOM     18  C   UNL     1      -0.925  11.041  21.927  0.00  0.00    +0.000 A 
ATOM     19  C   UNL     1      -0.796  10.261  23.074  0.00  0.00    +0.000 A 
ATOM     20  C   UNL     1      -0.008   9.117  23.048  0.00  0.00    +0.000 A 
ATOM     21  C   UNL     1       0.680   8.773  21.882  0.00  0.00    +0.000 A 
ATOM     22  C   UNL     1       0.615   9.573  20.718  0.00  0.00    +0.000 A 
BRANCH  14  23
ATOM     23  O   UNL     1       1.900   9.961  17.263  0.00  0.00    +0.000 OA
ATOM     24  H   UNL     1       1.258   9.672  16.589  0.00  0.00    +0.000 HD
ENDBRANCH  14  23
ENDBRANCH  12  13
ENDBRANCH   3  11
BRANCH   5  25
ATOM     25  C   UNL     1       6.195   4.983  18.278  0.00  0.00    +0.000 C 
ATOM     26  O   UNL     1       6.856   5.064  17.259  0.00  0.00    +0.000 OA
BRANCH  25  27
ATOM     27  O   UNL     1       6.743   4.932  19.509  0.00  0.00    +0.000 OA
ATOM     28  H   UNL     1       6.522   4.153  20.053  0.00  0.00    +0.000 HD
ENDBRANCH  25  27
ENDBRANCH   5  25
TORSDOF 7
ENDMDL
MODEL 7
REMARK VINA RESULT:      -7.9      1.609      1.735
REMARK  Name = 
REMARK  7 active torsions:
REMARK  status: ('A' for Active; 'I' for Inactive)
REMARK    1  A    between atoms: C_2  and  O_3
REMARK    2  A    between atoms: C_2  and  C_4
REMARK    3  A    between atoms: C_6  and  N_7
REMARK    4  A    between atoms: N_8  and  C_9
REMARK    5  A    between atoms: C_10  and  O_11
REMARK    6  A    between atoms: C_21  and  C_22
REMARK    7  A    between atoms: C_22  and  O_24
REMARK                            x       y       z     vdW  Elec       q    Type
REMARK                         _______ _______ _______ _____ _____    ______ ____
ROOT
ATOM      1  C   UNL     1       2.509   4.248  18.194  0.00  0.00    +0.000 A 
ATOM      2  C   UNL     1       2.178   5.519  18.688  0.00  0.00    +0.000 A 
ATOM      3  C   UNL     1       2.918   6.651  18.315  0.00  0.00    +0.000 A 
ATOM      4  C   UNL     1       3.979   6.479  17.412  0.00  0.00    +0.000 A 
ATOM      5  C   UNL     1       4.337   5.204  16.943  0.00  0.00    +0.000 A 
ATOM      6  C   UNL     1       3.598   4.086  17.332  0.00  0.00    +0.000 A 
ENDROOT
BRANCH   1   8
ATOM      7  O   UNL     1       1.260   2.938  19.713  0.00  0.00    +0.000 OA
ATOM      8  C   UNL     1       1.789   3.026  18.619  0.00  0.00    +0.000 C 
BRANCH   8   9
ATOM      9  O   UNL     1       1.818   2.027  17.717  0.00  0.00    +0.000 OA
ATOM     10  H   UNL     1       1.009   1.907  17.185  0.00  0.00    +0.000 HD
ENDBRANCH   8   9
ENDBRANCH   1   8
BRANCH   3  11
ATOM     11  N   UNL     1       2.584   7.880  18.935  0.00  0.00    +0.000 NA
ATOM     12  N   UNL     1       1.375   8.175  18.828  0.00  0.00    +0.000 NA
BRANCH  12  13
ATOM     13  C   UNL     1       1.096   9.475  19.325  0.00  0.00    +0.000 A 
ATOM     14  C   UNL     1       1.441  10.570  18.509  0.00  0.00    +0.000 A 
ATOM     15  C   UNL     1       1.127  11.876  18.857  0.00  0.00    +0.000 A 
ATOM     16  C   UNL     1       0.490  12.121  20.069  0.00  0.00    +0.000 A 
ATOM     17  C   UNL     1       0.163  11.067  20.935  0.00  0.00    +0.000 A 
ATOM     18  C   UNL     1      -0.430  11.345  22.175  0.00  0.00    +0.000 A 
ATOM     19  C   UNL     1      -0.780  10.317  23.048  0.00  0.00    +0.000 A 
ATOM     20  C   UNL     1      -0.577   8.994  22.676  0.00  0.00    +0.000 A 
ATOM     21  C   UNL     1       0.010   8.702  21.442  0.00  0.00    +0.000 A 
ATOM     22  C   UNL     1       0.428   9.722  20.557  0.00  0.00    +0.000 A 
BRANCH  14  23
ATOM     23  O   UNL     1       2.115  10.394  17.326  0.00  0.00    +0.000 OA
ATOM     24  H   UNL     1       1.786   9.561  16.942  0.00  0.00    +0.000 HD
ENDBRANCH  14  23
ENDBRANCH  12  13
ENDBRANCH   3  11
BRANCH   5  25
ATOM     25  C   UNL     1       5.487   5.103  16.012  0.00  0.00    +0.000 C 
ATOM     26  O   UNL     1       5.968   4.033  15.687  0.00  0.00    +0.000 OA
BRANCH  25  27
ATOM     27  O   UNL     1       5.920   6.283  15.524  0.00  0.00    +0.000 OA
ATOM     28  H   UNL     1       5.792   6.434  14.569  0.00  0.00    +0.000 HD
ENDBRANCH  25  27
ENDBRANCH   5  25
TORSDOF 7
ENDMDL
MODEL 8
REMARK VINA RESULT:      -7.9      1.534      1.739
REMARK  Name = 
REMARK  7 active torsions:
REMARK  status: ('A' for Active; 'I' for Inactive)
REMARK    1  A    between atoms: C_2  and  O_3
REMARK    2  A    between atoms: C_2  and  C_4
REMARK    3  A    between atoms: C_6  and  N_7
REMARK    4  A    between atoms: N_8  and  C_9
REMARK    5  A    between atoms: C_10  and  O_11
REMARK    6  A    between atoms: C_21  and  C_22
REMARK    7  A    between atoms: C_22  and  O_24
REMARK                            x       y       z     vdW  Elec       q    Type
REMARK                         _______ _______ _______ _____ _____    ______ ____
ROOT
ATOM      1  C   UNL     1       2.685   4.523  17.882  0.00  0.00    +0.000 A 
ATOM      2  C   UNL     1       2.293   5.818  18.251  0.00  0.00    +0.000 A 
ATOM      3  C   UNL     1       3.134   6.917  18.021  0.00  0.00    +0.000 A 
ATOM      4  C   UNL     1       4.364   6.686  17.384  0.00  0.00    +0.000 A 
ATOM      5  C   UNL     1       4.776   5.387  17.046  0.00  0.00    +0.000 A 
ATOM      6  C   UNL     1       3.933   4.302  17.292  0.00  0.00    +0.000 A 
ENDROOT
BRANCH   1   8
ATOM      7  O   UNL     1       1.944   2.307  17.521  0.00  0.00    +0.000 OA
ATOM      8  C   UNL     1       1.849   3.334  18.171  0.00  0.00    +0.000 C 
BRANCH   8   9
ATOM      9  O   UNL     1       0.961   3.514  19.166  0.00  0.00    +0.000 OA
ATOM     10  H   UNL     1       0.324   4.242  19.046  0.00  0.00    +0.000 HD
ENDBRANCH   8   9
ENDBRANCH   1   8
BRANCH   3  11
ATOM     11  N   UNL     1       2.709   8.175  18.513  0.00  0.00    +0.000 NA
ATOM     12  N   UNL     1       1.600   8.135  19.085  0.00  0.00    +0.000 NA
BRANCH  12  13
ATOM     13  C   UNL     1       1.131   9.427  19.436  0.00  0.00    +0.000 A 
ATOM     14  C   UNL     1       1.292  10.456  18.488  0.00  0.00    +0.000 A 
ATOM     15  C   UNL     1       0.785  11.732  18.691  0.00  0.00    +0.000 A 
ATOM     16  C   UNL     1       0.135  12.021  19.886  0.00  0.00    +0.000 A 
ATOM     17  C   UNL     1      -0.014  11.041  20.879  0.00  0.00    +0.000 A 
ATOM     18  C   UNL     1      -0.626  11.373  22.097  0.00  0.00    +0.000 A 
ATOM     19  C   UNL     1      -0.801  10.416  23.094  0.00  0.00    +0.000 A 
ATOM     20  C   UNL     1      -0.402   9.104  22.872  0.00  0.00    +0.000 A 
ATOM     21  C   UNL     1       0.206   8.758  21.663  0.00  0.00    +0.000 A 
ATOM     22  C   UNL     1       0.450   9.717  20.652  0.00  0.00    +0.000 A 
BRANCH  14  23
ATOM     23  O   UNL     1       1.968  10.243  17.313  0.00  0.00    +0.000 OA
ATOM     24  H   UNL     1       2.813  10.722  17.389  0.00  0.00    +0.000 HD
ENDBRANCH  14  23
ENDBRANCH  12  13
ENDBRANCH   3  11
BRANCH   5  25
ATOM     25  C   UNL     1       6.101   5.224  16.400  0.00  0.00    +0.000 C 
ATOM     26  O   UNL     1       6.724   6.169  15.949  0.00  0.00    +0.000 OA
BRANCH  25  27
ATOM     27  O   UNL     1       6.575   3.962  16.396  0.00  0.00    +0.000 OA
ATOM     28  H   UNL     1       7.143   3.707  17.146  0.00  0.00    +0.000 HD
ENDBRANCH  25  27
ENDBRANCH   5  25
TORSDOF 7
ENDMDL
MODEL 9
REMARK VINA RESULT:      -7.9      2.664      7.949
REMARK  Name = 
REMARK  7 active torsions:
REMARK  status: ('A' for Active; 'I' for Inactive)
REMARK    1  A    between atoms: C_2  and  O_3
REMARK    2  A    between atoms: C_2  and  C_4
REMARK    3  A    between atoms: C_6  and  N_7
REMARK    4  A    between atoms: N_8  and  C_9
REMARK    5  A    between atoms: C_10  and  O_11
REMARK    6  A    between atoms: C_21  and  C_22
REMARK    7  A    between atoms: C_22  and  O_24
REMARK                            x       y       z     vdW  Elec       q    Type
REMARK                         _______ _______ _______ _____ _____    ______ ____
ROOT
ATOM      1  C   UNL     1       0.911  10.392  19.573  0.00  0.00    +0.000 A 
ATOM      2  C   UNL     1       1.511   9.169  19.239  0.00  0.00    +0.000 A 
ATOM      3  C   UNL     1       1.606   8.133  20.181  0.00  0.00    +0.000 A 
ATOM      4  C   UNL     1       1.058   8.346  21.455  0.00  0.00    +0.000 A 
ATOM      5  C   UNL     1       0.489   9.582  21.806  0.00  0.00    +0.000 A 
ATOM      6  C   UNL     1       0.411  10.606  20.861  0.00  0.00    +0.000 A 
ENDROOT
BRANCH   1   8
ATOM      7  O   UNL     1      -0.146  12.214  18.500  0.00  0.00    +0.000 OA
ATOM      8  C   UNL     1       0.853  11.527  18.623  0.00  0.00    +0.000 C 
BRANCH   8   9
ATOM      9  O   UNL     1       1.971  11.689  17.890  0.00  0.00    +0.000 OA
ATOM     10  H   UNL     1       2.337  10.883  17.483  0.00  0.00    +0.000 HD
ENDBRANCH   8   9
ENDBRANCH   1   8
BRANCH   3  11
ATOM     11  N   UNL     1       2.314   6.968  19.797  0.00  0.00    +0.000 NA
ATOM     12  N   UNL     1       2.212   6.705  18.580  0.00  0.00    +0.000 NA
BRANCH  12  13
ATOM     13  C   UNL     1       2.805   5.458  18.252  0.00  0.00    +0.000 A 
ATOM     14  C   UNL     1       2.233   4.300  18.812  0.00  0.00    +0.000 A 
ATOM     15  C   UNL     1       2.674   3.026  18.481  0.00  0.00    +0.000 A 
ATOM     16  C   UNL     1       3.744   2.885  17.603  0.00  0.00    +0.000 A 
ATOM     17  C   UNL     1       4.373   4.010  17.052  0.00  0.00    +0.000 A 
ATOM     18  C   UNL     1       5.485   3.842  16.211  0.00  0.00    +0.000 A 
ATOM     19  C   UNL     1       6.120   4.942  15.637  0.00  0.00    +0.000 A 
ATOM     20  C   UNL     1       5.629   6.221  15.864  0.00  0.00    +0.000 A 
ATOM     21  C   UNL     1       4.521   6.403  16.696  0.00  0.00    +0.000 A 
ATOM     22  C   UNL     1       3.888   5.315  17.339  0.00  0.00    +0.000 A 
BRANCH  14  23
ATOM     23  O   UNL     1       1.208   4.379  19.721  0.00  0.00    +0.000 OA
ATOM     24  H   UNL     1       1.166   3.513  20.167  0.00  0.00    +0.000 HD
ENDBRANCH  14  23
ENDBRANCH  12  13
ENDBRANCH   3  11
BRANCH   5  25
ATOM     25  C   UNL     1      -0.045   9.736  23.181  0.00  0.00    +0.000 C 
ATOM     26  O   UNL     1       0.603   9.432  24.167  0.00  0.00    +0.000 OA
BRANCH  25  27
ATOM     27  O   UNL     1      -1.277  10.279  23.249  0.00  0.00    +0.000 OA
ATOM     28  H   UNL     1      -1.993   9.796  22.796  0.00  0.00    +0.000 HD
ENDBRANCH  25  27
ENDBRANCH   5  25
TORSDOF 7
ENDMDL
