MODEL 1
REMARK VINA RESULT:      -7.0      0.000      0.000
REMARK  Name = 
REMARK  7 active torsions:
REMARK  status: ('A' for Active; 'I' for Inactive)
REMARK    1  A    between atoms: C_1  and  C_2
REMARK    2  A    between atoms: C_2  and  C_3
REMARK    3  A    between atoms: C_3  and  C_4
REMARK    4  A    between atoms: C_4  and  O_5
REMARK    5  A    between atoms: O_5  and  C_6
REMARK    6  A    between atoms: C_11  and  C_12
REMARK    7  A    between atoms: C_12  and  O_14
REMARK                            x       y       z     vdW  Elec       q    Type
REMARK                         _______ _______ _______ _____ _____    ______ ____
ROOT
ATOM      1  C   UNL     1       6.655   6.236  16.751  0.00  0.00    +0.000 A 
ATOM      2  C   UNL     1       6.264   5.408  15.701  0.00  0.00    +0.000 A 
ATOM      3  C   UNL     1       5.192   4.540  15.847  0.00  0.00    +0.000 A 
ATOM      4  C   UNL     1       4.477   4.466  17.054  0.00  0.00    +0.000 A 
ATOM      5  C   UNL     1       3.404   3.577  17.219  0.00  0.00    +0.000 A 
ATOM      6  C   UNL     1       2.690   3.508  18.425  0.00  0.00    +0.000 A 
ATOM      7  C   UNL     1       3.064   4.341  19.484  0.00  0.00    +0.000 A 
ATOM      8  C   UNL     1       4.141   5.230  19.329  0.00  0.00    +0.000 A 
ATOM      9  C   UNL     1       4.857   5.308  18.122  0.00  0.00    +0.000 A 
ATOM     10  C   UNL     1       5.943   6.187  17.956  0.00  0.00    +0.000 A 
ENDROOT
BRANCH   6  11
ATOM     11  C   UNL     1       1.594   2.493  18.505  0.00  0.00    +0.000 C 
ATOM     12  O   UNL     1       0.426   2.793  18.350  0.00  0.00    +0.000 OA
BRANCH  11  13
ATOM     13  O   UNL     1       1.974   1.236  18.823  0.00  0.00    +0.000 OA
ATOM     14  H   UNL     1       1.825   0.945  19.740  0.00  0.00    +0.000 HD
ENDBRANCH  11  13
ENDBRANCH   6  11
BRANCH   1  15
ATOM     15  O   UNL     1       7.718   7.099  16.718  0.00  0.00    +0.000 OA
BRANCH  15  16
ATOM     16  C   UNL     1       8.052   7.713  17.966  0.00  0.00    +0.000 C 
BRANCH  16  17
ATOM     17  C   UNL     1       8.096   9.224  17.772  0.00  0.00    +0.000 C 
BRANCH  17  19
ATOM     18  C   UNL     1       9.558  11.208  18.306  0.00  0.00    +0.000 C 
ATOM     19  C   UNL     1       8.989   9.895  18.814  0.00  0.00    +0.000 C 
ENDBRANCH  17  19
ENDBRANCH  16  17
ENDBRANCH  15  16
ENDBRANCH   1  15
TORSDOF 6
ENDMDL
MODEL 2
REMARK VINA RESULT:      -7.0      2.797      4.872
REMARK  Name = 
REMARK  7 active torsions:
REMARK  status: ('A' for Active; 'I' for Inactive)
REMARK    1  A    between atoms: C_1  and  C_2
REMARK    2  A    between atoms: C_2  and  C_3
REMARK    3  A    between atoms: C_3  and  C_4
REMARK    4  A    between atoms: C_4  and  O_5
REMARK    5  A    between atoms: O_5  and  C_6
REMARK    6  A    between atoms: C_11  and  C_12
REMARK    7  A    between atoms: C_12  and  O_14
REMARK                            x       y       z     vdW  Elec       q    Type
REMARK                         _______ _______ _______ _____ _____    ______ ____
ROOT
ATOM      1  C   UNL     1       5.536   5.462  15.508  0.00  0.00    +0.000 A 
ATOM      2  C   UNL     1       5.298   6.630  16.231  0.00  0.00    +0.000 A 
ATOM      3  C   UNL     1       4.434   6.624  17.317  0.00  0.00    +0.000 A 
ATOM      4  C   UNL     1       3.775   5.449  17.713  0.00  0.00    +0.000 A 
ATOM      5  C   UNL     1       2.883   5.437  18.798  0.00  0.00    +0.000 A 
ATOM      6  C   UNL     1       2.227   4.262  19.193  0.00  0.00    +0.000 A 
ATOM      7  C   UNL     1       2.466   3.080  18.483  0.00  0.00    +0.000 A 
ATOM      8  C   UNL     1       3.352   3.084  17.393  0.00  0.00    +0.000 A 
ATOM      9  C   UNL     1       4.016   4.258  16.995  0.00  0.00    +0.000 A 
ATOM     10  C   UNL     1       4.898   4.279  15.900  0.00  0.00    +0.000 A 
ENDROOT
BRANCH   6  11
ATOM     11  C   UNL     1       1.266   4.374  20.334  0.00  0.00    +0.000 C 
ATOM     12  O   UNL     1       0.976   5.446  20.829  0.00  0.00    +0.000 OA
BRANCH  11  13
ATOM     13  O   UNL     1       0.790   3.208  20.823  0.00  0.00    +0.000 OA
ATOM     14  H   UNL     1       0.473   2.552  20.178  0.00  0.00    +0.000 HD
ENDBRANCH  11  13
ENDBRANCH   6  11
BRANCH   1  15
ATOM     15  O   UNL     1       6.341   5.372  14.404  0.00  0.00    +0.000 OA
BRANCH  15  16
ATOM     16  C   UNL     1       6.721   4.046  14.025  0.00  0.00    +0.000 C 
BRANCH  16  17
ATOM     17  C   UNL     1       6.659   3.934  12.506  0.00  0.00    +0.000 C 
BRANCH  17  19
ATOM     18  C   UNL     1       5.603   1.925  11.409  0.00  0.00    +0.000 C 
ATOM     19  C   UNL     1       5.357   3.282  12.048  0.00  0.00    +0.000 C 
ENDBRANCH  17  19
ENDBRANCH  16  17
ENDBRANCH  15  16
ENDBRANCH   1  15
TORSDOF 6
ENDMDL
MODEL 3
REMARK VINA RESULT:      -6.9      3.294      6.443
REMARK  Name = 
REMARK  7 active torsions:
REMARK  status: ('A' for Active; 'I' for Inactive)
REMARK    1  A    between atoms: C_1  and  C_2
REMARK    2  A    between atoms: C_2  and  C_3
REMARK    3  A    between atoms: C_3  and  C_4
REMARK    4  A    between atoms: C_4  and  O_5
REMARK    5  A    between atoms: O_5  and  C_6
REMARK    6  A    between atoms: C_11  and  C_12
REMARK    7  A    between atoms: C_12  and  O_14
REMARK                            x       y       z     vdW  Elec       q    Type
REMARK                         _______ _______ _______ _____ _____    ______ ____
ROOT
ATOM      1  C   UNL     1       2.769   6.346  18.993  0.00  0.00    +0.000 A 
ATOM      2  C   UNL     1       3.105   7.475  18.247  0.00  0.00    +0.000 A 
ATOM      3  C   UNL     1       3.947   7.371  17.149  0.00  0.00    +0.000 A 
ATOM      4  C   UNL     1       4.487   6.134  16.763  0.00  0.00    +0.000 A 
ATOM      5  C   UNL     1       5.356   6.022  15.666  0.00  0.00    +0.000 A 
ATOM      6  C   UNL     1       5.892   4.783  15.280  0.00  0.00    +0.000 A 
ATOM      7  C   UNL     1       5.554   3.641  16.013  0.00  0.00    +0.000 A 
ATOM      8  C   UNL     1       4.690   3.745  17.116  0.00  0.00    +0.000 A 
ATOM      9  C   UNL     1       4.145   4.982  17.504  0.00  0.00    +0.000 A 
ATOM     10  C   UNL     1       3.287   5.102  18.611  0.00  0.00    +0.000 A 
ENDROOT
BRANCH   6  11
ATOM     11  C   UNL     1       6.841   4.788  14.124  0.00  0.00    +0.000 C 
ATOM     12  O   UNL     1       6.663   4.093  13.142  0.00  0.00    +0.000 OA
BRANCH  11  13
ATOM     13  O   UNL     1       7.939   5.561  14.265  0.00  0.00    +0.000 OA
ATOM     14  H   UNL     1       8.649   5.450  13.607  0.00  0.00    +0.000 HD
ENDBRANCH  11  13
ENDBRANCH   6  11
BRANCH   1  15
ATOM     15  O   UNL     1       1.977   6.349  20.110  0.00  0.00    +0.000 OA
BRANCH  15  16
ATOM     16  C   UNL     1       2.026   5.160  20.903  0.00  0.00    +0.000 C 
BRANCH  16  17
ATOM     17  C   UNL     1       0.910   4.225  20.453  0.00  0.00    +0.000 C 
BRANCH  17  19
ATOM     18  C   UNL     1       2.565   2.639  21.503  0.00  0.00    +0.000 C 
ATOM     19  C   UNL     1       1.228   2.771  20.794  0.00  0.00    +0.000 C 
ENDBRANCH  17  19
ENDBRANCH  16  17
ENDBRANCH  15  16
ENDBRANCH   1  15
TORSDOF 6
ENDMDL
MODEL 4
REMARK VINA RESULT:      -6.9      2.859      4.223
REMARK  Name = 
REMARK  7 active torsions:
REMARK  status: ('A' for Active; 'I' for Inactive)
REMARK    1  A    between atoms: C_1  and  C_2
REMARK    2  A    between atoms: C_2  and  C_3
REMARK    3  A    between atoms: C_3  and  C_4
REMARK    4  A    between atoms: C_4  and  O_5
REMARK    5  A    between atoms: O_5  and  C_6
REMARK    6  A    between atoms: C_11  and  C_12
REMARK    7  A    between atoms: C_12  and  O_14
REMARK                            x       y       z     vdW  Elec       q    Type
REMARK                         _______ _______ _______ _____ _____    ______ ____
ROOT
ATOM      1  C   UNL     1       5.619   5.881  16.717  0.00  0.00    +0.000 A 
ATOM      2  C   UNL     1       4.552   6.735  16.990  0.00  0.00    +0.000 A 
ATOM      3  C   UNL     1       3.574   6.374  17.907  0.00  0.00    +0.000 A 
ATOM      4  C   UNL     1       3.628   5.142  18.577  0.00  0.00    +0.000 A 
ATOM      5  C   UNL     1       2.634   4.758  19.491  0.00  0.00    +0.000 A 
ATOM      6  C   UNL     1       2.692   3.527  20.163  0.00  0.00    +0.000 A 
ATOM      7  C   UNL     1       3.763   2.665  19.907  0.00  0.00    +0.000 A 
ATOM      8  C   UNL     1       4.760   3.038  18.989  0.00  0.00    +0.000 A 
ATOM      9  C   UNL     1       4.710   4.272  18.317  0.00  0.00    +0.000 A 
ATOM     10  C   UNL     1       5.695   4.654  17.390  0.00  0.00    +0.000 A 
ENDROOT
BRANCH   6  11
ATOM     11  C   UNL     1       1.556   3.204  21.080  0.00  0.00    +0.000 C 
ATOM     12  O   UNL     1       1.735   2.887  22.240  0.00  0.00    +0.000 OA
BRANCH  11  13
ATOM     13  O   UNL     1       0.325   3.222  20.525  0.00  0.00    +0.000 OA
ATOM     14  H   UNL     1      -0.063   4.093  20.330  0.00  0.00    +0.000 HD
ENDBRANCH  11  13
ENDBRANCH   6  11
BRANCH   1  15
ATOM     15  O   UNL     1       6.611   6.129  15.807  0.00  0.00    +0.000 OA
BRANCH  15  16
ATOM     16  C   UNL     1       7.288   4.974  15.303  0.00  0.00    +0.000 C 
BRANCH  16  17
ATOM     17  C   UNL     1       6.922   4.794  13.835  0.00  0.00    +0.000 C 
BRANCH  17  19
ATOM     18  C   UNL     1       5.585   3.440  12.179  0.00  0.00    +0.000 C 
ATOM     19  C   UNL     1       5.910   3.666  13.646  0.00  0.00    +0.000 C 
ENDBRANCH  17  19
ENDBRANCH  16  17
ENDBRANCH  15  16
ENDBRANCH   1  15
TORSDOF 6
ENDMDL
MODEL 5
REMARK VINA RESULT:      -6.9      0.997      1.056
REMARK  Name = 
REMARK  7 active torsions:
REMARK  status: ('A' for Active; 'I' for Inactive)
REMARK    1  A    between atoms: C_1  and  C_2
REMARK    2  A    between atoms: C_2  and  C_3
REMARK    3  A    between atoms: C_3  and  C_4
REMARK    4  A    between atoms: C_4  and  O_5
REMARK    5  A    between atoms: O_5  and  C_6
REMARK    6  A    between atoms: C_11  and  C_12
REMARK    7  A    between atoms: C_12  and  O_14
REMARK                            x       y       z     vdW  Elec       q    Type
REMARK                         _______ _______ _______ _____ _____    ______ ____
ROOT
ATOM      1  C   UNL     1       6.658   6.704  16.983  0.00  0.00    +0.000 A 
ATOM      2  C   UNL     1       7.087   5.390  16.802  0.00  0.00    +0.000 A 
ATOM      3  C   UNL     1       6.213   4.329  16.994  0.00  0.00    +0.000 A 
ATOM      4  C   UNL     1       4.880   4.548  17.379  0.00  0.00    +0.000 A 
ATOM      5  C   UNL     1       3.994   3.481  17.595  0.00  0.00    +0.000 A 
ATOM      6  C   UNL     1       2.662   3.702  17.978  0.00  0.00    +0.000 A 
ATOM      7  C   UNL     1       2.215   5.016  18.151  0.00  0.00    +0.000 A 
ATOM      8  C   UNL     1       3.097   6.090  17.943  0.00  0.00    +0.000 A 
ATOM      9  C   UNL     1       4.432   5.875  17.554  0.00  0.00    +0.000 A 
ATOM     10  C   UNL     1       5.327   6.939  17.351  0.00  0.00    +0.000 A 
ENDROOT
BRANCH   6  11
ATOM     11  C   UNL     1       1.819   2.491  18.223  0.00  0.00    +0.000 C 
ATOM     12  O   UNL     1       0.608   2.557  18.315  0.00  0.00    +0.000 OA
BRANCH  11  13
ATOM     13  O   UNL     1       2.488   1.331  18.401  0.00  0.00    +0.000 OA
ATOM     14  H   UNL     1       3.172   1.107  17.745  0.00  0.00    +0.000 HD
ENDBRANCH  11  13
ENDBRANCH   6  11
BRANCH   1  15
ATOM     15  O   UNL     1       7.450   7.814  16.852  0.00  0.00    +0.000 OA
BRANCH  15  16
ATOM     16  C   UNL     1       8.166   8.201  18.028  0.00  0.00    +0.000 C 
BRANCH  16  17
ATOM     17  C   UNL     1       8.220   9.722  18.089  0.00  0.00    +0.000 C 
BRANCH  17  19
ATOM     18  C   UNL     1       9.307  10.826  20.079  0.00  0.00    +0.000 C 
ATOM     19  C   UNL     1       9.528  10.210  18.708  0.00  0.00    +0.000 C 
ENDBRANCH  17  19
ENDBRANCH  16  17
ENDBRANCH  15  16
ENDBRANCH   1  15
TORSDOF 6
ENDMDL
MODEL 6
REMARK VINA RESULT:      -6.9      2.865      4.383
REMARK  Name = 
REMARK  7 active torsions:
REMARK  status: ('A' for Active; 'I' for Inactive)
REMARK    1  A    between atoms: C_1  and  C_2
REMARK    2  A    between atoms: C_2  and  C_3
REMARK    3  A    between atoms: C_3  and  C_4
REMARK    4  A    between atoms: C_4  and  O_5
REMARK    5  A    between atoms: O_5  and  C_6
REMARK    6  A    between atoms: C_11  and  C_12
REMARK    7  A    between atoms: C_12  and  O_14
REMARK                            x       y       z     vdW  Elec       q    Type
REMARK                         _______ _______ _______ _____ _____    ______ ____
ROOT
ATOM      1  C   UNL     1       5.339   5.477  15.987  0.00  0.00    +0.000 A 
ATOM      2  C   UNL     1       4.964   6.469  16.892  0.00  0.00    +0.000 A 
ATOM      3  C   UNL     1       4.255   6.145  18.041  0.00  0.00    +0.000 A 
ATOM      4  C   UNL     1       3.894   4.817  18.321  0.00  0.00    +0.000 A 
ATOM      5  C   UNL     1       3.160   4.482  19.469  0.00  0.00    +0.000 A 
ATOM      6  C   UNL     1       2.802   3.154  19.748  0.00  0.00    +0.000 A 
ATOM      7  C   UNL     1       3.183   2.147  18.854  0.00  0.00    +0.000 A 
ATOM      8  C   UNL     1       3.912   2.475  17.698  0.00  0.00    +0.000 A 
ATOM      9  C   UNL     1       4.278   3.803  17.417  0.00  0.00    +0.000 A 
ATOM     10  C   UNL     1       4.999   4.146  16.260  0.00  0.00    +0.000 A 
ENDROOT
BRANCH   6  11
ATOM     11  C   UNL     1       1.983   2.917  20.977  0.00  0.00    +0.000 C 
ATOM     12  O   UNL     1       0.780   3.093  20.993  0.00  0.00    +0.000 OA
BRANCH  11  13
ATOM     13  O   UNL     1       2.669   2.559  22.084  0.00  0.00    +0.000 OA
ATOM     14  H   UNL     1       2.837   3.252  22.747  0.00  0.00    +0.000 HD
ENDBRANCH  11  13
ENDBRANCH   6  11
BRANCH   1  15
ATOM     15  O   UNL     1       6.006   5.698  14.812  0.00  0.00    +0.000 OA
BRANCH  15  16
ATOM     16  C   UNL     1       6.874   4.642  14.389  0.00  0.00    +0.000 C 
BRANCH  16  17
ATOM     17  C   UNL     1       7.546   5.055  13.085  0.00  0.00    +0.000 C 
BRANCH  17  19
ATOM     18  C   UNL     1       5.920   3.289  12.315  0.00  0.00    +0.000 C 
ATOM     19  C   UNL     1       7.077   4.190  11.918  0.00  0.00    +0.000 C 
ENDBRANCH  17  19
ENDBRANCH  16  17
ENDBRANCH  15  16
ENDBRANCH   1  15
TORSDOF 6
ENDMDL
MODEL 7
REMARK VINA RESULT:      -6.8      2.978      5.904
REMARK  Name = 
REMARK  7 active torsions:
REMARK  status: ('A' for Active; 'I' for Inactive)
REMARK    1  A    between atoms: C_1  and  C_2
REMARK    2  A    between atoms: C_2  and  C_3
REMARK    3  A    between atoms: C_3  and  C_4
REMARK    4  A    between atoms: C_4  and  O_5
REMARK    5  A    between atoms: O_5  and  C_6
REMARK    6  A    between atoms: C_11  and  C_12
REMARK    7  A    between atoms: C_12  and  O_14
REMARK                            x       y       z     vdW  Elec       q    Type
REMARK                         _______ _______ _______ _____ _____    ______ ____
ROOT
ATOM      1  C   UNL     1       3.037   3.327  19.416  0.00  0.00    +0.000 A 
ATOM      2  C   UNL     1       2.412   3.039  18.204  0.00  0.00    +0.000 A 
ATOM      3  C   UNL     1       3.081   3.222  17.002  0.00  0.00    +0.000 A 
ATOM      4  C   UNL     1       4.399   3.705  16.972  0.00  0.00    +0.000 A 
ATOM      5  C   UNL     1       5.078   3.913  15.762  0.00  0.00    +0.000 A 
ATOM      6  C   UNL     1       6.397   4.393  15.735  0.00  0.00    +0.000 A 
ATOM      7  C   UNL     1       7.041   4.675  16.944  0.00  0.00    +0.000 A 
ATOM      8  C   UNL     1       6.366   4.476  18.160  0.00  0.00    +0.000 A 
ATOM      9  C   UNL     1       5.047   3.990  18.194  0.00  0.00    +0.000 A 
ATOM     10  C   UNL     1       4.358   3.794  19.404  0.00  0.00    +0.000 A 
ENDROOT
BRANCH   6  11
ATOM     11  C   UNL     1       7.007   4.619  14.388  0.00  0.00    +0.000 C 
ATOM     12  O   UNL     1       7.802   5.515  14.183  0.00  0.00    +0.000 OA
BRANCH  11  13
ATOM     13  O   UNL     1       6.573   3.807  13.399  0.00  0.00    +0.000 OA
ATOM     14  H   UNL     1       5.776   4.084  12.913  0.00  0.00    +0.000 HD
ENDBRANCH  11  13
ENDBRANCH   6  11
BRANCH   1  15
ATOM     15  O   UNL     1       2.453   3.213  20.648  0.00  0.00    +0.000 OA
BRANCH  15  16
ATOM     16  C   UNL     1       2.245   4.444  21.348  0.00  0.00    +0.000 C 
BRANCH  16  17
ATOM     17  C   UNL     1       1.425   5.377  20.465  0.00  0.00    +0.000 C 
BRANCH  17  19
ATOM     18  C   UNL     1       2.461   6.903  18.746  0.00  0.00    +0.000 C 
ATOM     19  C   UNL     1       2.154   6.696  20.219  0.00  0.00    +0.000 C 
ENDBRANCH  17  19
ENDBRANCH  16  17
ENDBRANCH  15  16
ENDBRANCH   1  15
TORSDOF 6
ENDMDL
MODEL 8
REMARK VINA RESULT:      -6.8      2.869      4.576
REMARK  Name = 
REMARK  7 active torsions:
REMARK  status: ('A' for Active; 'I' for Inactive)
REMARK    1  A    between atoms: C_1  and  C_2
REMARK    2  A    between atoms: C_2  and  C_3
REMARK    3  A    between atoms: C_3  and  C_4
REMARK    4  A    between atoms: C_4  and  O_5
REMARK    5  A    between atoms: O_5  and  C_6
REMARK    6  A    between atoms: C_11  and  C_12
REMARK    7  A    between atoms: C_12  and  O_14
REMARK                            x       y       z     vdW  Elec       q    Type
REMARK                         _______ _______ _______ _____ _____    ______ ____
ROOT
ATOM      1  C   UNL     1       6.623   4.432  16.420  0.00  0.00    +0.000 A 
ATOM      2  C   UNL     1       7.032   4.810  17.698  0.00  0.00    +0.000 A 
ATOM      3  C   UNL     1       6.171   4.688  18.780  0.00  0.00    +0.000 A 
ATOM      4  C   UNL     1       4.868   4.189  18.618  0.00  0.00    +0.000 A 
ATOM      5  C   UNL     1       3.983   4.082  19.702  0.00  0.00    +0.000 A 
ATOM      6  C   UNL     1       2.683   3.580  19.539  0.00  0.00    +0.000 A 
ATOM      7  C   UNL     1       2.263   3.186  18.264  0.00  0.00    +0.000 A 
ATOM      8  C   UNL     1       3.140   3.296  17.172  0.00  0.00    +0.000 A 
ATOM      9  C   UNL     1       4.446   3.793  17.330  0.00  0.00    +0.000 A 
ATOM     10  C   UNL     1       5.331   3.917  16.245  0.00  0.00    +0.000 A 
ENDROOT
BRANCH   6  11
ATOM     11  C   UNL     1       1.811   3.551  20.754  0.00  0.00    +0.000 C 
ATOM     12  O   UNL     1       2.261   3.347  21.865  0.00  0.00    +0.000 OA
BRANCH  11  13
ATOM     13  O   UNL     1       0.487   3.701  20.535  0.00  0.00    +0.000 OA
ATOM     14  H   UNL     1      -0.117   3.134  21.047  0.00  0.00    +0.000 HD
ENDBRANCH  11  13
ENDBRANCH   6  11
BRANCH   1  15
ATOM     15  O   UNL     1       7.382   4.545  15.287  0.00  0.00    +0.000 OA
BRANCH  15  16
ATOM     16  C   UNL     1       6.754   5.212  14.188  0.00  0.00    +0.000 C 
BRANCH  16  17
ATOM     17  C   UNL     1       7.028   4.422  12.914  0.00  0.00    +0.000 C 
BRANCH  17  19
ATOM     18  C   UNL     1       4.940   3.474  11.867  0.00  0.00    +0.000 C 
ATOM     19  C   UNL     1       6.108   3.209  12.801  0.00  0.00    +0.000 C 
ENDBRANCH  17  19
ENDBRANCH  16  17
ENDBRANCH  15  16
ENDBRANCH   1  15
TORSDOF 6
ENDMDL
MODEL 9
REMARK VINA RESULT:      -6.7      1.785      6.831
REMARK  Name = 
REMARK  7 active torsions:
REMARK  status: ('A' for Active; 'I' for Inactive)
REMARK    1  A    between atoms: C_1  and  C_2
REMARK    2  A    between atoms: C_2  and  C_3
REMARK    3  A    between atoms: C_3  and  C_4
REMARK    4  A    between atoms: C_4  and  O_5
REMARK    5  A    between atoms: O_5  and  C_6
REMARK    6  A    between atoms: C_11  and  C_12
REMARK    7  A    between atoms: C_12  and  O_14
REMARK                            x       y       z     vdW  Elec       q    Type
REMARK                         _______ _______ _______ _____ _____    ______ ____
ROOT
ATOM      1  C   UNL     1       2.077   4.086  17.716  0.00  0.00    +0.000 A 
ATOM      2  C   UNL     1       1.866   5.437  17.986  0.00  0.00    +0.000 A 
ATOM      3  C   UNL     1       2.936   6.320  18.051  0.00  0.00    +0.000 A 
ATOM      4  C   UNL     1       4.254   5.878  17.853  0.00  0.00    +0.000 A 
ATOM      5  C   UNL     1       5.344   6.758  17.936  0.00  0.00    +0.000 A 
ATOM      6  C   UNL     1       6.660   6.315  17.735  0.00  0.00    +0.000 A 
ATOM      7  C   UNL     1       6.885   4.964  17.452  0.00  0.00    +0.000 A 
ATOM      8  C   UNL     1       5.800   4.074  17.372  0.00  0.00    +0.000 A 
ATOM      9  C   UNL     1       4.479   4.513  17.568  0.00  0.00    +0.000 A 
ATOM     10  C   UNL     1       3.385   3.633  17.500  0.00  0.00    +0.000 A 
ENDROOT
BRANCH   6  11
ATOM     11  C   UNL     1       7.747   7.330  17.892  0.00  0.00    +0.000 C 
ATOM     12  O   UNL     1       8.513   7.313  18.836  0.00  0.00    +0.000 OA
BRANCH  11  13
ATOM     13  O   UNL     1       7.786   8.303  16.956  0.00  0.00    +0.000 OA
ATOM     14  H   UNL     1       8.519   8.276  16.315  0.00  0.00    +0.000 HD
ENDBRANCH  11  13
ENDBRANCH   6  11
BRANCH   1  15
ATOM     15  O   UNL     1       1.096   3.133  17.665  0.00  0.00    +0.000 OA
BRANCH  15  16
ATOM     16  C   UNL     1       1.031   2.255  18.793  0.00  0.00    +0.000 C 
BRANCH  16  17
ATOM     17  C   UNL     1       0.659   3.069  20.026  0.00  0.00    +0.000 C 
BRANCH  17  19
ATOM     18  C   UNL     1       2.447   4.112  21.465  0.00  0.00    +0.000 C 
ATOM     19  C   UNL     1       1.657   2.851  21.161  0.00  0.00    +0.000 C 
ENDBRANCH  17  19
ENDBRANCH  16  17
ENDBRANCH  15  16
ENDBRANCH   1  15
TORSDOF 6
ENDMDL
