MODEL 1
REMARK VINA RESULT:      -7.5      0.000      0.000
REMARK  Name = 
REMARK  6 active torsions:
REMARK  status: ('A' for Active; 'I' for Inactive)
REMARK    1  A    between atoms: C_1  and  C_2
REMARK    2  A    between atoms: C_2  and  O_3
REMARK    3  A    between atoms: O_3  and  C_4
REMARK    4  A    between atoms: C_9  and  C_10
REMARK    5  A    between atoms: C_12  and  C_13
REMARK    6  A    between atoms: C_13  and  N_14
REMARK                            x       y       z     vdW  Elec       q    Type
REMARK                         _______ _______ _______ _____ _____    ______ ____
ROOT
ATOM      1  C   UNL     1       1.033   9.331  19.723  0.00  0.00    +0.000 A 
ATOM      2  N   UNL     1       1.911   8.336  19.697  0.00  0.00    +0.000 NA
ATOM      3  C   UNL     1       2.295   8.249  18.365  0.00  0.00    +0.000 A 
ATOM      4  C   UNL     1       1.631   9.219  17.653  0.00  0.00    +0.000 A 
ATOM      5  O   UNL     1       0.905   9.960  18.520  0.00  0.00    +0.000 OA
ENDROOT
BRANCH   1  11
ATOM      6  C   UNL     1      -0.386  11.137  20.848  0.00  0.00    +0.000 A 
ATOM      7  C   UNL     1      -0.999  11.601  22.020  0.00  0.00    +0.000 A 
ATOM      8  C   UNL     1      -1.131  10.792  23.157  0.00  0.00    +0.000 A 
ATOM      9  C   UNL     1      -0.616   9.505  23.109  0.00  0.00    +0.000 A 
ATOM     10  C   UNL     1       0.052   9.044  21.971  0.00  0.00    +0.000 A 
ATOM     11  C   UNL     1       0.215   9.856  20.828  0.00  0.00    +0.000 A 
BRANCH   6  12
ATOM     12  O   UNL     1      -0.415  12.084  19.855  0.00  0.00    +0.000 OA
BRANCH  12  14
ATOM     13  C   UNL     1      -2.328  11.413  18.534  0.00  0.00    +0.000 C 
ATOM     14  C   UNL     1      -1.687  12.506  19.363  0.00  0.00    +0.000 C 
ENDBRANCH  12  14
ENDBRANCH   6  12
ENDBRANCH   1  11
BRANCH   3  15
ATOM     15  C   UNL     1       3.368   7.362  17.834  0.00  0.00    +0.000 C 
BRANCH  15  16
ATOM     16  N   UNL     1       3.190   5.930  18.028  0.00  0.00    +0.000 NA
ATOM     17  C   UNL     1       1.898   5.361  17.657  0.00  0.00    +0.000 C 
ATOM     18  C   UNL     1       1.992   3.808  17.694  0.00  0.00    +0.000 C 
ATOM     19  C   UNL     1       2.290   3.395  19.117  0.00  0.00    +0.000 A 
ATOM     20  C   UNL     1       1.800   2.216  19.664  0.00  0.00    +0.000 A 
ATOM     21  C   UNL     1       1.574   2.172  21.033  0.00  0.00    +0.000 A 
ATOM     22  C   UNL     1       1.827   3.297  21.826  0.00  0.00    +0.000 A 
ATOM     23  C   UNL     1       2.510   4.387  21.291  0.00  0.00    +0.000 A 
ATOM     24  C   UNL     1       2.842   4.385  19.942  0.00  0.00    +0.000 A 
ATOM     25  C   UNL     1       3.715   5.435  19.299  0.00  0.00    +0.000 C 
ENDBRANCH  15  16
ENDBRANCH   3  15
TORSDOF 5
ENDMDL
MODEL 2
REMARK VINA RESULT:      -7.3      5.842      7.624
REMARK  Name = 
REMARK  6 active torsions:
REMARK  status: ('A' for Active; 'I' for Inactive)
REMARK    1  A    between atoms: C_1  and  C_2
REMARK    2  A    between atoms: C_2  and  O_3
REMARK    3  A    between atoms: O_3  and  C_4
REMARK    4  A    between atoms: C_9  and  C_10
REMARK    5  A    between atoms: C_12  and  C_13
REMARK    6  A    between atoms: C_13  and  N_14
REMARK                            x       y       z     vdW  Elec       q    Type
REMARK                         _______ _______ _______ _____ _____    ______ ____
ROOT
ATOM      1  C   UNL     1       8.674   9.468  18.444  0.00  0.00    +0.000 A 
ATOM      2  N   UNL     1       7.651   9.411  17.602  0.00  0.00    +0.000 NA
ATOM      3  C   UNL     1       7.286   8.070  17.593  0.00  0.00    +0.000 A 
ATOM      4  C   UNL     1       8.110   7.386  18.453  0.00  0.00    +0.000 A 
ATOM      5  O   UNL     1       8.926   8.277  19.059  0.00  0.00    +0.000 OA
ENDROOT
BRANCH   1  11
ATOM      6  C   UNL     1       9.564  11.206  20.097  0.00  0.00    +0.000 A 
ATOM      7  C   UNL     1      10.301  12.381  20.296  0.00  0.00    +0.000 A 
ATOM      8  C   UNL     1      11.113  12.925  19.291  0.00  0.00    +0.000 A 
ATOM      9  C   UNL     1      11.158  12.279  18.065  0.00  0.00    +0.000 A 
ATOM     10  C   UNL     1      10.383  11.141  17.826  0.00  0.00    +0.000 A 
ATOM     11  C   UNL     1       9.542  10.596  18.821  0.00  0.00    +0.000 A 
BRANCH   6  12
ATOM     12  O   UNL     1       8.884  10.839  21.232  0.00  0.00    +0.000 OA
BRANCH  12  14
ATOM     13  C   UNL     1       7.418  11.884  22.848  0.00  0.00    +0.000 C 
ATOM     14  C   UNL     1       8.831  11.767  22.315  0.00  0.00    +0.000 C 
ENDBRANCH  12  14
ENDBRANCH   6  12
ENDBRANCH   1  11
BRANCH   3  15
ATOM     15  C   UNL     1       6.098   7.506  16.893  0.00  0.00    +0.000 C 
BRANCH  15  16
ATOM     16  N   UNL     1       5.728   6.138  17.229  0.00  0.00    +0.000 NA
ATOM     17  C   UNL     1       5.554   5.203  16.121  0.00  0.00    +0.000 C 
ATOM     18  C   UNL     1       5.418   3.759  16.685  0.00  0.00    +0.000 C 
ATOM     19  C   UNL     1       4.169   3.709  17.536  0.00  0.00    +0.000 A 
ATOM     20  C   UNL     1       3.381   2.569  17.628  0.00  0.00    +0.000 A 
ATOM     21  C   UNL     1       2.025   2.728  17.878  0.00  0.00    +0.000 A 
ATOM     22  C   UNL     1       1.479   4.009  18.022  0.00  0.00    +0.000 A 
ATOM     23  C   UNL     1       2.318   5.114  18.133  0.00  0.00    +0.000 A 
ATOM     24  C   UNL     1       3.690   4.943  17.998  0.00  0.00    +0.000 A 
ATOM     25  C   UNL     1       4.696   6.039  18.258  0.00  0.00    +0.000 C 
ENDBRANCH  15  16
ENDBRANCH   3  15
TORSDOF 5
ENDMDL
MODEL 3
REMARK VINA RESULT:      -7.2      2.405      3.750
REMARK  Name = 
REMARK  6 active torsions:
REMARK  status: ('A' for Active; 'I' for Inactive)
REMARK    1  A    between atoms: C_1  and  C_2
REMARK    2  A    between atoms: C_2  and  O_3
REMARK    3  A    between atoms: O_3  and  C_4
REMARK    4  A    between atoms: C_9  and  C_10
REMARK    5  A    between atoms: C_12  and  C_13
REMARK    6  A    between atoms: C_13  and  N_14
REMARK                            x       y       z     vdW  Elec       q    Type
REMARK                         _______ _______ _______ _____ _____    ______ ____
ROOT
ATOM      1  C   UNL     1       1.323   7.890  20.502  0.00  0.00    +0.000 A 
ATOM      2  N   UNL     1       1.491   6.647  20.934  0.00  0.00    +0.000 NA
ATOM      3  C   UNL     1       2.241   6.033  19.937  0.00  0.00    +0.000 A 
ATOM      4  C   UNL     1       2.501   6.957  18.954  0.00  0.00    +0.000 A 
ATOM      5  O   UNL     1       2.003   8.150  19.349  0.00  0.00    +0.000 OA
ENDROOT
BRANCH   1  11
ATOM      6  C   UNL     1       0.100  10.131  20.346  0.00  0.00    +0.000 A 
ATOM      7  C   UNL     1      -0.474  11.215  21.024  0.00  0.00    +0.000 A 
ATOM      8  C   UNL     1      -0.713  11.183  22.404  0.00  0.00    +0.000 A 
ATOM      9  C   UNL     1      -0.346  10.046  23.107  0.00  0.00    +0.000 A 
ATOM     10  C   UNL     1       0.283   8.977  22.460  0.00  0.00    +0.000 A 
ATOM     11  C   UNL     1       0.553   9.006  21.074  0.00  0.00    +0.000 A 
BRANCH   6  12
ATOM     12  O   UNL     1       0.193  10.370  18.998  0.00  0.00    +0.000 OA
BRANCH  12  14
ATOM     13  C   UNL     1      -1.696   9.978  17.538  0.00  0.00    +0.000 C 
ATOM     14  C   UNL     1      -0.915  10.992  18.346  0.00  0.00    +0.000 C 
ENDBRANCH  12  14
ENDBRANCH   6  12
ENDBRANCH   1  11
BRANCH   3  15
ATOM     15  C   UNL     1       2.803   4.656  20.008  0.00  0.00    +0.000 C 
BRANCH  15  16
ATOM     16  N   UNL     1       4.117   4.452  19.412  0.00  0.00    +0.000 NA
ATOM     17  C   UNL     1       5.020   5.600  19.379  0.00  0.00    +0.000 C 
ATOM     18  C   UNL     1       6.437   5.123  18.950  0.00  0.00    +0.000 C 
ATOM     19  C   UNL     1       6.337   4.571  17.547  0.00  0.00    +0.000 A 
ATOM     20  C   UNL     1       7.372   4.690  16.628  0.00  0.00    +0.000 A 
ATOM     21  C   UNL     1       7.048   4.739  15.278  0.00  0.00    +0.000 A 
ATOM     22  C   UNL     1       5.710   4.679  14.871  0.00  0.00    +0.000 A 
ATOM     23  C   UNL     1       4.717   4.352  15.790  0.00  0.00    +0.000 A 
ATOM     24  C   UNL     1       5.055   4.187  17.127  0.00  0.00    +0.000 A 
ATOM     25  C   UNL     1       4.092   3.679  18.173  0.00  0.00    +0.000 C 
ENDBRANCH  15  16
ENDBRANCH   3  15
TORSDOF 5
ENDMDL
MODEL 4
REMARK VINA RESULT:      -7.2      1.484      1.998
REMARK  Name = 
REMARK  6 active torsions:
REMARK  status: ('A' for Active; 'I' for Inactive)
REMARK    1  A    between atoms: C_1  and  C_2
REMARK    2  A    between atoms: C_2  and  O_3
REMARK    3  A    between atoms: O_3  and  C_4
REMARK    4  A    between atoms: C_9  and  C_10
REMARK    5  A    between atoms: C_12  and  C_13
REMARK    6  A    between atoms: C_13  and  N_14
REMARK                            x       y       z     vdW  Elec       q    Type
REMARK                         _______ _______ _______ _____ _____    ______ ____
ROOT
ATOM      1  C   UNL     1       0.674  10.209  19.793  0.00  0.00    +0.000 A 
ATOM      2  N   UNL     1       0.968   8.988  19.364  0.00  0.00    +0.000 NA
ATOM      3  C   UNL     1       1.835   9.196  18.298  0.00  0.00    +0.000 A 
ATOM      4  C   UNL     1       2.031  10.547  18.151  0.00  0.00    +0.000 A 
ATOM      5  O   UNL     1       1.374  11.184  19.146  0.00  0.00    +0.000 OA
ENDROOT
BRANCH   1  11
ATOM      6  C   UNL     1      -1.227  11.669  20.686  0.00  0.00    +0.000 A 
ATOM      7  C   UNL     1      -1.938  12.135  21.800  0.00  0.00    +0.000 A 
ATOM      8  C   UNL     1      -1.791  11.555  23.067  0.00  0.00    +0.000 A 
ATOM      9  C   UNL     1      -0.897  10.504  23.208  0.00  0.00    +0.000 A 
ATOM     10  C   UNL     1      -0.134  10.064  22.122  0.00  0.00    +0.000 A 
ATOM     11  C   UNL     1      -0.253  10.656  20.845  0.00  0.00    +0.000 A 
BRANCH   6  12
ATOM     12  O   UNL     1      -1.568  12.355  19.547  0.00  0.00    +0.000 OA
BRANCH  12  14
ATOM     13  C   UNL     1      -1.973  11.195  17.462  0.00  0.00    +0.000 C 
ATOM     14  C   UNL     1      -2.583  11.805  18.707  0.00  0.00    +0.000 C 
ENDBRANCH  12  14
ENDBRANCH   6  12
ENDBRANCH   1  11
BRANCH   3  15
ATOM     15  C   UNL     1       2.555   8.126  17.553  0.00  0.00    +0.000 C 
BRANCH  15  16
ATOM     16  N   UNL     1       3.016   6.982  18.329  0.00  0.00    +0.000 NA
ATOM     17  C   UNL     1       4.366   6.494  18.060  0.00  0.00    +0.000 C 
ATOM     18  C   UNL     1       4.760   5.454  19.149  0.00  0.00    +0.000 C 
ATOM     19  C   UNL     1       3.811   4.283  19.037  0.00  0.00    +0.000 A 
ATOM     20  C   UNL     1       4.209   2.979  19.306  0.00  0.00    +0.000 A 
ATOM     21  C   UNL     1       3.562   1.946  18.642  0.00  0.00    +0.000 A 
ATOM     22  C   UNL     1       2.546   2.226  17.721  0.00  0.00    +0.000 A 
ATOM     23  C   UNL     1       2.028   3.515  17.627  0.00  0.00    +0.000 A 
ATOM     24  C   UNL     1       2.599   4.534  18.379  0.00  0.00    +0.000 A 
ATOM     25  C   UNL     1       2.018   5.925  18.473  0.00  0.00    +0.000 C 
ENDBRANCH  15  16
ENDBRANCH   3  15
TORSDOF 5
ENDMDL
MODEL 5
REMARK VINA RESULT:      -7.2      2.557      8.125
REMARK  Name = 
REMARK  6 active torsions:
REMARK  status: ('A' for Active; 'I' for Inactive)
REMARK    1  A    between atoms: C_1  and  C_2
REMARK    2  A    between atoms: C_2  and  O_3
REMARK    3  A    between atoms: O_3  and  C_4
REMARK    4  A    between atoms: C_9  and  C_10
REMARK    5  A    between atoms: C_12  and  C_13
REMARK    6  A    between atoms: C_13  and  N_14
REMARK                            x       y       z     vdW  Elec       q    Type
REMARK                         _______ _______ _______ _____ _____    ______ ____
ROOT
ATOM      1  C   UNL     1       3.704   6.820  18.011  0.00  0.00    +0.000 A 
ATOM      2  N   UNL     1       3.070   7.921  17.630  0.00  0.00    +0.000 NA
ATOM      3  C   UNL     1       2.152   8.161  18.646  0.00  0.00    +0.000 A 
ATOM      4  C   UNL     1       2.296   7.188  19.604  0.00  0.00    +0.000 A 
ATOM      5  O   UNL     1       3.333   6.394  19.252  0.00  0.00    +0.000 OA
ENDROOT
BRANCH   1  11
ATOM      6  C   UNL     1       4.543   4.709  16.837  0.00  0.00    +0.000 A 
ATOM      7  C   UNL     1       5.638   3.979  16.355  0.00  0.00    +0.000 A 
ATOM      8  C   UNL     1       6.915   4.547  16.242  0.00  0.00    +0.000 A 
ATOM      9  C   UNL     1       7.084   5.863  16.642  0.00  0.00    +0.000 A 
ATOM     10  C   UNL     1       6.018   6.590  17.182  0.00  0.00    +0.000 A 
ATOM     11  C   UNL     1       4.733   6.023  17.325  0.00  0.00    +0.000 A 
BRANCH   6  12
ATOM     12  O   UNL     1       3.390   3.964  16.813  0.00  0.00    +0.000 OA
BRANCH  12  14
ATOM     13  C   UNL     1       1.773   3.289  18.481  0.00  0.00    +0.000 C 
ATOM     14  C   UNL     1       3.150   3.061  17.892  0.00  0.00    +0.000 C 
ENDBRANCH  12  14
ENDBRANCH   6  12
ENDBRANCH   1  11
BRANCH   3  15
ATOM     15  C   UNL     1       1.279   9.363  18.751  0.00  0.00    +0.000 C 
BRANCH  15  16
ATOM     16  N   UNL     1       0.869   9.761  20.091  0.00  0.00    +0.000 NA
ATOM     17  C   UNL     1      -0.140   8.939  20.752  0.00  0.00    +0.000 C 
ATOM     18  C   UNL     1      -0.251   9.366  22.245  0.00  0.00    +0.000 C 
ATOM     19  C   UNL     1      -0.723  10.801  22.283  0.00  0.00    +0.000 A 
ATOM     20  C   UNL     1      -1.545  11.284  23.293  0.00  0.00    +0.000 A 
ATOM     21  C   UNL     1      -2.405  12.332  22.995  0.00  0.00    +0.000 A 
ATOM     22  C   UNL     1      -2.439  12.870  21.703  0.00  0.00    +0.000 A 
ATOM     23  C   UNL     1      -1.466  12.513  20.774  0.00  0.00    +0.000 A 
ATOM     24  C   UNL     1      -0.528  11.544  21.110  0.00  0.00    +0.000 A 
ATOM     25  C   UNL     1       0.659  11.199  20.244  0.00  0.00    +0.000 C 
ENDBRANCH  15  16
ENDBRANCH   3  15
TORSDOF 5
ENDMDL
MODEL 6
REMARK VINA RESULT:      -7.1      2.183      8.064
REMARK  Name = 
REMARK  6 active torsions:
REMARK  status: ('A' for Active; 'I' for Inactive)
REMARK    1  A    between atoms: C_1  and  C_2
REMARK    2  A    between atoms: C_2  and  O_3
REMARK    3  A    between atoms: O_3  and  C_4
REMARK    4  A    between atoms: C_9  and  C_10
REMARK    5  A    between atoms: C_12  and  C_13
REMARK    6  A    between atoms: C_13  and  N_14
REMARK                            x       y       z     vdW  Elec       q    Type
REMARK                         _______ _______ _______ _____ _____    ______ ____
ROOT
ATOM      1  C   UNL     1       2.555   7.031  18.592  0.00  0.00    +0.000 A 
ATOM      2  N   UNL     1       2.062   8.169  18.119  0.00  0.00    +0.000 NA
ATOM      3  C   UNL     1       1.529   8.804  19.234  0.00  0.00    +0.000 A 
ATOM      4  C   UNL     1       1.746   8.011  20.335  0.00  0.00    +0.000 A 
ATOM      5  O   UNL     1       2.471   6.937  19.950  0.00  0.00    +0.000 OA
ENDROOT
BRANCH   1  11
ATOM      6  C   UNL     1       2.586   4.622  17.733  0.00  0.00    +0.000 A 
ATOM      7  C   UNL     1       3.337   3.564  17.204  0.00  0.00    +0.000 A 
ATOM      8  C   UNL     1       4.642   3.749  16.725  0.00  0.00    +0.000 A 
ATOM      9  C   UNL     1       5.195   5.018  16.805  0.00  0.00    +0.000 A 
ATOM     10  C   UNL     1       4.485   6.073  17.385  0.00  0.00    +0.000 A 
ATOM     11  C   UNL     1       3.179   5.896  17.894  0.00  0.00    +0.000 A 
BRANCH   6  12
ATOM     12  O   UNL     1       1.325   4.215  18.091  0.00  0.00    +0.000 OA
BRANCH  12  14
ATOM     13  C   UNL     1       1.244   3.670  20.447  0.00  0.00    +0.000 C 
ATOM     14  C   UNL     1       1.203   3.144  19.028  0.00  0.00    +0.000 C 
ENDBRANCH  12  14
ENDBRANCH   6  12
ENDBRANCH   1  11
BRANCH   3  15
ATOM     15  C   UNL     1       0.966  10.183  19.253  0.00  0.00    +0.000 C 
BRANCH  15  16
ATOM     16  N   UNL     1       0.415  10.650  20.518  0.00  0.00    +0.000 NA
ATOM     17  C   UNL     1      -0.372   9.697  21.295  0.00  0.00    +0.000 C 
ATOM     18  C   UNL     1      -0.649  10.292  22.706  0.00  0.00    +0.000 C 
ATOM     19  C   UNL     1      -1.477  11.543  22.528  0.00  0.00    +0.000 A 
ATOM     20  C   UNL     1      -2.435  11.935  23.455  0.00  0.00    +0.000 A 
ATOM     21  C   UNL     1      -3.525  12.666  23.002  0.00  0.00    +0.000 A 
ATOM     22  C   UNL     1      -3.646  12.984  21.644  0.00  0.00    +0.000 A 
ATOM     23  C   UNL     1      -2.578  12.763  20.779  0.00  0.00    +0.000 A 
ATOM     24  C   UNL     1      -1.435  12.133  21.257  0.00  0.00    +0.000 A 
ATOM     25  C   UNL     1      -0.166  11.989  20.452  0.00  0.00    +0.000 C 
ENDBRANCH  15  16
ENDBRANCH   3  15
TORSDOF 5
ENDMDL
MODEL 7
REMARK VINA RESULT:      -7.1      3.079      8.073
REMARK  Name = 
REMARK  6 active torsions:
REMARK  status: ('A' for Active; 'I' for Inactive)
REMARK    1  A    between atoms: C_1  and  C_2
REMARK    2  A    between atoms: C_2  and  O_3
REMARK    3  A    between atoms: O_3  and  C_4
REMARK    4  A    between atoms: C_9  and  C_10
REMARK    5  A    between atoms: C_12  and  C_13
REMARK    6  A    between atoms: C_13  and  N_14
REMARK                            x       y       z     vdW  Elec       q    Type
REMARK                         _______ _______ _______ _____ _____    ______ ____
ROOT
ATOM      1  C   UNL     1       3.808   5.440  17.853  0.00  0.00    +0.000 A 
ATOM      2  N   UNL     1       3.736   6.171  18.957  0.00  0.00    +0.000 NA
ATOM      3  C   UNL     1       2.392   6.138  19.307  0.00  0.00    +0.000 A 
ATOM      4  C   UNL     1       1.720   5.366  18.390  0.00  0.00    +0.000 A 
ATOM      5  O   UNL     1       2.623   4.851  17.525  0.00  0.00    +0.000 OA
ENDROOT
BRANCH   1  11
ATOM      6  C   UNL     1       6.081   5.993  16.817  0.00  0.00    +0.000 A 
ATOM      7  C   UNL     1       7.024   5.719  15.817  0.00  0.00    +0.000 A 
ATOM      8  C   UNL     1       6.938   4.576  15.012  0.00  0.00    +0.000 A 
ATOM      9  C   UNL     1       5.871   3.712  15.212  0.00  0.00    +0.000 A 
ATOM     10  C   UNL     1       4.887   3.999  16.162  0.00  0.00    +0.000 A 
ATOM     11  C   UNL     1       4.947   5.160  16.963  0.00  0.00    +0.000 A 
BRANCH   6  12
ATOM     12  O   UNL     1       6.395   7.138  17.507  0.00  0.00    +0.000 OA
BRANCH  12  14
ATOM     13  C   UNL     1       8.063   8.857  17.848  0.00  0.00    +0.000 C 
ATOM     14  C   UNL     1       7.764   7.373  17.836  0.00  0.00    +0.000 C 
ENDBRANCH  12  14
ENDBRANCH   6  12
ENDBRANCH   1  11
BRANCH   3  15
ATOM     15  C   UNL     1       1.812   6.708  20.555  0.00  0.00    +0.000 C 
BRANCH  15  16
ATOM     16  N   UNL     1       1.570   8.144  20.570  0.00  0.00    +0.000 NA
ATOM     17  C   UNL     1       0.588   8.646  21.526  0.00  0.00    +0.000 C 
ATOM     18  C   UNL     1       0.660  10.200  21.566  0.00  0.00    +0.000 C 
ATOM     19  C   UNL     1       0.283  10.719  20.198  0.00  0.00    +0.000 A 
ATOM     20  C   UNL     1      -0.397  11.917  20.021  0.00  0.00    +0.000 A 
ATOM     21  C   UNL     1      -1.219  12.047  18.909  0.00  0.00    +0.000 A 
ATOM     22  C   UNL     1      -1.356  10.987  18.006  0.00  0.00    +0.000 A 
ATOM     23  C   UNL     1      -0.509   9.885  18.092  0.00  0.00    +0.000 A 
ATOM     24  C   UNL     1       0.398   9.805  19.141  0.00  0.00    +0.000 A 
ATOM     25  C   UNL     1       1.465   8.740  19.240  0.00  0.00    +0.000 C 
ENDBRANCH  15  16
ENDBRANCH   3  15
TORSDOF 5
ENDMDL
MODEL 8
REMARK VINA RESULT:      -7.1      2.095      7.705
REMARK  Name = 
REMARK  6 active torsions:
REMARK  status: ('A' for Active; 'I' for Inactive)
REMARK    1  A    between atoms: C_1  and  C_2
REMARK    2  A    between atoms: C_2  and  O_3
REMARK    3  A    between atoms: O_3  and  C_4
REMARK    4  A    between atoms: C_9  and  C_10
REMARK    5  A    between atoms: C_12  and  C_13
REMARK    6  A    between atoms: C_13  and  N_14
REMARK                            x       y       z     vdW  Elec       q    Type
REMARK                         _______ _______ _______ _____ _____    ______ ____
ROOT
ATOM      1  C   UNL     1       2.162   7.286  19.403  0.00  0.00    +0.000 A 
ATOM      2  N   UNL     1       2.084   8.601  19.243  0.00  0.00    +0.000 NA
ATOM      3  C   UNL     1       1.388   9.045  20.362  0.00  0.00    +0.000 A 
ATOM      4  C   UNL     1       1.096   7.961  21.153  0.00  0.00    +0.000 A 
ATOM      5  O   UNL     1       1.660   6.864  20.599  0.00  0.00    +0.000 OA
ENDROOT
BRANCH   1  11
ATOM      6  C   UNL     1       2.240   4.915  18.450  0.00  0.00    +0.000 A 
ATOM      7  C   UNL     1       2.946   3.962  17.703  0.00  0.00    +0.000 A 
ATOM      8  C   UNL     1       4.062   4.308  16.928  0.00  0.00    +0.000 A 
ATOM      9  C   UNL     1       4.476   5.631  16.930  0.00  0.00    +0.000 A 
ATOM     10  C   UNL     1       3.823   6.585  17.716  0.00  0.00    +0.000 A 
ATOM     11  C   UNL     1       2.713   6.246  18.520  0.00  0.00    +0.000 A 
BRANCH   6  12
ATOM     12  O   UNL     1       1.160   4.356  19.087  0.00  0.00    +0.000 OA
BRANCH  12  14
ATOM     13  C   UNL     1       1.467   3.258  21.221  0.00  0.00    +0.000 C 
ATOM     14  C   UNL     1       1.333   3.089  19.722  0.00  0.00    +0.000 C 
ENDBRANCH  12  14
ENDBRANCH   6  12
ENDBRANCH   1  11
BRANCH   3  15
ATOM     15  C   UNL     1       1.149  10.472  20.717  0.00  0.00    +0.000 C 
BRANCH  15  16
ATOM     16  N   UNL     1       0.044  11.139  20.042  0.00  0.00    +0.000 NA
ATOM     17  C   UNL     1      -1.269  11.061  20.676  0.00  0.00    +0.000 C 
ATOM     18  C   UNL     1      -2.245  12.035  19.954  0.00  0.00    +0.000 C 
ATOM     19  C   UNL     1      -2.391  11.570  18.523  0.00  0.00    +0.000 A 
ATOM     20  C   UNL     1      -3.578  11.709  17.817  0.00  0.00    +0.000 A 
ATOM     21  C   UNL     1      -3.860  10.786  16.818  0.00  0.00    +0.000 A 
ATOM     22  C   UNL     1      -2.967   9.743  16.550  0.00  0.00    +0.000 A 
ATOM     23  C   UNL     1      -1.698   9.747  17.123  0.00  0.00    +0.000 A 
ATOM     24  C   UNL     1      -1.370  10.739  18.039  0.00  0.00    +0.000 A 
ATOM     25  C   UNL     1       0.021  10.930  18.596  0.00  0.00    +0.000 C 
ENDBRANCH  15  16
ENDBRANCH   3  15
TORSDOF 5
ENDMDL
MODEL 9
REMARK VINA RESULT:      -7.1      0.976      2.391
REMARK  Name = 
REMARK  6 active torsions:
REMARK  status: ('A' for Active; 'I' for Inactive)
REMARK    1  A    between atoms: C_1  and  C_2
REMARK    2  A    between atoms: C_2  and  O_3
REMARK    3  A    between atoms: O_3  and  C_4
REMARK    4  A    between atoms: C_9  and  C_10
REMARK    5  A    between atoms: C_12  and  C_13
REMARK    6  A    between atoms: C_13  and  N_14
REMARK                            x       y       z     vdW  Elec       q    Type
REMARK                         _______ _______ _______ _____ _____    ______ ____
ROOT
ATOM      1  C   UNL     1       0.426   9.591  18.985  0.00  0.00    +0.000 A 
ATOM      2  N   UNL     1       1.215   9.186  17.999  0.00  0.00    +0.000 NA
ATOM      3  C   UNL     1       2.152   8.368  18.620  0.00  0.00    +0.000 A 
ATOM      4  C   UNL     1       1.863   8.312  19.962  0.00  0.00    +0.000 A 
ATOM      5  O   UNL     1       0.724   9.007  20.181  0.00  0.00    +0.000 OA
ENDROOT
BRANCH   1  11
ATOM      6  C   UNL     1      -0.978  11.470  20.004  0.00  0.00    +0.000 A 
ATOM      7  C   UNL     1      -2.176  12.198  19.981  0.00  0.00    +0.000 A 
ATOM      8  C   UNL     1      -3.078  12.107  18.912  0.00  0.00    +0.000 A 
ATOM      9  C   UNL     1      -2.769  11.251  17.866  0.00  0.00    +0.000 A 
ATOM     10  C   UNL     1      -1.610  10.470  17.899  0.00  0.00    +0.000 A 
ATOM     11  C   UNL     1      -0.705  10.533  18.980  0.00  0.00    +0.000 A 
BRANCH   6  12
ATOM     12  O   UNL     1      -0.235  11.756  21.122  0.00  0.00    +0.000 OA
BRANCH  12  14
ATOM     13  C   UNL     1      -0.808  10.378  23.027  0.00  0.00    +0.000 C 
ATOM     14  C   UNL     1      -0.895  11.749  22.389  0.00  0.00    +0.000 C 
ENDBRANCH  12  14
ENDBRANCH   6  12
ENDBRANCH   1  11
BRANCH   3  15
ATOM     15  C   UNL     1       3.190   7.562  17.919  0.00  0.00    +0.000 C 
BRANCH  15  16
ATOM     16  N   UNL     1       3.103   6.115  18.061  0.00  0.00    +0.000 NA
ATOM     17  C   UNL     1       1.852   5.479  17.659  0.00  0.00    +0.000 C 
ATOM     18  C   UNL     1       2.045   3.935  17.642  0.00  0.00    +0.000 C 
ATOM     19  C   UNL     1       2.359   3.490  19.051  0.00  0.00    +0.000 A 
ATOM     20  C   UNL     1       1.942   2.264  19.552  0.00  0.00    +0.000 A 
ATOM     21  C   UNL     1       1.711   2.156  20.917  0.00  0.00    +0.000 A 
ATOM     22  C   UNL     1       1.887   3.266  21.751  0.00  0.00    +0.000 A 
ATOM     23  C   UNL     1       2.501   4.415  21.261  0.00  0.00    +0.000 A 
ATOM     24  C   UNL     1       2.842   4.483  19.916  0.00  0.00    +0.000 A 
ATOM     25  C   UNL     1       3.651   5.610  19.318  0.00  0.00    +0.000 C 
ENDBRANCH  15  16
ENDBRANCH   3  15
TORSDOF 5
ENDMDL
