MODEL 1
REMARK VINA RESULT:      -7.6      0.000      0.000
REMARK  Name = 
REMARK  6 active torsions:
REMARK  status: ('A' for Active; 'I' for Inactive)
REMARK    1  A    between atoms: C_1  and  C_2
REMARK    2  A    between atoms: N_10  and  C_11
REMARK    3  A    between atoms: C_11  and  C_12
REMARK    4  A    between atoms: C_12  and  N_13
REMARK    5  A    between atoms: C_14  and  C_16
REMARK    6  A    between atoms: C_19  and  C_20
REMARK                            x       y       z     vdW  Elec       q    Type
REMARK                         _______ _______ _______ _____ _____    ______ ____
ROOT
ATOM      1  N   UNL     1       2.341   7.951  18.741  0.00  0.00    +0.000 N 
ATOM      2  C   UNL     1       1.819   9.210  18.482  0.00  0.00    +0.000 C 
ATOM      3  O   UNL     1       2.022   9.817  17.437  0.00  0.00    +0.000 OA
ATOM      4  H   UNL     1       1.953   7.410  19.502  0.00  0.00    +0.000 HD
ENDROOT
BRANCH   2   5
ATOM      5  C   UNL     1       0.928   9.809  19.514  0.00  0.00    +0.000 A 
ATOM      6  C   UNL     1       0.033  10.848  19.221  0.00  0.00    +0.000 A 
ATOM      7  C   UNL     1      -0.779  11.382  20.232  0.00  0.00    +0.000 A 
ATOM      8  C   UNL     1      -0.703  10.883  21.540  0.00  0.00    +0.000 A 
ATOM      9  C   UNL     1       0.165   9.829  21.813  0.00  0.00    +0.000 A 
ATOM     10  F   UNL     1       0.247   9.322  23.052  0.00  0.00    +0.000 F 
ATOM     11  C   UNL     1       0.971   9.284  20.813  0.00  0.00    +0.000 A 
BRANCH   8  12
ATOM     12  C   UNL     1      -1.504  11.454  22.582  0.00  0.00    +0.000 C 
ATOM     13  N   UNL     1      -2.167  11.947  23.398  0.00  0.00    +0.000 NA
ENDBRANCH   8  12
ENDBRANCH   2   5
BRANCH   1  14
ATOM     14  C   UNL     1       3.110   7.271  17.699  0.00  0.00    +0.000 C 
BRANCH  14  15
ATOM     15  C   UNL     1       4.148   6.283  18.235  0.00  0.00    +0.000 C 
BRANCH  15  25
ATOM     16  C   UNL     1       4.923   4.274  16.065  0.00  0.00    +0.000 C 
ATOM     17  C   UNL     1       4.035   3.978  17.220  0.00  0.00    +0.000 A 
ATOM     18  C   UNL     1       3.413   2.788  17.536  0.00  0.00    +0.000 A 
ATOM     19  C   UNL     1       2.676   2.973  18.730  0.00  0.00    +0.000 A 
ATOM     20  C   UNL     1       1.867   2.117  19.505  0.00  0.00    +0.000 A 
ATOM     21  C   UNL     1       1.264   2.603  20.667  0.00  0.00    +0.000 A 
ATOM     22  C   UNL     1       1.455   3.924  21.056  0.00  0.00    +0.000 A 
ATOM     23  C   UNL     1       2.250   4.796  20.298  0.00  0.00    +0.000 A 
ATOM     24  C   UNL     1       2.858   4.300  19.131  0.00  0.00    +0.000 A 
ATOM     25  N   UNL     1       3.684   4.898  18.190  0.00  0.00    +0.000 N 
ENDBRANCH  15  25
ENDBRANCH  14  15
ENDBRANCH   1  14
TORSDOF 5
ENDMDL
MODEL 2
REMARK VINA RESULT:      -7.5      5.585      6.962
REMARK  Name = 
REMARK  6 active torsions:
REMARK  status: ('A' for Active; 'I' for Inactive)
REMARK    1  A    between atoms: C_1  and  C_2
REMARK    2  A    between atoms: N_10  and  C_11
REMARK    3  A    between atoms: C_11  and  C_12
REMARK    4  A    between atoms: C_12  and  N_13
REMARK    5  A    between atoms: C_14  and  C_16
REMARK    6  A    between atoms: C_19  and  C_20
REMARK                            x       y       z     vdW  Elec       q    Type
REMARK                         _______ _______ _______ _____ _____    ______ ____
ROOT
ATOM      1  N   UNL     1       7.185   8.192  17.231  0.00  0.00    +0.000 N 
ATOM      2  C   UNL     1       8.135   8.404  18.219  0.00  0.00    +0.000 C 
ATOM      3  O   UNL     1       8.603   7.502  18.904  0.00  0.00    +0.000 OA
ATOM      4  H   UNL     1       7.018   8.922  16.551  0.00  0.00    +0.000 HD
ENDROOT
BRANCH   2   5
ATOM      5  C   UNL     1       8.636   9.795  18.402  0.00  0.00    +0.000 A 
ATOM      6  C   UNL     1       8.267  10.844  17.548  0.00  0.00    +0.000 A 
ATOM      7  C   UNL     1       8.772  12.135  17.760  0.00  0.00    +0.000 A 
ATOM      8  C   UNL     1       9.647  12.387  18.825  0.00  0.00    +0.000 A 
ATOM      9  C   UNL     1       9.982  11.345  19.688  0.00  0.00    +0.000 A 
ATOM     10  F   UNL     1      10.805  11.562  20.724  0.00  0.00    +0.000 F 
ATOM     11  C   UNL     1       9.477  10.060  19.491  0.00  0.00    +0.000 A 
BRANCH   8  12
ATOM     12  C   UNL     1      10.196  13.696  19.020  0.00  0.00    +0.000 C 
ATOM     13  N   UNL     1      10.649  14.759  19.135  0.00  0.00    +0.000 NA
ENDBRANCH   8  12
ENDBRANCH   2   5
BRANCH   1  14
ATOM     14  C   UNL     1       6.767   6.823  16.928  0.00  0.00    +0.000 C 
BRANCH  14  15
ATOM     15  C   UNL     1       5.335   6.712  16.400  0.00  0.00    +0.000 C 
BRANCH  15  25
ATOM     16  C   UNL     1       5.730   3.881  15.316  0.00  0.00    +0.000 C 
ATOM     17  C   UNL     1       4.814   4.245  16.429  0.00  0.00    +0.000 A 
ATOM     18  C   UNL     1       3.997   3.417  17.170  0.00  0.00    +0.000 A 
ATOM     19  C   UNL     1       3.314   4.203  18.128  0.00  0.00    +0.000 A 
ATOM     20  C   UNL     1       2.376   3.896  19.134  0.00  0.00    +0.000 A 
ATOM     21  C   UNL     1       1.877   4.915  19.946  0.00  0.00    +0.000 A 
ATOM     22  C   UNL     1       2.298   6.227  19.763  0.00  0.00    +0.000 A 
ATOM     23  C   UNL     1       3.227   6.559  18.765  0.00  0.00    +0.000 A 
ATOM     24  C   UNL     1       3.728   5.527  17.952  0.00  0.00    +0.000 A 
ATOM     25  N   UNL     1       4.638   5.532  16.904  0.00  0.00    +0.000 N 
ENDBRANCH  15  25
ENDBRANCH  14  15
ENDBRANCH   1  14
TORSDOF 5
ENDMDL
MODEL 3
REMARK VINA RESULT:      -7.5      0.959      1.372
REMARK  Name = 
REMARK  6 active torsions:
REMARK  status: ('A' for Active; 'I' for Inactive)
REMARK    1  A    between atoms: C_1  and  C_2
REMARK    2  A    between atoms: N_10  and  C_11
REMARK    3  A    between atoms: C_11  and  C_12
REMARK    4  A    between atoms: C_12  and  N_13
REMARK    5  A    between atoms: C_14  and  C_16
REMARK    6  A    between atoms: C_19  and  C_20
REMARK                            x       y       z     vdW  Elec       q    Type
REMARK                         _______ _______ _______ _____ _____    ______ ____
ROOT
ATOM      1  N   UNL     1       2.583   7.876  18.770  0.00  0.00    +0.000 N 
ATOM      2  C   UNL     1       1.835   9.005  18.470  0.00  0.00    +0.000 C 
ATOM      3  O   UNL     1       1.794   9.503  17.351  0.00  0.00    +0.000 OA
ATOM      4  H   UNL     1       2.393   7.380  19.631  0.00  0.00    +0.000 HD
ENDROOT
BRANCH   2   5
ATOM      5  C   UNL     1       1.009   9.591  19.562  0.00  0.00    +0.000 A 
ATOM      6  C   UNL     1       0.960   9.034  20.848  0.00  0.00    +0.000 A 
ATOM      7  C   UNL     1       0.160   9.620  21.838  0.00  0.00    +0.000 A 
ATOM      8  C   UNL     1      -0.595  10.766  21.553  0.00  0.00    +0.000 A 
ATOM      9  C   UNL     1      -0.515  11.331  20.282  0.00  0.00    +0.000 A 
ATOM     10  F   UNL     1      -1.215  12.435  19.986  0.00  0.00    +0.000 F 
ATOM     11  C   UNL     1       0.285  10.761  19.292  0.00  0.00    +0.000 A 
BRANCH   8  12
ATOM     12  C   UNL     1      -1.444  11.344  22.552  0.00  0.00    +0.000 C 
ATOM     13  N   UNL     1      -2.154  11.833  23.330  0.00  0.00    +0.000 NA
ENDBRANCH   8  12
ENDBRANCH   2   5
BRANCH   1  14
ATOM     14  C   UNL     1       3.302   7.192  17.695  0.00  0.00    +0.000 C 
BRANCH  14  15
ATOM     15  C   UNL     1       4.305   6.145  18.184  0.00  0.00    +0.000 C 
BRANCH  15  25
ATOM     16  C   UNL     1       4.929   4.088  16.011  0.00  0.00    +0.000 C 
ATOM     17  C   UNL     1       4.046   3.846  17.183  0.00  0.00    +0.000 A 
ATOM     18  C   UNL     1       3.364   2.694  17.516  0.00  0.00    +0.000 A 
ATOM     19  C   UNL     1       2.660   2.925  18.721  0.00  0.00    +0.000 A 
ATOM     20  C   UNL     1       1.818   2.118  19.514  0.00  0.00    +0.000 A 
ATOM     21  C   UNL     1       1.263   2.642  20.683  0.00  0.00    +0.000 A 
ATOM     22  C   UNL     1       1.534   3.952  21.062  0.00  0.00    +0.000 A 
ATOM     23  C   UNL     1       2.364   4.775  20.287  0.00  0.00    +0.000 A 
ATOM     24  C   UNL     1       2.922   4.241  19.112  0.00  0.00    +0.000 A 
ATOM     25  N   UNL     1       3.764   4.789  18.154  0.00  0.00    +0.000 N 
ENDBRANCH  15  25
ENDBRANCH  14  15
ENDBRANCH   1  14
TORSDOF 5
ENDMDL
MODEL 4
REMARK VINA RESULT:      -7.4      5.451      6.911
REMARK  Name = 
REMARK  6 active torsions:
REMARK  status: ('A' for Active; 'I' for Inactive)
REMARK    1  A    between atoms: C_1  and  C_2
REMARK    2  A    between atoms: N_10  and  C_11
REMARK    3  A    between atoms: C_11  and  C_12
REMARK    4  A    between atoms: C_12  and  N_13
REMARK    5  A    between atoms: C_14  and  C_16
REMARK    6  A    between atoms: C_19  and  C_20
REMARK                            x       y       z     vdW  Elec       q    Type
REMARK                         _______ _______ _______ _____ _____    ______ ____
ROOT
ATOM      1  N   UNL     1       7.209   8.067  17.183  0.00  0.00    +0.000 N 
ATOM      2  C   UNL     1       8.120   8.278  18.208  0.00  0.00    +0.000 C 
ATOM      3  O   UNL     1       8.567   7.374  18.903  0.00  0.00    +0.000 OA
ATOM      4  H   UNL     1       7.063   8.801  16.503  0.00  0.00    +0.000 HD
ENDROOT
BRANCH   2   5
ATOM      5  C   UNL     1       8.604   9.671  18.420  0.00  0.00    +0.000 A 
ATOM      6  C   UNL     1       9.534   9.998  19.417  0.00  0.00    +0.000 A 
ATOM      7  C   UNL     1       9.952  11.326  19.580  0.00  0.00    +0.000 A 
ATOM      8  C   UNL     1       9.446  12.335  18.749  0.00  0.00    +0.000 A 
ATOM      9  C   UNL     1       8.548  11.994  17.740  0.00  0.00    +0.000 A 
ATOM     10  F   UNL     1       8.059  12.938  16.921  0.00  0.00    +0.000 F 
ATOM     11  C   UNL     1       8.132  10.675  17.564  0.00  0.00    +0.000 A 
BRANCH   8  12
ATOM     12  C   UNL     1       9.842  13.699  18.939  0.00  0.00    +0.000 C 
ATOM     13  N   UNL     1      10.124  14.817  19.076  0.00  0.00    +0.000 NA
ENDBRANCH   8  12
ENDBRANCH   2   5
BRANCH   1  14
ATOM     14  C   UNL     1       6.811   6.698  16.855  0.00  0.00    +0.000 C 
BRANCH  14  15
ATOM     15  C   UNL     1       5.378   6.573  16.335  0.00  0.00    +0.000 C 
BRANCH  15  25
ATOM     16  C   UNL     1       5.773   3.691  15.395  0.00  0.00    +0.000 C 
ATOM     17  C   UNL     1       4.850   4.113  16.482  0.00  0.00    +0.000 A 
ATOM     18  C   UNL     1       4.025   3.323  17.257  0.00  0.00    +0.000 A 
ATOM     19  C   UNL     1       3.338   4.158  18.170  0.00  0.00    +0.000 A 
ATOM     20  C   UNL     1       2.391   3.903  19.183  0.00  0.00    +0.000 A 
ATOM     21  C   UNL     1       1.888   4.962  19.940  0.00  0.00    +0.000 A 
ATOM     22  C   UNL     1       2.315   6.263  19.695  0.00  0.00    +0.000 A 
ATOM     23  C   UNL     1       3.252   6.542  18.689  0.00  0.00    +0.000 A 
ATOM     24  C   UNL     1       3.756   5.470  17.932  0.00  0.00    +0.000 A 
ATOM     25  N   UNL     1       4.674   5.422  16.891  0.00  0.00    +0.000 N 
ENDBRANCH  15  25
ENDBRANCH  14  15
ENDBRANCH   1  14
TORSDOF 5
ENDMDL
MODEL 5
REMARK VINA RESULT:      -7.3      2.929      3.414
REMARK  Name = 
REMARK  6 active torsions:
REMARK  status: ('A' for Active; 'I' for Inactive)
REMARK    1  A    between atoms: C_1  and  C_2
REMARK    2  A    between atoms: N_10  and  C_11
REMARK    3  A    between atoms: C_11  and  C_12
REMARK    4  A    between atoms: C_12  and  N_13
REMARK    5  A    between atoms: C_14  and  C_16
REMARK    6  A    between atoms: C_19  and  C_20
REMARK                            x       y       z     vdW  Elec       q    Type
REMARK                         _______ _______ _______ _____ _____    ______ ____
ROOT
ATOM      1  N   UNL     1       1.163   8.773  17.757  0.00  0.00    +0.000 N 
ATOM      2  C   UNL     1       0.676   9.784  18.571  0.00  0.00    +0.000 C 
ATOM      3  O   UNL     1       1.328  10.286  19.479  0.00  0.00    +0.000 OA
ATOM      4  H   UNL     1       0.680   8.569  16.892  0.00  0.00    +0.000 HD
ENDROOT
BRANCH   2   5
ATOM      5  C   UNL     1      -0.688  10.306  18.277  0.00  0.00    +0.000 A 
ATOM      6  C   UNL     1      -1.272  11.341  19.020  0.00  0.00    +0.000 A 
ATOM      7  C   UNL     1      -2.563  11.791  18.705  0.00  0.00    +0.000 A 
ATOM      8  C   UNL     1      -3.277  11.211  17.648  0.00  0.00    +0.000 A 
ATOM      9  C   UNL     1      -2.675  10.206  16.895  0.00  0.00    +0.000 A 
ATOM     10  F   UNL     1      -3.330   9.644  15.868  0.00  0.00    +0.000 F 
ATOM     11  C   UNL     1      -1.389   9.757  17.193  0.00  0.00    +0.000 A 
BRANCH   8  12
ATOM     12  C   UNL     1      -4.611  11.643  17.350  0.00  0.00    +0.000 C 
ATOM     13  N   UNL     1      -5.687  12.023  17.140  0.00  0.00    +0.000 NA
ENDBRANCH   8  12
ENDBRANCH   2   5
BRANCH   1  14
ATOM     14  C   UNL     1       2.546   8.325  17.927  0.00  0.00    +0.000 C 
BRANCH  14  15
ATOM     15  C   UNL     1       2.717   7.210  18.959  0.00  0.00    +0.000 C 
BRANCH  15  25
ATOM     16  C   UNL     1       4.872   6.709  16.849  0.00  0.00    +0.000 C 
ATOM     17  C   UNL     1       3.963   5.670  17.400  0.00  0.00    +0.000 A 
ATOM     18  C   UNL     1       3.913   4.327  17.088  0.00  0.00    +0.000 A 
ATOM     19  C   UNL     1       2.895   3.726  17.867  0.00  0.00    +0.000 A 
ATOM     20  C   UNL     1       2.413   2.405  17.967  0.00  0.00    +0.000 A 
ATOM     21  C   UNL     1       1.377   2.115  18.856  0.00  0.00    +0.000 A 
ATOM     22  C   UNL     1       0.819   3.122  19.635  0.00  0.00    +0.000 A 
ATOM     23  C   UNL     1       1.278   4.444  19.549  0.00  0.00    +0.000 A 
ATOM     24  C   UNL     1       2.325   4.730  18.654  0.00  0.00    +0.000 A 
ATOM     25  N   UNL     1       2.985   5.911  18.348  0.00  0.00    +0.000 N 
ENDBRANCH  15  25
ENDBRANCH  14  15
ENDBRANCH   1  14
TORSDOF 5
ENDMDL
MODEL 6
REMARK VINA RESULT:      -7.3      4.092      6.815
REMARK  Name = 
REMARK  6 active torsions:
REMARK  status: ('A' for Active; 'I' for Inactive)
REMARK    1  A    between atoms: C_1  and  C_2
REMARK    2  A    between atoms: N_10  and  C_11
REMARK    3  A    between atoms: C_11  and  C_12
REMARK    4  A    between atoms: C_12  and  N_13
REMARK    5  A    between atoms: C_14  and  C_16
REMARK    6  A    between atoms: C_19  and  C_20
REMARK                            x       y       z     vdW  Elec       q    Type
REMARK                         _______ _______ _______ _____ _____    ______ ____
ROOT
ATOM      1  N   UNL     1       4.728   3.334  18.318  0.00  0.00    +0.000 N 
ATOM      2  C   UNL     1       5.042   4.085  17.195  0.00  0.00    +0.000 C 
ATOM      3  O   UNL     1       4.644   3.807  16.070  0.00  0.00    +0.000 OA
ATOM      4  H   UNL     1       4.882   3.738  19.233  0.00  0.00    +0.000 HD
ENDROOT
BRANCH   2   5
ATOM      5  C   UNL     1       5.859   5.314  17.397  0.00  0.00    +0.000 A 
ATOM      6  C   UNL     1       5.633   6.493  16.673  0.00  0.00    +0.000 A 
ATOM      7  C   UNL     1       6.436   7.621  16.897  0.00  0.00    +0.000 A 
ATOM      8  C   UNL     1       7.468   7.579  17.845  0.00  0.00    +0.000 A 
ATOM      9  C   UNL     1       7.663   6.414  18.583  0.00  0.00    +0.000 A 
ATOM     10  F   UNL     1       8.633   6.351  19.506  0.00  0.00    +0.000 F 
ATOM     11  C   UNL     1       6.864   5.289  18.374  0.00  0.00    +0.000 A 
BRANCH   8  12
ATOM     12  C   UNL     1       8.314   8.718  18.047  0.00  0.00    +0.000 C 
ATOM     13  N   UNL     1       9.019   9.619  18.245  0.00  0.00    +0.000 NA
ENDBRANCH   8  12
ENDBRANCH   2   5
BRANCH   1  14
ATOM     14  C   UNL     1       3.818   2.197  18.182  0.00  0.00    +0.000 C 
BRANCH  14  15
ATOM     15  C   UNL     1       2.362   2.520  18.523  0.00  0.00    +0.000 C 
BRANCH  15  25
ATOM     16  C   UNL     1       2.213   2.192  21.559  0.00  0.00    +0.000 C 
ATOM     17  C   UNL     1       2.177   3.494  20.841  0.00  0.00    +0.000 A 
ATOM     18  C   UNL     1       2.079   4.762  21.375  0.00  0.00    +0.000 A 
ATOM     19  C   UNL     1       2.091   5.696  20.312  0.00  0.00    +0.000 A 
ATOM     20  C   UNL     1       2.024   7.104  20.267  0.00  0.00    +0.000 A 
ATOM     21  C   UNL     1       2.067   7.756  19.034  0.00  0.00    +0.000 A 
ATOM     22  C   UNL     1       2.172   7.025  17.856  0.00  0.00    +0.000 A 
ATOM     23  C   UNL     1       2.234   5.623  17.876  0.00  0.00    +0.000 A 
ATOM     24  C   UNL     1       2.193   4.972  19.121  0.00  0.00    +0.000 A 
ATOM     25  N   UNL     1       2.236   3.628  19.466  0.00  0.00    +0.000 N 
ENDBRANCH  15  25
ENDBRANCH  14  15
ENDBRANCH   1  14
TORSDOF 5
ENDMDL
MODEL 7
REMARK VINA RESULT:      -7.3      2.674      4.400
REMARK  Name = 
REMARK  6 active torsions:
REMARK  status: ('A' for Active; 'I' for Inactive)
REMARK    1  A    between atoms: C_1  and  C_2
REMARK    2  A    between atoms: N_10  and  C_11
REMARK    3  A    between atoms: C_11  and  C_12
REMARK    4  A    between atoms: C_12  and  N_13
REMARK    5  A    between atoms: C_14  and  C_16
REMARK    6  A    between atoms: C_19  and  C_20
REMARK                            x       y       z     vdW  Elec       q    Type
REMARK                         _______ _______ _______ _____ _____    ______ ____
ROOT
ATOM      1  N   UNL     1       3.273   5.259  20.288  0.00  0.00    +0.000 N 
ATOM      2  C   UNL     1       1.946   5.665  20.318  0.00  0.00    +0.000 C 
ATOM      3  O   UNL     1       1.017   4.899  20.543  0.00  0.00    +0.000 OA
ATOM      4  H   UNL     1       3.998   5.962  20.335  0.00  0.00    +0.000 HD
ENDROOT
BRANCH   2   5
ATOM      5  C   UNL     1       1.667   7.114  20.116  0.00  0.00    +0.000 A 
ATOM      6  C   UNL     1       1.137   7.924  21.130  0.00  0.00    +0.000 A 
ATOM      7  C   UNL     1       0.886   9.282  20.886  0.00  0.00    +0.000 A 
ATOM      8  C   UNL     1       1.163   9.839  19.630  0.00  0.00    +0.000 A 
ATOM      9  C   UNL     1       1.720   9.034  18.640  0.00  0.00    +0.000 A 
ATOM     10  F   UNL     1       2.009   9.545  17.434  0.00  0.00    +0.000 F 
ATOM     11  C   UNL     1       1.982   7.684  18.875  0.00  0.00    +0.000 A 
BRANCH   8  12
ATOM     12  C   UNL     1       0.870  11.217  19.367  0.00  0.00    +0.000 C 
ATOM     13  N   UNL     1       0.602  12.321  19.126  0.00  0.00    +0.000 NA
ENDBRANCH   8  12
ENDBRANCH   2   5
BRANCH   1  14
ATOM     14  C   UNL     1       3.600   3.871  20.614  0.00  0.00    +0.000 C 
BRANCH  14  15
ATOM     15  C   UNL     1       4.506   3.188  19.589  0.00  0.00    +0.000 C 
BRANCH  15  25
ATOM     16  C   UNL     1       2.827   3.224  17.034  0.00  0.00    +0.000 C 
ATOM     17  C   UNL     1       4.029   4.065  17.274  0.00  0.00    +0.000 A 
ATOM     18  C   UNL     1       4.603   4.996  16.432  0.00  0.00    +0.000 A 
ATOM     19  C   UNL     1       5.725   5.558  17.086  0.00  0.00    +0.000 A 
ATOM     20  C   UNL     1       6.665   6.539  16.713  0.00  0.00    +0.000 A 
ATOM     21  C   UNL     1       7.682   6.894  17.602  0.00  0.00    +0.000 A 
ATOM     22  C   UNL     1       7.770   6.282  18.846  0.00  0.00    +0.000 A 
ATOM     23  C   UNL     1       6.849   5.298  19.238  0.00  0.00    +0.000 A 
ATOM     24  C   UNL     1       5.826   4.947  18.339  0.00  0.00    +0.000 A 
ATOM     25  N   UNL     1       4.786   4.033  18.431  0.00  0.00    +0.000 N 
ENDBRANCH  15  25
ENDBRANCH  14  15
ENDBRANCH   1  14
TORSDOF 5
ENDMDL
MODEL 8
REMARK VINA RESULT:      -7.3      2.587      3.989
REMARK  Name = 
REMARK  6 active torsions:
REMARK  status: ('A' for Active; 'I' for Inactive)
REMARK    1  A    between atoms: C_1  and  C_2
REMARK    2  A    between atoms: N_10  and  C_11
REMARK    3  A    between atoms: C_11  and  C_12
REMARK    4  A    between atoms: C_12  and  N_13
REMARK    5  A    between atoms: C_14  and  C_16
REMARK    6  A    between atoms: C_19  and  C_20
REMARK                            x       y       z     vdW  Elec       q    Type
REMARK                         _______ _______ _______ _____ _____    ______ ____
ROOT
ATOM      1  N   UNL     1       1.496   8.395  18.423  0.00  0.00    +0.000 N 
ATOM      2  C   UNL     1       1.300   9.746  18.175  0.00  0.00    +0.000 C 
ATOM      3  O   UNL     1       2.200  10.501  17.826  0.00  0.00    +0.000 OA
ATOM      4  H   UNL     1       0.690   7.787  18.472  0.00  0.00    +0.000 HD
ENDROOT
BRANCH   2   5
ATOM      5  C   UNL     1      -0.089  10.271  18.291  0.00  0.00    +0.000 A 
ATOM      6  C   UNL     1      -0.430  11.300  19.180  0.00  0.00    +0.000 A 
ATOM      7  C   UNL     1      -1.755  11.753  19.256  0.00  0.00    +0.000 A 
ATOM      8  C   UNL     1      -2.746  11.183  18.445  0.00  0.00    +0.000 A 
ATOM      9  C   UNL     1      -2.391  10.183  17.542  0.00  0.00    +0.000 A 
ATOM     10  F   UNL     1      -3.317   9.631  16.745  0.00  0.00    +0.000 F 
ATOM     11  C   UNL     1      -1.074   9.732  17.452  0.00  0.00    +0.000 A 
BRANCH   8  12
ATOM     12  C   UNL     1      -4.108  11.617  18.550  0.00  0.00    +0.000 C 
ATOM     13  N   UNL     1      -5.224  11.927  18.628  0.00  0.00    +0.000 NA
ENDBRANCH   8  12
ENDBRANCH   2   5
BRANCH   1  14
ATOM     14  C   UNL     1       2.818   7.813  18.189  0.00  0.00    +0.000 C 
BRANCH  14  15
ATOM     15  C   UNL     1       3.065   6.506  18.944  0.00  0.00    +0.000 C 
BRANCH  15  25
ATOM     16  C   UNL     1       1.458   4.010  18.212  0.00  0.00    +0.000 C 
ATOM     17  C   UNL     1       2.833   4.308  17.731  0.00  0.00    +0.000 A 
ATOM     18  C   UNL     1       3.626   3.555  16.889  0.00  0.00    +0.000 A 
ATOM     19  C   UNL     1       4.851   4.238  16.701  0.00  0.00    +0.000 A 
ATOM     20  C   UNL     1       6.010   3.947  15.953  0.00  0.00    +0.000 A 
ATOM     21  C   UNL     1       7.080   4.844  15.962  0.00  0.00    +0.000 A 
ATOM     22  C   UNL     1       7.006   6.015  16.708  0.00  0.00    +0.000 A 
ATOM     23  C   UNL     1       5.866   6.323  17.465  0.00  0.00    +0.000 A 
ATOM     24  C   UNL     1       4.791   5.417  17.449  0.00  0.00    +0.000 A 
ATOM     25  N   UNL     1       3.553   5.437  18.077  0.00  0.00    +0.000 N 
ENDBRANCH  15  25
ENDBRANCH  14  15
ENDBRANCH   1  14
TORSDOF 5
ENDMDL
MODEL 9
REMARK VINA RESULT:      -7.2      1.296      3.020
REMARK  Name = 
REMARK  6 active torsions:
REMARK  status: ('A' for Active; 'I' for Inactive)
REMARK    1  A    between atoms: C_1  and  C_2
REMARK    2  A    between atoms: N_10  and  C_11
REMARK    3  A    between atoms: C_11  and  C_12
REMARK    4  A    between atoms: C_12  and  N_13
REMARK    5  A    between atoms: C_14  and  C_16
REMARK    6  A    between atoms: C_19  and  C_20
REMARK                            x       y       z     vdW  Elec       q    Type
REMARK                         _______ _______ _______ _____ _____    ______ ____
ROOT
ATOM      1  N   UNL     1       1.806   8.313  19.574  0.00  0.00    +0.000 N 
ATOM      2  C   UNL     1       1.092   9.397  19.083  0.00  0.00    +0.000 C 
ATOM      3  O   UNL     1       1.103   9.729  17.904  0.00  0.00    +0.000 OA
ATOM      4  H   UNL     1       1.573   7.950  20.488  0.00  0.00    +0.000 HD
ENDROOT
BRANCH   2   5
ATOM      5  C   UNL     1       0.235  10.145  20.045  0.00  0.00    +0.000 A 
ATOM      6  C   UNL     1      -0.585  11.211  19.647  0.00  0.00    +0.000 A 
ATOM      7  C   UNL     1      -1.367  11.887  20.594  0.00  0.00    +0.000 A 
ATOM      8  C   UNL     1      -1.338  11.504  21.941  0.00  0.00    +0.000 A 
ATOM      9  C   UNL     1      -0.546  10.423  22.321  0.00  0.00    +0.000 A 
ATOM     10  F   UNL     1      -0.510  10.026  23.601  0.00  0.00    +0.000 F 
ATOM     11  C   UNL     1       0.229   9.738  21.386  0.00  0.00    +0.000 A 
BRANCH   8  12
ATOM     12  C   UNL     1      -2.107  12.219  22.917  0.00  0.00    +0.000 C 
ATOM     13  N   UNL     1      -2.708  12.836  23.696  0.00  0.00    +0.000 NA
ENDBRANCH   8  12
ENDBRANCH   2   5
BRANCH   1  14
ATOM     14  C   UNL     1       2.553   7.471  18.639  0.00  0.00    +0.000 C 
BRANCH  14  15
ATOM     15  C   UNL     1       3.098   6.184  19.259  0.00  0.00    +0.000 C 
BRANCH  15  25
ATOM     16  C   UNL     1       1.421   3.779  18.393  0.00  0.00    +0.000 C 
ATOM     17  C   UNL     1       2.762   4.121  17.849  0.00  0.00    +0.000 A 
ATOM     18  C   UNL     1       3.487   3.455  16.883  0.00  0.00    +0.000 A 
ATOM     19  C   UNL     1       4.703   4.150  16.680  0.00  0.00    +0.000 A 
ATOM     20  C   UNL     1       5.805   3.934  15.827  0.00  0.00    +0.000 A 
ATOM     21  C   UNL     1       6.881   4.822  15.852  0.00  0.00    +0.000 A 
ATOM     22  C   UNL     1       6.870   5.912  16.715  0.00  0.00    +0.000 A 
ATOM     23  C   UNL     1       5.788   6.145  17.577  0.00  0.00    +0.000 A 
ATOM     24  C   UNL     1       4.706   5.248  17.545  0.00  0.00    +0.000 A 
ATOM     25  N   UNL     1       3.515   5.207  18.256  0.00  0.00    +0.000 N 
ENDBRANCH  15  25
ENDBRANCH  14  15
ENDBRANCH   1  14
TORSDOF 5
ENDMDL
