MODEL 1
REMARK VINA RESULT:      -7.2      0.000      0.000
REMARK  Name = 
REMARK  4 active torsions:
REMARK  status: ('A' for Active; 'I' for Inactive)
REMARK    1  A    between atoms: C_1  and  O_2
REMARK    2  A    between atoms: O_2  and  C_3
REMARK    3  A    between atoms: C_8  and  C_9
REMARK    4  A    between atoms: C_12  and  N_13
REMARK                            x       y       z     vdW  Elec       q    Type
REMARK                         _______ _______ _______ _____ _____    ______ ____
ROOT
ATOM      1  C   UNL     1       2.596   6.976  19.639  0.00  0.00    +0.000 C 
ATOM      2  C   UNL     1       2.563   7.924  18.437  0.00  0.00    +0.000 C 
ATOM      3  C   UNL     1       1.249   8.657  18.220  0.00  0.00    +0.000 C 
ATOM      4  C   UNL     1       0.622   9.324  19.470  0.00  0.00    +0.000 C 
ATOM      5  C   UNL     1       0.722   8.387  20.702  0.00  0.00    +0.000 C 
ATOM      6  C   UNL     1       2.030   7.635  20.898  0.00  0.00    +0.000 C 
ENDROOT
BRANCH   4   7
ATOM      7  N   UNL     1       1.116  10.723  19.677  0.00  0.00    +0.000 NA
ATOM      8  C   UNL     1       0.438  11.684  18.753  0.00  0.00    +0.000 C 
ATOM      9  C   UNL     1      -1.095  11.845  18.944  0.00  0.00    +0.000 C 
ATOM     10  N   UNL     1      -1.489  11.985  20.351  0.00  0.00    +0.000 N 
ATOM     11  C   UNL     1      -2.767  12.396  20.702  0.00  0.00    +0.000 A 
ATOM     12  C   UNL     1      -3.800  12.524  19.772  0.00  0.00    +0.000 A 
ATOM     13  C   UNL     1      -5.029  13.071  20.148  0.00  0.00    +0.000 A 
ATOM     14  C   UNL     1      -5.212  13.485  21.457  0.00  0.00    +0.000 A 
ATOM     15  C   UNL     1      -4.171  13.294  22.335  0.00  0.00    +0.000 A 
ATOM     16  N   UNL     1      -2.981  12.750  21.988  0.00  0.00    +0.000 NA
ATOM     17  C   UNL     1      -0.703  11.294  21.393  0.00  0.00    +0.000 C 
ATOM     18  C   UNL     1       0.802  11.266  21.033  0.00  0.00    +0.000 C 
ENDBRANCH   4   7
BRANCH   1  24
ATOM     19  C   UNL     1       2.461   4.715  18.294  0.00  0.00    +0.000 A 
ATOM     20  C   UNL     1       1.997   3.387  18.236  0.00  0.00    +0.000 A 
ATOM     21  C   UNL     1       1.138   2.879  19.207  0.00  0.00    +0.000 A 
ATOM     22  C   UNL     1       0.768   3.684  20.270  0.00  0.00    +0.000 A 
ATOM     23  C   UNL     1       1.278   4.981  20.373  0.00  0.00    +0.000 A 
ATOM     24  C   UNL     1       2.145   5.530  19.398  0.00  0.00    +0.000 A 
BRANCH  19  26
ATOM     25  C   UNL     1       4.592   4.742  17.301  0.00  0.00    +0.000 C 
ATOM     26  O   UNL     1       3.241   5.214  17.286  0.00  0.00    +0.000 OA
ENDBRANCH  19  26
ENDBRANCH   1  24
TORSDOF 3
ENDMDL
MODEL 2
REMARK VINA RESULT:      -6.8      1.089      1.657
REMARK  Name = 
REMARK  4 active torsions:
REMARK  status: ('A' for Active; 'I' for Inactive)
REMARK    1  A    between atoms: C_1  and  O_2
REMARK    2  A    between atoms: O_2  and  C_3
REMARK    3  A    between atoms: C_8  and  C_9
REMARK    4  A    between atoms: C_12  and  N_13
REMARK                            x       y       z     vdW  Elec       q    Type
REMARK                         _______ _______ _______ _____ _____    ______ ____
ROOT
ATOM      1  C   UNL     1       2.573   7.011  19.520  0.00  0.00    +0.000 C 
ATOM      2  C   UNL     1       2.682   8.028  18.381  0.00  0.00    +0.000 C 
ATOM      3  C   UNL     1       1.414   8.810  18.082  0.00  0.00    +0.000 C 
ATOM      4  C   UNL     1       0.682   9.422  19.303  0.00  0.00    +0.000 C 
ATOM      5  C   UNL     1       0.637   8.412  20.480  0.00  0.00    +0.000 C 
ATOM      6  C   UNL     1       1.901   7.612  20.756  0.00  0.00    +0.000 C 
ENDROOT
BRANCH   4   7
ATOM      7  N   UNL     1       1.186  10.792  19.641  0.00  0.00    +0.000 NA
ATOM      8  C   UNL     1       0.514  11.840  18.814  0.00  0.00    +0.000 C 
ATOM      9  C   UNL     1      -1.018  11.994  19.021  0.00  0.00    +0.000 C 
ATOM     10  N   UNL     1      -1.410  12.002  20.436  0.00  0.00    +0.000 N 
ATOM     11  C   UNL     1      -2.685  12.386  20.826  0.00  0.00    +0.000 A 
ATOM     12  C   UNL     1      -3.718  12.609  19.914  0.00  0.00    +0.000 A 
ATOM     13  C   UNL     1      -4.942  13.126  20.341  0.00  0.00    +0.000 A 
ATOM     14  C   UNL     1      -5.122  13.415  21.684  0.00  0.00    +0.000 A 
ATOM     15  C   UNL     1      -4.081  13.134  22.539  0.00  0.00    +0.000 A 
ATOM     16  N   UNL     1      -2.896  12.617  22.140  0.00  0.00    +0.000 NA
ATOM     17  C   UNL     1      -0.628  11.209  21.406  0.00  0.00    +0.000 C 
ATOM     18  C   UNL     1       0.876  11.205  21.043  0.00  0.00    +0.000 C 
ENDBRANCH   4   7
BRANCH   1  24
ATOM     19  C   UNL     1       1.989   4.491  20.015  0.00  0.00    +0.000 A 
ATOM     20  C   UNL     1       1.519   3.256  19.526  0.00  0.00    +0.000 A 
ATOM     21  C   UNL     1       1.265   3.066  18.171  0.00  0.00    +0.000 A 
ATOM     22  C   UNL     1       1.439   4.123  17.295  0.00  0.00    +0.000 A 
ATOM     23  C   UNL     1       1.840   5.371  17.780  0.00  0.00    +0.000 A 
ATOM     24  C   UNL     1       2.115   5.595  19.150  0.00  0.00    +0.000 A 
BRANCH  19  26
ATOM     25  C   UNL     1       2.260   3.406  22.083  0.00  0.00    +0.000 C 
ATOM     26  O   UNL     1       2.307   4.628  21.339  0.00  0.00    +0.000 OA
ENDBRANCH  19  26
ENDBRANCH   1  24
TORSDOF 3
ENDMDL
MODEL 3
REMARK VINA RESULT:      -6.7      1.589      1.982
REMARK  Name = 
REMARK  4 active torsions:
REMARK  status: ('A' for Active; 'I' for Inactive)
REMARK    1  A    between atoms: C_1  and  O_2
REMARK    2  A    between atoms: O_2  and  C_3
REMARK    3  A    between atoms: C_8  and  C_9
REMARK    4  A    between atoms: C_12  and  N_13
REMARK                            x       y       z     vdW  Elec       q    Type
REMARK                         _______ _______ _______ _____ _____    ______ ____
ROOT
ATOM      1  C   UNL     1       2.164   8.334  19.628  0.00  0.00    +0.000 C 
ATOM      2  C   UNL     1       1.819   9.107  18.353  0.00  0.00    +0.000 C 
ATOM      3  C   UNL     1       0.343   9.404  18.150  0.00  0.00    +0.000 C 
ATOM      4  C   UNL     1      -0.415   9.983  19.371  0.00  0.00    +0.000 C 
ATOM      5  C   UNL     1      -0.008   9.242  20.672  0.00  0.00    +0.000 C 
ATOM      6  C   UNL     1       1.468   8.923  20.856  0.00  0.00    +0.000 C 
ENDROOT
BRANCH   4   7
ATOM      7  N   UNL     1      -0.345  11.479  19.427  0.00  0.00    +0.000 NA
ATOM      8  C   UNL     1      -0.909  12.098  18.188  0.00  0.00    +0.000 C 
ATOM      9  C   UNL     1      -2.421  11.848  17.930  0.00  0.00    +0.000 C 
ATOM     10  N   UNL     1      -3.249  12.037  19.127  0.00  0.00    +0.000 N 
ATOM     11  C   UNL     1      -4.632  12.114  19.039  0.00  0.00    +0.000 A 
ATOM     12  C   UNL     1      -5.330  11.840  17.861  0.00  0.00    +0.000 A 
ATOM     13  C   UNL     1      -6.706  12.064  17.783  0.00  0.00    +0.000 A 
ATOM     14  C   UNL     1      -7.373  12.561  18.890  0.00  0.00    +0.000 A 
ATOM     15  C   UNL     1      -6.637  12.771  20.034  0.00  0.00    +0.000 A 
ATOM     16  N   UNL     1      -5.307  12.543  20.128  0.00  0.00    +0.000 NA
ATOM     17  C   UNL     1      -2.684  11.719  20.453  0.00  0.00    +0.000 C 
ATOM     18  C   UNL     1      -1.178  12.067  20.519  0.00  0.00    +0.000 C 
ENDBRANCH   4   7
BRANCH   1  24
ATOM     19  C   UNL     1       2.705   6.006  18.521  0.00  0.00    +0.000 A 
ATOM     20  C   UNL     1       2.641   4.601  18.602  0.00  0.00    +0.000 A 
ATOM     21  C   UNL     1       1.945   3.969  19.629  0.00  0.00    +0.000 A 
ATOM     22  C   UNL     1       1.341   4.736  20.610  0.00  0.00    +0.000 A 
ATOM     23  C   UNL     1       1.458   6.129  20.575  0.00  0.00    +0.000 A 
ATOM     24  C   UNL     1       2.150   6.802  19.541  0.00  0.00    +0.000 A 
BRANCH  19  26
ATOM     25  C   UNL     1       4.725   6.307  17.355  0.00  0.00    +0.000 C 
ATOM     26  O   UNL     1       3.328   6.603  17.458  0.00  0.00    +0.000 OA
ENDBRANCH  19  26
ENDBRANCH   1  24
TORSDOF 3
ENDMDL
MODEL 4
REMARK VINA RESULT:      -6.6      2.655      3.944
REMARK  Name = 
REMARK  4 active torsions:
REMARK  status: ('A' for Active; 'I' for Inactive)
REMARK    1  A    between atoms: C_1  and  O_2
REMARK    2  A    between atoms: O_2  and  C_3
REMARK    3  A    between atoms: C_8  and  C_9
REMARK    4  A    between atoms: C_12  and  N_13
REMARK                            x       y       z     vdW  Elec       q    Type
REMARK                         _______ _______ _______ _____ _____    ______ ____
ROOT
ATOM      1  C   UNL     1       2.382   6.429  18.457  0.00  0.00    +0.000 C 
ATOM      2  C   UNL     1       1.856   6.539  19.891  0.00  0.00    +0.000 C 
ATOM      3  C   UNL     1       1.946   7.922  20.514  0.00  0.00    +0.000 C 
ATOM      4  C   UNL     1       1.436   9.100  19.645  0.00  0.00    +0.000 C 
ATOM      5  C   UNL     1       1.912   8.946  18.177  0.00  0.00    +0.000 C 
ATOM      6  C   UNL     1       1.846   7.554  17.568  0.00  0.00    +0.000 C 
ENDROOT
BRANCH   4   7
ATOM      7  N   UNL     1      -0.030   9.350  19.830  0.00  0.00    +0.000 NA
ATOM      8  C   UNL     1      -0.304  10.054  21.120  0.00  0.00    +0.000 C 
ATOM      9  C   UNL     1       0.293  11.481  21.258  0.00  0.00    +0.000 C 
ATOM     10  N   UNL     1       0.085  12.311  20.065  0.00  0.00    +0.000 N 
ATOM     11  C   UNL     1       0.313  13.679  20.094  0.00  0.00    +0.000 A 
ATOM     12  C   UNL     1       0.917  14.322  21.175  0.00  0.00    +0.000 A 
ATOM     13  C   UNL     1       1.000  15.715  21.218  0.00  0.00    +0.000 A 
ATOM     14  C   UNL     1       0.476  16.455  20.170  0.00  0.00    +0.000 A 
ATOM     15  C   UNL     1      -0.068  15.762  19.113  0.00  0.00    +0.000 A 
ATOM     16  N   UNL     1      -0.140  14.412  19.052  0.00  0.00    +0.000 NA
ATOM     17  C   UNL     1       0.056  11.669  18.736  0.00  0.00    +0.000 C 
ATOM     18  C   UNL     1      -0.604  10.271  18.803  0.00  0.00    +0.000 C 
ENDBRANCH   4   7
BRANCH   1  24
ATOM     19  C   UNL     1       4.599   5.082  18.912  0.00  0.00    +0.000 A 
ATOM     20  C   UNL     1       5.964   4.896  18.618  0.00  0.00    +0.000 A 
ATOM     21  C   UNL     1       6.649   5.774  17.785  0.00  0.00    +0.000 A 
ATOM     22  C   UNL     1       5.966   6.828  17.202  0.00  0.00    +0.000 A 
ATOM     23  C   UNL     1       4.596   6.982  17.433  0.00  0.00    +0.000 A 
ATOM     24  C   UNL     1       3.872   6.111  18.282  0.00  0.00    +0.000 A 
BRANCH  19  26
ATOM     25  C   UNL     1       4.173   2.857  19.540  0.00  0.00    +0.000 C 
ATOM     26  O   UNL     1       3.967   4.250  19.796  0.00  0.00    +0.000 OA
ENDBRANCH  19  26
ENDBRANCH   1  24
TORSDOF 3
ENDMDL
MODEL 5
REMARK VINA RESULT:      -6.6      2.977      8.783
REMARK  Name = 
REMARK  4 active torsions:
REMARK  status: ('A' for Active; 'I' for Inactive)
REMARK    1  A    between atoms: C_1  and  O_2
REMARK    2  A    between atoms: O_2  and  C_3
REMARK    3  A    between atoms: C_8  and  C_9
REMARK    4  A    between atoms: C_12  and  N_13
REMARK                            x       y       z     vdW  Elec       q    Type
REMARK                         _______ _______ _______ _____ _____    ______ ____
ROOT
ATOM      1  C   UNL     1      -2.441  12.377  19.224  0.00  0.00    +0.000 C 
ATOM      2  C   UNL     1      -1.694  11.956  20.492  0.00  0.00    +0.000 C 
ATOM      3  C   UNL     1      -1.160  10.533  20.491  0.00  0.00    +0.000 C 
ATOM      4  C   UNL     1      -0.391  10.090  19.221  0.00  0.00    +0.000 C 
ATOM      5  C   UNL     1      -1.116  10.581  17.941  0.00  0.00    +0.000 C 
ATOM      6  C   UNL     1      -1.672  11.996  17.958  0.00  0.00    +0.000 C 
ENDROOT
BRANCH   4   7
ATOM      7  N   UNL     1       1.071  10.406  19.301  0.00  0.00    +0.000 NA
ATOM      8  C   UNL     1       1.706   9.754  20.489  0.00  0.00    +0.000 C 
ATOM      9  C   UNL     1       1.704   8.201  20.495  0.00  0.00    +0.000 C 
ATOM     10  N   UNL     1       2.101   7.619  19.207  0.00  0.00    +0.000 N 
ATOM     11  C   UNL     1       2.409   6.271  19.092  0.00  0.00    +0.000 A 
ATOM     12  C   UNL     1       2.191   5.356  20.123  0.00  0.00    +0.000 A 
ATOM     13  C   UNL     1       2.643   4.040  20.012  0.00  0.00    +0.000 A 
ATOM     14  C   UNL     1       3.310   3.650  18.862  0.00  0.00    +0.000 A 
ATOM     15  C   UNL     1       3.456   4.585  17.864  0.00  0.00    +0.000 A 
ATOM     16  N   UNL     1       3.008   5.860  17.953  0.00  0.00    +0.000 NA
ATOM     17  C   UNL     1       1.766   8.334  17.959  0.00  0.00    +0.000 C 
ATOM     18  C   UNL     1       1.855   9.867  18.150  0.00  0.00    +0.000 C 
ENDBRANCH   4   7
BRANCH   1  24
ATOM     19  C   UNL     1      -4.917  12.530  20.111  0.00  0.00    +0.000 A 
ATOM     20  C   UNL     1      -6.277  12.226  19.912  0.00  0.00    +0.000 A 
ATOM     21  C   UNL     1      -6.689  11.418  18.855  0.00  0.00    +0.000 A 
ATOM     22  C   UNL     1      -5.746  10.940  17.962  0.00  0.00    +0.000 A 
ATOM     23  C   UNL     1      -4.402  11.292  18.113  0.00  0.00    +0.000 A 
ATOM     24  C   UNL     1      -3.950  12.104  19.180  0.00  0.00    +0.000 A 
BRANCH  19  26
ATOM     25  C   UNL     1      -5.561  14.090  21.748  0.00  0.00    +0.000 C 
ATOM     26  O   UNL     1      -4.530  13.260  21.202  0.00  0.00    +0.000 OA
ENDBRANCH  19  26
ENDBRANCH   1  24
TORSDOF 3
ENDMDL
MODEL 6
REMARK VINA RESULT:      -6.4      7.258     11.116
REMARK  Name = 
REMARK  4 active torsions:
REMARK  status: ('A' for Active; 'I' for Inactive)
REMARK    1  A    between atoms: C_1  and  O_2
REMARK    2  A    between atoms: O_2  and  C_3
REMARK    3  A    between atoms: C_8  and  C_9
REMARK    4  A    between atoms: C_12  and  N_13
REMARK                            x       y       z     vdW  Elec       q    Type
REMARK                         _______ _______ _______ _____ _____    ______ ____
ROOT
ATOM      1  C   UNL     1       2.661  15.590  18.549  0.00  0.00    +0.000 C 
ATOM      2  C   UNL     1       3.305  16.032  19.866  0.00  0.00    +0.000 C 
ATOM      3  C   UNL     1       4.525  15.233  20.296  0.00  0.00    +0.000 C 
ATOM      4  C   UNL     1       5.600  14.986  19.208  0.00  0.00    +0.000 C 
ATOM      5  C   UNL     1       4.939  14.608  17.857  0.00  0.00    +0.000 C 
ATOM      6  C   UNL     1       3.702  15.393  17.446  0.00  0.00    +0.000 C 
ENDROOT
BRANCH   4   7
ATOM      7  N   UNL     1       6.614  16.087  19.149  0.00  0.00    +0.000 NA
ATOM      8  C   UNL     1       7.514  16.064  20.344  0.00  0.00    +0.000 C 
ATOM      9  C   UNL     1       8.408  14.803  20.499  0.00  0.00    +0.000 C 
ATOM     10  N   UNL     1       9.060  14.401  19.247  0.00  0.00    +0.000 N 
ATOM     11  C   UNL     1      10.087  13.469  19.239  0.00  0.00    +0.000 A 
ATOM     12  C   UNL     1      10.442  12.727  20.367  0.00  0.00    +0.000 A 
ATOM     13  C   UNL     1      11.569  11.903  20.350  0.00  0.00    +0.000 A 
ATOM     14  C   UNL     1      12.333  11.828  19.197  0.00  0.00    +0.000 A 
ATOM     15  C   UNL     1      11.908  12.550  18.105  0.00  0.00    +0.000 A 
ATOM     16  N   UNL     1      10.809  13.340  18.104  0.00  0.00    +0.000 NA
ATOM     17  C   UNL     1       8.369  14.640  17.964  0.00  0.00    +0.000 C 
ATOM     18  C   UNL     1       7.559  15.958  18.000  0.00  0.00    +0.000 C 
ENDBRANCH   4   7
BRANCH   1  24
ATOM     19  C   UNL     1       0.186  14.698  18.668  0.00  0.00    +0.000 A 
ATOM     20  C   UNL     1      -0.683  13.590  18.707  0.00  0.00    +0.000 A 
ATOM     21  C   UNL     1      -0.193  12.292  18.812  0.00  0.00    +0.000 A 
ATOM     22  C   UNL     1       1.175  12.085  18.838  0.00  0.00    +0.000 A 
ATOM     23  C   UNL     1       2.046  13.173  18.731  0.00  0.00    +0.000 A 
ATOM     24  C   UNL     1       1.580  14.505  18.631  0.00  0.00    +0.000 A 
BRANCH  19  26
ATOM     25  C   UNL     1      -0.742  16.457  19.922  0.00  0.00    +0.000 C 
ATOM     26  O   UNL     1      -0.323  15.969  18.643  0.00  0.00    +0.000 OA
ENDBRANCH  19  26
ENDBRANCH   1  24
TORSDOF 3
ENDMDL
MODEL 7
REMARK VINA RESULT:      -6.4      5.750      8.931
REMARK  Name = 
REMARK  4 active torsions:
REMARK  status: ('A' for Active; 'I' for Inactive)
REMARK    1  A    between atoms: C_1  and  O_2
REMARK    2  A    between atoms: O_2  and  C_3
REMARK    3  A    between atoms: C_8  and  C_9
REMARK    4  A    between atoms: C_12  and  N_13
REMARK                            x       y       z     vdW  Elec       q    Type
REMARK                         _______ _______ _______ _____ _____    ______ ____
ROOT
ATOM      1  C   UNL     1       0.118  12.769  20.449  0.00  0.00    +0.000 C 
ATOM      2  C   UNL     1       0.796  13.897  21.231  0.00  0.00    +0.000 C 
ATOM      3  C   UNL     1       2.301  14.006  21.046  0.00  0.00    +0.000 C 
ATOM      4  C   UNL     1       2.818  13.955  19.587  0.00  0.00    +0.000 C 
ATOM      5  C   UNL     1       2.076  12.858  18.779  0.00  0.00    +0.000 C 
ATOM      6  C   UNL     1       0.575  12.736  18.989  0.00  0.00    +0.000 C 
ENDROOT
BRANCH   4   7
ATOM      7  N   UNL     1       2.862  15.311  18.951  0.00  0.00    +0.000 NA
ATOM      8  C   UNL     1       3.535  16.308  19.839  0.00  0.00    +0.000 C 
ATOM      9  C   UNL     1       5.034  16.041  20.149  0.00  0.00    +0.000 C 
ATOM     10  N   UNL     1       5.812  15.674  18.959  0.00  0.00    +0.000 N 
ATOM     11  C   UNL     1       7.198  15.653  18.986  0.00  0.00    +0.000 A 
ATOM     12  C   UNL     1       7.933  15.795  20.165  0.00  0.00    +0.000 A 
ATOM     13  C   UNL     1       9.324  15.905  20.126  0.00  0.00    +0.000 A 
ATOM     14  C   UNL     1       9.970  15.871  18.901  0.00  0.00    +0.000 A 
ATOM     15  C   UNL     1       9.195  15.686  17.779  0.00  0.00    +0.000 A 
ATOM     16  N   UNL     1       7.848  15.562  17.805  0.00  0.00    +0.000 NA
ATOM     17  C   UNL     1       5.156  14.919  17.873  0.00  0.00    +0.000 C 
ATOM     18  C   UNL     1       3.680  15.350  17.702  0.00  0.00    +0.000 C 
ENDBRANCH   4   7
BRANCH   1  24
ATOM     19  C   UNL     1      -0.527  11.124  22.402  0.00  0.00    +0.000 A 
ATOM     20  C   UNL     1      -0.571   9.801  22.883  0.00  0.00    +0.000 A 
ATOM     21  C   UNL     1       0.015   8.756  22.174  0.00  0.00    +0.000 A 
ATOM     22  C   UNL     1       0.615   9.017  20.955  0.00  0.00    +0.000 A 
ATOM     23  C   UNL     1       0.603  10.315  20.437  0.00  0.00    +0.000 A 
ATOM     24  C   UNL     1       0.024  11.401  21.136  0.00  0.00    +0.000 A 
BRANCH  19  26
ATOM     25  C   UNL     1      -2.471  12.173  23.208  0.00  0.00    +0.000 C 
ATOM     26  O   UNL     1      -1.040  12.145  23.155  0.00  0.00    +0.000 OA
ENDBRANCH  19  26
ENDBRANCH   1  24
TORSDOF 3
ENDMDL
MODEL 8
REMARK VINA RESULT:      -6.3      1.422      1.970
REMARK  Name = 
REMARK  4 active torsions:
REMARK  status: ('A' for Active; 'I' for Inactive)
REMARK    1  A    between atoms: C_1  and  O_2
REMARK    2  A    between atoms: O_2  and  C_3
REMARK    3  A    between atoms: C_8  and  C_9
REMARK    4  A    between atoms: C_12  and  N_13
REMARK                            x       y       z     vdW  Elec       q    Type
REMARK                         _______ _______ _______ _____ _____    ______ ____
ROOT
ATOM      1  C   UNL     1       2.079   8.715  20.068  0.00  0.00    +0.000 C 
ATOM      2  C   UNL     1       1.472   9.655  19.022  0.00  0.00    +0.000 C 
ATOM      3  C   UNL     1       0.001   9.985  19.217  0.00  0.00    +0.000 C 
ATOM      4  C   UNL     1      -0.425  10.399  20.648  0.00  0.00    +0.000 C 
ATOM      5  C   UNL     1       0.250   9.488  21.707  0.00  0.00    +0.000 C 
ATOM      6  C   UNL     1       1.714   9.139  21.492  0.00  0.00    +0.000 C 
ENDROOT
BRANCH   4   7
ATOM      7  N   UNL     1      -0.289  11.873  20.878  0.00  0.00    +0.000 NA
ATOM      8  C   UNL     1      -1.176  12.652  19.960  0.00  0.00    +0.000 C 
ATOM      9  C   UNL     1      -2.703  12.431  20.139  0.00  0.00    +0.000 C 
ATOM     10  N   UNL     1      -3.128  12.450  21.544  0.00  0.00    +0.000 N 
ATOM     11  C   UNL     1      -4.469  12.530  21.888  0.00  0.00    +0.000 A 
ATOM     12  C   UNL     1      -5.497  12.415  20.950  0.00  0.00    +0.000 A 
ATOM     13  C   UNL     1      -6.824  12.640  21.321  0.00  0.00    +0.000 A 
ATOM     14  C   UNL     1      -7.111  12.977  22.634  0.00  0.00    +0.000 A 
ATOM     15  C   UNL     1      -6.060  13.032  23.520  0.00  0.00    +0.000 A 
ATOM     16  N   UNL     1      -4.771  12.801  23.177  0.00  0.00    +0.000 NA
ATOM     17  C   UNL     1      -2.202  11.956  22.583  0.00  0.00    +0.000 C 
ATOM     18  C   UNL     1      -0.734  12.301  22.238  0.00  0.00    +0.000 C 
ENDBRANCH   4   7
BRANCH   1  24
ATOM     19  C   UNL     1       2.523   6.517  18.687  0.00  0.00    +0.000 A 
ATOM     20  C   UNL     1       2.384   5.119  18.591  0.00  0.00    +0.000 A 
ATOM     21  C   UNL     1       1.634   4.403  19.521  0.00  0.00    +0.000 A 
ATOM     22  C   UNL     1       1.050   5.074  20.580  0.00  0.00    +0.000 A 
ATOM     23  C   UNL     1       1.239   6.452  20.721  0.00  0.00    +0.000 A 
ATOM     24  C   UNL     1       1.987   7.210  19.789  0.00  0.00    +0.000 A 
BRANCH  19  26
ATOM     25  C   UNL     1       4.319   6.504  17.169  0.00  0.00    +0.000 C 
ATOM     26  O   UNL     1       3.198   7.207  17.717  0.00  0.00    +0.000 OA
ENDBRANCH  19  26
ENDBRANCH   1  24
TORSDOF 3
ENDMDL
MODEL 9
REMARK VINA RESULT:      -6.3      4.116      9.638
REMARK  Name = 
REMARK  4 active torsions:
REMARK  status: ('A' for Active; 'I' for Inactive)
REMARK    1  A    between atoms: C_1  and  O_2
REMARK    2  A    between atoms: O_2  and  C_3
REMARK    3  A    between atoms: C_8  and  C_9
REMARK    4  A    between atoms: C_12  and  N_13
REMARK                            x       y       z     vdW  Elec       q    Type
REMARK                         _______ _______ _______ _____ _____    ______ ____
ROOT
ATOM      1  C   UNL     1       2.091   8.512  19.514  0.00  0.00    +0.000 C 
ATOM      2  C   UNL     1       1.982   7.100  20.097  0.00  0.00    +0.000 C 
ATOM      3  C   UNL     1       2.038   5.970  19.082  0.00  0.00    +0.000 C 
ATOM      4  C   UNL     1       3.173   6.050  18.030  0.00  0.00    +0.000 C 
ATOM      5  C   UNL     1       3.326   7.498  17.495  0.00  0.00    +0.000 C 
ATOM      6  C   UNL     1       3.241   8.626  18.512  0.00  0.00    +0.000 C 
ENDROOT
BRANCH   4   7
ATOM      7  N   UNL     1       4.435   5.395  18.503  0.00  0.00    +0.000 NA
ATOM      8  C   UNL     1       4.542   3.991  18.000  0.00  0.00    +0.000 C 
ATOM      9  C   UNL     1       4.643   3.825  16.459  0.00  0.00    +0.000 C 
ATOM     10  N   UNL     1       5.592   4.759  15.840  0.00  0.00    +0.000 N 
ATOM     11  C   UNL     1       6.010   4.593  14.528  0.00  0.00    +0.000 A 
ATOM     12  C   UNL     1       5.434   3.660  13.664  0.00  0.00    +0.000 A 
ATOM     13  C   UNL     1       5.978   3.434  12.398  0.00  0.00    +0.000 A 
ATOM     14  C   UNL     1       7.098   4.149  12.006  0.00  0.00    +0.000 A 
ATOM     15  C   UNL     1       7.593   5.085  12.885  0.00  0.00    +0.000 A 
ATOM     16  N   UNL     1       7.066   5.325  14.109  0.00  0.00    +0.000 NA
ATOM     17  C   UNL     1       5.777   6.098  16.433  0.00  0.00    +0.000 C 
ATOM     18  C   UNL     1       5.671   6.047  17.976  0.00  0.00    +0.000 C 
ENDBRANCH   4   7
BRANCH   1  24
ATOM     19  C   UNL     1      -0.100   9.918  19.915  0.00  0.00    +0.000 A 
ATOM     20  C   UNL     1      -1.249  10.521  19.366  0.00  0.00    +0.000 A 
ATOM     21  C   UNL     1      -1.593  10.334  18.030  0.00  0.00    +0.000 A 
ATOM     22  C   UNL     1      -0.768   9.577  17.218  0.00  0.00    +0.000 A 
ATOM     23  C   UNL     1       0.410   9.032  17.736  0.00  0.00    +0.000 A 
ATOM     24  C   UNL     1       0.784   9.195  19.091  0.00  0.00    +0.000 A 
BRANCH  19  26
ATOM     25  C   UNL     1      -0.464   9.076  22.079  0.00  0.00    +0.000 C 
ATOM     26  O   UNL     1       0.174  10.052  21.249  0.00  0.00    +0.000 OA
ENDBRANCH  19  26
ENDBRANCH   1  24
TORSDOF 3
ENDMDL
