MODEL 1
REMARK VINA RESULT:      -8.0      0.000      0.000
REMARK  Name = 
REMARK  15 active torsions:
REMARK  status: ('A' for Active; 'I' for Inactive)
REMARK    1  A    between atoms: C_1  and  C_2
REMARK    2  A    between atoms: C_2  and  O_4
REMARK    3  A    between atoms: O_4  and  C_5
REMARK    4  A    between atoms: C_7  and  C_8
REMARK    5  A    between atoms: C_12  and  C_13
REMARK    6  A    between atoms: C_13  and  O_15
REMARK    7  A    between atoms: C_16  and  O_17
REMARK    8  A    between atoms: C_18  and  O_19
REMARK    9  A    between atoms: C_20  and  C_21
REMARK   10  A    between atoms: C_21  and  C_22
REMARK   11  A    between atoms: C_21  and  C_23
REMARK   12  A    between atoms: C_23  and  C_24
REMARK   13  A    between atoms: C_24  and  C_25
REMARK   14  A    between atoms: C_26  and  C_27
REMARK   15  A    between atoms: C_26  and  C_28
REMARK                            x       y       z     vdW  Elec       q    Type
REMARK                         _______ _______ _______ _____ _____    ______ ____
ROOT
ATOM      1  C   UNL     1       4.710   4.198  19.251  0.00  0.00    +0.000 C 
ATOM      2  C   UNL     1       5.266   5.614  19.368  0.00  0.00    +0.000 C 
ATOM      3  C   UNL     1       6.448   5.825  18.420  0.00  0.00    +0.000 C 
ATOM      4  C   UNL     1       7.713   5.255  19.073  0.00  0.00    +0.000 C 
ATOM      5  C   UNL     1       6.235   5.233  17.033  0.00  0.00    +0.000 A 
ATOM      6  C   UNL     1       5.233   4.275  16.774  0.00  0.00    +0.000 A 
ATOM      7  C   UNL     1       5.179   3.678  15.494  0.00  0.00    +0.000 A 
ATOM      8  C   UNL     1       5.986   4.114  14.434  0.00  0.00    +0.000 A 
ATOM      9  C   UNL     1       6.928   5.103  14.680  0.00  0.00    +0.000 A 
ATOM     10  C   UNL     1       7.068   5.624  15.970  0.00  0.00    +0.000 A 
ATOM     11  C   UNL     1       4.174   3.913  17.817  0.00  0.00    +0.000 C 
ENDROOT
BRANCH   8  12
ATOM     12  C   UNL     1       5.692   3.570  13.089  0.00  0.00    +0.000 C 
ATOM     13  O   UNL     1       4.610   3.689  12.549  0.00  0.00    +0.000 OA
BRANCH  12  14
ATOM     14  O   UNL     1       6.753   2.963  12.500  0.00  0.00    +0.000 OA
ATOM     15  H   UNL     1       6.986   2.101  12.896  0.00  0.00    +0.000 HD
ENDBRANCH  12  14
ENDBRANCH   8  12
BRANCH   9  16
ATOM     16  O   UNL     1       7.740   5.630  13.707  0.00  0.00    +0.000 OA
ATOM     17  H   UNL     1       8.654   5.648  14.057  0.00  0.00    +0.000 HD
ENDBRANCH   9  16
BRANCH  10  18
ATOM     18  O   UNL     1       8.021   6.586  16.182  0.00  0.00    +0.000 OA
ATOM     19  H   UNL     1       8.514   6.660  15.342  0.00  0.00    +0.000 HD
ENDBRANCH  10  18
BRANCH  11  20
ATOM     20  C   UNL     1       2.739   4.508  17.503  0.00  0.00    +0.000 C 
ATOM     21  C   UNL     1       1.565   3.534  17.679  0.00  0.00    +0.000 C 
BRANCH  20  22
ATOM     22  C   UNL     1       2.374   5.775  18.316  0.00  0.00    +0.000 C 
BRANCH  22  23
ATOM     23  C   UNL     1       3.044   7.049  17.808  0.00  0.00    +0.000 C 
BRANCH  23  24
ATOM     24  C   UNL     1       2.047   8.159  17.632  0.00  0.00    +0.000 C 
ATOM     25  C   UNL     1       1.452   8.812  18.649  0.00  0.00    +0.000 C 
ATOM     26  C   UNL     1       1.693   8.498  20.099  0.00  0.00    +0.000 C 
ATOM     27  C   UNL     1       0.481   9.931  18.393  0.00  0.00    +0.000 C 
ENDBRANCH  23  24
ENDBRANCH  22  23
ENDBRANCH  20  22
ENDBRANCH  11  20
BRANCH   1  28
ATOM     28  O   UNL     1       3.693   3.961  20.246  0.00  0.00    +0.000 OA
BRANCH  28  30
ATOM     29  C   UNL     1       2.372   2.435  21.458  0.00  0.00    +0.000 C 
ATOM     30  C   UNL     1       3.683   2.704  20.781  0.00  0.00    +0.000 C 
ATOM     31  O   UNL     1       4.588   1.884  20.698  0.00  0.00    +0.000 OA
ENDBRANCH  28  30
ENDBRANCH   1  28
TORSDOF 10
ENDMDL
MODEL 2
REMARK VINA RESULT:      -7.3      2.314      5.012
REMARK  Name = 
REMARK  15 active torsions:
REMARK  status: ('A' for Active; 'I' for Inactive)
REMARK    1  A    between atoms: C_1  and  C_2
REMARK    2  A    between atoms: C_2  and  O_4
REMARK    3  A    between atoms: O_4  and  C_5
REMARK    4  A    between atoms: C_7  and  C_8
REMARK    5  A    between atoms: C_12  and  C_13
REMARK    6  A    between atoms: C_13  and  O_15
REMARK    7  A    between atoms: C_16  and  O_17
REMARK    8  A    between atoms: C_18  and  O_19
REMARK    9  A    between atoms: C_20  and  C_21
REMARK   10  A    between atoms: C_21  and  C_22
REMARK   11  A    between atoms: C_21  and  C_23
REMARK   12  A    between atoms: C_23  and  C_24
REMARK   13  A    between atoms: C_24  and  C_25
REMARK   14  A    between atoms: C_26  and  C_27
REMARK   15  A    between atoms: C_26  and  C_28
REMARK                            x       y       z     vdW  Elec       q    Type
REMARK                         _______ _______ _______ _____ _____    ______ ____
ROOT
ATOM      1  C   UNL     1       2.077   7.118  20.054  0.00  0.00    +0.000 C 
ATOM      2  C   UNL     1       1.453   7.215  18.664  0.00  0.00    +0.000 C 
ATOM      3  C   UNL     1       2.498   7.594  17.613  0.00  0.00    +0.000 C 
ATOM      4  C   UNL     1       2.705   9.113  17.647  0.00  0.00    +0.000 C 
ATOM      5  C   UNL     1       3.823   6.859  17.773  0.00  0.00    +0.000 A 
ATOM      6  C   UNL     1       4.173   6.199  18.969  0.00  0.00    +0.000 A 
ATOM      7  C   UNL     1       5.470   5.649  19.086  0.00  0.00    +0.000 A 
ATOM      8  C   UNL     1       6.361   5.605  18.005  0.00  0.00    +0.000 A 
ATOM      9  C   UNL     1       5.985   6.202  16.810  0.00  0.00    +0.000 A 
ATOM     10  C   UNL     1       4.748   6.847  16.714  0.00  0.00    +0.000 A 
ATOM     11  C   UNL     1       3.171   6.012  20.110  0.00  0.00    +0.000 C 
ENDROOT
BRANCH   8  12
ATOM     12  C   UNL     1       7.601   4.814  18.179  0.00  0.00    +0.000 C 
ATOM     13  O   UNL     1       8.249   4.819  19.206  0.00  0.00    +0.000 OA
BRANCH  12  14
ATOM     14  O   UNL     1       7.921   4.056  17.101  0.00  0.00    +0.000 OA
ATOM     15  H   UNL     1       8.080   3.116  17.311  0.00  0.00    +0.000 HD
ENDBRANCH  12  14
ENDBRANCH   8  12
BRANCH   9  16
ATOM     16  O   UNL     1       6.762   6.181  15.679  0.00  0.00    +0.000 OA
ATOM     17  H   UNL     1       7.568   6.708  15.859  0.00  0.00    +0.000 HD
ENDBRANCH   9  16
BRANCH  10  18
ATOM     18  O   UNL     1       4.415   7.442  15.525  0.00  0.00    +0.000 OA
ATOM     19  H   UNL     1       4.912   6.956  14.839  0.00  0.00    +0.000 HD
ENDBRANCH  10  18
BRANCH  11  20
ATOM     20  C   UNL     1       2.627   4.530  20.246  0.00  0.00    +0.000 C 
ATOM     21  C   UNL     1       2.563   3.975  21.676  0.00  0.00    +0.000 C 
BRANCH  20  22
ATOM     22  C   UNL     1       1.224   4.299  19.631  0.00  0.00    +0.000 C 
BRANCH  22  23
ATOM     23  C   UNL     1       1.208   3.283  18.493  0.00  0.00    +0.000 C 
BRANCH  23  24
ATOM     24  C   UNL     1       2.296   3.563  17.495  0.00  0.00    +0.000 C 
ATOM     25  C   UNL     1       3.422   2.834  17.376  0.00  0.00    +0.000 C 
ATOM     26  C   UNL     1       3.749   1.653  18.245  0.00  0.00    +0.000 C 
ATOM     27  C   UNL     1       4.455   3.163  16.334  0.00  0.00    +0.000 C 
ENDBRANCH  23  24
ENDBRANCH  22  23
ENDBRANCH  20  22
ENDBRANCH  11  20
BRANCH   1  28
ATOM     28  O   UNL     1       1.064   6.903  21.058  0.00  0.00    +0.000 OA
BRANCH  28  30
ATOM     29  C   UNL     1       1.520   8.977  22.074  0.00  0.00    +0.000 C 
ATOM     30  C   UNL     1       0.478   8.036  21.546  0.00  0.00    +0.000 C 
ATOM     31  O   UNL     1      -0.721   8.285  21.531  0.00  0.00    +0.000 OA
ENDBRANCH  28  30
ENDBRANCH   1  28
TORSDOF 10
ENDMDL
MODEL 3
REMARK VINA RESULT:      -7.3      0.624      1.132
REMARK  Name = 
REMARK  15 active torsions:
REMARK  status: ('A' for Active; 'I' for Inactive)
REMARK    1  A    between atoms: C_1  and  C_2
REMARK    2  A    between atoms: C_2  and  O_4
REMARK    3  A    between atoms: O_4  and  C_5
REMARK    4  A    between atoms: C_7  and  C_8
REMARK    5  A    between atoms: C_12  and  C_13
REMARK    6  A    between atoms: C_13  and  O_15
REMARK    7  A    between atoms: C_16  and  O_17
REMARK    8  A    between atoms: C_18  and  O_19
REMARK    9  A    between atoms: C_20  and  C_21
REMARK   10  A    between atoms: C_21  and  C_22
REMARK   11  A    between atoms: C_21  and  C_23
REMARK   12  A    between atoms: C_23  and  C_24
REMARK   13  A    between atoms: C_24  and  C_25
REMARK   14  A    between atoms: C_26  and  C_27
REMARK   15  A    between atoms: C_26  and  C_28
REMARK                            x       y       z     vdW  Elec       q    Type
REMARK                         _______ _______ _______ _____ _____    ______ ____
ROOT
ATOM      1  C   UNL     1       4.875   4.090  19.154  0.00  0.00    +0.000 C 
ATOM      2  C   UNL     1       5.401   5.517  19.269  0.00  0.00    +0.000 C 
ATOM      3  C   UNL     1       6.555   5.763  18.294  0.00  0.00    +0.000 C 
ATOM      4  C   UNL     1       7.847   5.216  18.911  0.00  0.00    +0.000 C 
ATOM      5  C   UNL     1       6.320   5.177  16.908  0.00  0.00    +0.000 A 
ATOM      6  C   UNL     1       5.334   4.199  16.665  0.00  0.00    +0.000 A 
ATOM      7  C   UNL     1       5.263   3.612  15.382  0.00  0.00    +0.000 A 
ATOM      8  C   UNL     1       6.033   4.074  14.307  0.00  0.00    +0.000 A 
ATOM      9  C   UNL     1       6.958   5.082  14.538  0.00  0.00    +0.000 A 
ATOM     10  C   UNL     1       7.119   5.596  15.829  0.00  0.00    +0.000 A 
ATOM     11  C   UNL     1       4.310   3.805  17.731  0.00  0.00    +0.000 C 
ENDROOT
BRANCH   8  12
ATOM     12  C   UNL     1       5.719   3.535  12.964  0.00  0.00    +0.000 C 
ATOM     13  O   UNL     1       4.622   3.637  12.451  0.00  0.00    +0.000 OA
BRANCH  12  14
ATOM     14  O   UNL     1       6.776   2.952  12.347  0.00  0.00    +0.000 OA
ATOM     15  H   UNL     1       6.566   2.574  11.471  0.00  0.00    +0.000 HD
ENDBRANCH  12  14
ENDBRANCH   8  12
BRANCH   9  16
ATOM     16  O   UNL     1       7.734   5.636  13.550  0.00  0.00    +0.000 OA
ATOM     17  H   UNL     1       7.547   6.597  13.525  0.00  0.00    +0.000 HD
ENDBRANCH   9  16
BRANCH  10  18
ATOM     18  O   UNL     1       8.054   6.578  16.026  0.00  0.00    +0.000 OA
ATOM     19  H   UNL     1       8.872   6.253  15.602  0.00  0.00    +0.000 HD
ENDBRANCH  10  18
BRANCH  11  20
ATOM     20  C   UNL     1       2.855   4.369  17.458  0.00  0.00    +0.000 C 
ATOM     21  C   UNL     1       1.698   3.495  17.964  0.00  0.00    +0.000 C 
BRANCH  20  22
ATOM     22  C   UNL     1       2.597   5.790  18.018  0.00  0.00    +0.000 C 
BRANCH  22  23
ATOM     23  C   UNL     1       1.379   5.882  18.932  0.00  0.00    +0.000 C 
BRANCH  23  24
ATOM     24  C   UNL     1       1.711   6.588  20.216  0.00  0.00    +0.000 C 
ATOM     25  C   UNL     1       1.569   7.913  20.412  0.00  0.00    +0.000 C 
ATOM     26  C   UNL     1       1.077   8.866  19.360  0.00  0.00    +0.000 C 
ATOM     27  C   UNL     1       1.900   8.543  21.737  0.00  0.00    +0.000 C 
ENDBRANCH  23  24
ENDBRANCH  22  23
ENDBRANCH  20  22
ENDBRANCH  11  20
BRANCH   1  28
ATOM     28  O   UNL     1       3.888   3.821  20.172  0.00  0.00    +0.000 OA
BRANCH  28  30
ATOM     29  C   UNL     1       2.715   2.289  21.519  0.00  0.00    +0.000 C 
ATOM     30  C   UNL     1       3.965   2.585  20.746  0.00  0.00    +0.000 C 
ATOM     31  O   UNL     1       4.897   1.799  20.630  0.00  0.00    +0.000 OA
ENDBRANCH  28  30
ENDBRANCH   1  28
TORSDOF 10
ENDMDL
MODEL 4
REMARK VINA RESULT:      -7.2      2.314      5.809
REMARK  Name = 
REMARK  15 active torsions:
REMARK  status: ('A' for Active; 'I' for Inactive)
REMARK    1  A    between atoms: C_1  and  C_2
REMARK    2  A    between atoms: C_2  and  O_4
REMARK    3  A    between atoms: O_4  and  C_5
REMARK    4  A    between atoms: C_7  and  C_8
REMARK    5  A    between atoms: C_12  and  C_13
REMARK    6  A    between atoms: C_13  and  O_15
REMARK    7  A    between atoms: C_16  and  O_17
REMARK    8  A    between atoms: C_18  and  O_19
REMARK    9  A    between atoms: C_20  and  C_21
REMARK   10  A    between atoms: C_21  and  C_22
REMARK   11  A    between atoms: C_21  and  C_23
REMARK   12  A    between atoms: C_23  and  C_24
REMARK   13  A    between atoms: C_24  and  C_25
REMARK   14  A    between atoms: C_26  and  C_27
REMARK   15  A    between atoms: C_26  and  C_28
REMARK                            x       y       z     vdW  Elec       q    Type
REMARK                         _______ _______ _______ _____ _____    ______ ____
ROOT
ATOM      1  C   UNL     1       5.464   6.293  17.441  0.00  0.00    +0.000 C 
ATOM      2  C   UNL     1       4.817   5.821  16.142  0.00  0.00    +0.000 C 
ATOM      3  C   UNL     1       4.376   4.360  16.242  0.00  0.00    +0.000 C 
ATOM      4  C   UNL     1       5.590   3.459  15.987  0.00  0.00    +0.000 C 
ATOM      5  C   UNL     1       3.706   4.011  17.565  0.00  0.00    +0.000 A 
ATOM      6  C   UNL     1       3.824   4.835  18.704  0.00  0.00    +0.000 A 
ATOM      7  C   UNL     1       3.282   4.381  19.928  0.00  0.00    +0.000 A 
ATOM      8  C   UNL     1       2.503   3.219  20.013  0.00  0.00    +0.000 A 
ATOM      9  C   UNL     1       2.338   2.446  18.873  0.00  0.00    +0.000 A 
ATOM     10  C   UNL     1       2.962   2.824  17.680  0.00  0.00    +0.000 A 
ATOM     11  C   UNL     1       4.466   6.222  18.634  0.00  0.00    +0.000 C 
ENDROOT
BRANCH   8  12
ATOM     12  C   UNL     1       1.807   2.961  21.295  0.00  0.00    +0.000 C 
ATOM     13  O   UNL     1       2.378   2.952  22.367  0.00  0.00    +0.000 OA
BRANCH  12  14
ATOM     14  O   UNL     1       0.470   2.774  21.163  0.00  0.00    +0.000 OA
ATOM     15  H   UNL     1       0.086   2.176  21.832  0.00  0.00    +0.000 HD
ENDBRANCH  12  14
ENDBRANCH   8  12
BRANCH   9  16
ATOM     16  O   UNL     1       1.564   1.313  18.836  0.00  0.00    +0.000 OA
ATOM     17  H   UNL     1       1.690   0.892  17.961  0.00  0.00    +0.000 HD
ENDBRANCH   9  16
BRANCH  10  18
ATOM     18  O   UNL     1       2.793   2.028  16.578  0.00  0.00    +0.000 OA
ATOM     19  H   UNL     1       3.432   1.295  16.680  0.00  0.00    +0.000 HD
ENDBRANCH  10  18
BRANCH  11  20
ATOM     20  C   UNL     1       3.425   7.412  18.714  0.00  0.00    +0.000 C 
ATOM     21  C   UNL     1       2.637   7.693  17.427  0.00  0.00    +0.000 C 
BRANCH  20  22
ATOM     22  C   UNL     1       2.372   7.273  19.842  0.00  0.00    +0.000 C 
BRANCH  22  23
ATOM     23  C   UNL     1       1.459   8.487  19.988  0.00  0.00    +0.000 C 
BRANCH  23  24
ATOM     24  C   UNL     1       0.947   8.621  21.394  0.00  0.00    +0.000 C 
ATOM     25  C   UNL     1       0.174   9.635  21.828  0.00  0.00    +0.000 C 
ATOM     26  C   UNL     1      -0.261  10.783  20.962  0.00  0.00    +0.000 C 
ATOM     27  C   UNL     1      -0.320   9.685  23.247  0.00  0.00    +0.000 C 
ENDBRANCH  23  24
ENDBRANCH  22  23
ENDBRANCH  20  22
ENDBRANCH  11  20
BRANCH   1  28
ATOM     28  O   UNL     1       6.007   7.622  17.292  0.00  0.00    +0.000 OA
BRANCH  28  30
ATOM     29  C   UNL     1       7.798   6.513  18.343  0.00  0.00    +0.000 C 
ATOM     30  C   UNL     1       7.306   7.768  17.685  0.00  0.00    +0.000 C 
ATOM     31  O   UNL     1       8.001   8.760  17.504  0.00  0.00    +0.000 OA
ENDBRANCH  28  30
ENDBRANCH   1  28
TORSDOF 10
ENDMDL
MODEL 5
REMARK VINA RESULT:      -7.1      0.683      1.096
REMARK  Name = 
REMARK  15 active torsions:
REMARK  status: ('A' for Active; 'I' for Inactive)
REMARK    1  A    between atoms: C_1  and  C_2
REMARK    2  A    between atoms: C_2  and  O_4
REMARK    3  A    between atoms: O_4  and  C_5
REMARK    4  A    between atoms: C_7  and  C_8
REMARK    5  A    between atoms: C_12  and  C_13
REMARK    6  A    between atoms: C_13  and  O_15
REMARK    7  A    between atoms: C_16  and  O_17
REMARK    8  A    between atoms: C_18  and  O_19
REMARK    9  A    between atoms: C_20  and  C_21
REMARK   10  A    between atoms: C_21  and  C_22
REMARK   11  A    between atoms: C_21  and  C_23
REMARK   12  A    between atoms: C_23  and  C_24
REMARK   13  A    between atoms: C_24  and  C_25
REMARK   14  A    between atoms: C_26  and  C_27
REMARK   15  A    between atoms: C_26  and  C_28
REMARK                            x       y       z     vdW  Elec       q    Type
REMARK                         _______ _______ _______ _____ _____    ______ ____
ROOT
ATOM      1  C   UNL     1       4.881   4.163  19.166  0.00  0.00    +0.000 C 
ATOM      2  C   UNL     1       5.378   5.602  19.275  0.00  0.00    +0.000 C 
ATOM      3  C   UNL     1       6.549   5.856  18.323  0.00  0.00    +0.000 C 
ATOM      4  C   UNL     1       7.837   5.343  18.978  0.00  0.00    +0.000 C 
ATOM      5  C   UNL     1       6.358   5.248  16.940  0.00  0.00    +0.000 A 
ATOM      6  C   UNL     1       5.396   4.247  16.688  0.00  0.00    +0.000 A 
ATOM      7  C   UNL     1       5.366   3.642  15.412  0.00  0.00    +0.000 A 
ATOM      8  C   UNL     1       6.153   4.104  14.349  0.00  0.00    +0.000 A 
ATOM      9  C   UNL     1       7.053   5.133  14.587  0.00  0.00    +0.000 A 
ATOM     10  C   UNL     1       7.173   5.667  15.874  0.00  0.00    +0.000 A 
ATOM     11  C   UNL     1       4.355   3.848  17.736  0.00  0.00    +0.000 C 
ENDROOT
BRANCH   8  12
ATOM     12  C   UNL     1       5.880   3.541  13.006  0.00  0.00    +0.000 C 
ATOM     13  O   UNL     1       6.757   3.134  12.269  0.00  0.00    +0.000 OA
BRANCH  12  14
ATOM     14  O   UNL     1       4.562   3.485  12.694  0.00  0.00    +0.000 OA
ATOM     15  H   UNL     1       3.988   3.224  13.441  0.00  0.00    +0.000 HD
ENDBRANCH  12  14
ENDBRANCH   8  12
BRANCH   9  16
ATOM     16  O   UNL     1       7.841   5.688  13.610  0.00  0.00    +0.000 OA
ATOM     17  H   UNL     1       8.157   4.963  13.031  0.00  0.00    +0.000 HD
ENDBRANCH   9  16
BRANCH  10  18
ATOM     18  O   UNL     1       8.085   6.669  16.079  0.00  0.00    +0.000 OA
ATOM     19  H   UNL     1       8.950   6.224  16.173  0.00  0.00    +0.000 HD
ENDBRANCH  10  18
BRANCH  11  20
ATOM     20  C   UNL     1       2.896   4.380  17.420  0.00  0.00    +0.000 C 
ATOM     21  C   UNL     1       1.800   3.308  17.346  0.00  0.00    +0.000 C 
BRANCH  20  22
ATOM     22  C   UNL     1       2.377   5.460  18.403  0.00  0.00    +0.000 C 
BRANCH  22  23
ATOM     23  C   UNL     1       2.519   6.887  17.883  0.00  0.00    +0.000 C 
BRANCH  23  24
ATOM     24  C   UNL     1       2.155   7.892  18.939  0.00  0.00    +0.000 C 
ATOM     25  C   UNL     1       1.744   7.572  20.181  0.00  0.00    +0.000 C 
ATOM     26  C   UNL     1       1.574   6.161  20.668  0.00  0.00    +0.000 C 
ATOM     27  C   UNL     1       1.420   8.638  21.192  0.00  0.00    +0.000 C 
ENDBRANCH  23  24
ENDBRANCH  22  23
ENDBRANCH  20  22
ENDBRANCH  11  20
BRANCH   1  28
ATOM     28  O   UNL     1       3.876   3.889  20.165  0.00  0.00    +0.000 OA
BRANCH  28  30
ATOM     29  C   UNL     1       2.375   2.251  20.941  0.00  0.00    +0.000 C 
ATOM     30  C   UNL     1       3.786   2.585  20.559  0.00  0.00    +0.000 C 
ATOM     31  O   UNL     1       4.705   1.776  20.570  0.00  0.00    +0.000 OA
ENDBRANCH  28  30
ENDBRANCH   1  28
TORSDOF 10
ENDMDL
MODEL 6
REMARK VINA RESULT:      -6.9      2.318      5.693
REMARK  Name = 
REMARK  15 active torsions:
REMARK  status: ('A' for Active; 'I' for Inactive)
REMARK    1  A    between atoms: C_1  and  C_2
REMARK    2  A    between atoms: C_2  and  O_4
REMARK    3  A    between atoms: O_4  and  C_5
REMARK    4  A    between atoms: C_7  and  C_8
REMARK    5  A    between atoms: C_12  and  C_13
REMARK    6  A    between atoms: C_13  and  O_15
REMARK    7  A    between atoms: C_16  and  O_17
REMARK    8  A    between atoms: C_18  and  O_19
REMARK    9  A    between atoms: C_20  and  C_21
REMARK   10  A    between atoms: C_21  and  C_22
REMARK   11  A    between atoms: C_21  and  C_23
REMARK   12  A    between atoms: C_23  and  C_24
REMARK   13  A    between atoms: C_24  and  C_25
REMARK   14  A    between atoms: C_26  and  C_27
REMARK   15  A    between atoms: C_26  and  C_28
REMARK                            x       y       z     vdW  Elec       q    Type
REMARK                         _______ _______ _______ _____ _____    ______ ____
ROOT
ATOM      1  C   UNL     1       5.437   6.420  17.508  0.00  0.00    +0.000 C 
ATOM      2  C   UNL     1       4.865   5.888  16.197  0.00  0.00    +0.000 C 
ATOM      3  C   UNL     1       4.492   4.409  16.315  0.00  0.00    +0.000 C 
ATOM      4  C   UNL     1       5.758   3.564  16.127  0.00  0.00    +0.000 C 
ATOM      5  C   UNL     1       3.789   4.057  17.620  0.00  0.00    +0.000 A 
ATOM      6  C   UNL     1       3.822   4.910  18.742  0.00  0.00    +0.000 A 
ATOM      7  C   UNL     1       3.255   4.457  19.955  0.00  0.00    +0.000 A 
ATOM      8  C   UNL     1       2.531   3.260  20.038  0.00  0.00    +0.000 A 
ATOM      9  C   UNL     1       2.448   2.455  18.912  0.00  0.00    +0.000 A 
ATOM     10  C   UNL     1       3.099   2.837  17.734  0.00  0.00    +0.000 A 
ATOM     11  C   UNL     1       4.398   6.325  18.663  0.00  0.00    +0.000 C 
ENDROOT
BRANCH   8  12
ATOM     12  C   UNL     1       1.799   2.996  21.298  0.00  0.00    +0.000 C 
ATOM     13  O   UNL     1       2.334   3.005  22.388  0.00  0.00    +0.000 OA
BRANCH  12  14
ATOM     14  O   UNL     1       0.471   2.781  21.124  0.00  0.00    +0.000 OA
ATOM     15  H   UNL     1      -0.061   3.600  21.084  0.00  0.00    +0.000 HD
ENDBRANCH  12  14
ENDBRANCH   8  12
BRANCH   9  16
ATOM     16  O   UNL     1       1.732   1.284  18.872  0.00  0.00    +0.000 OA
ATOM     17  H   UNL     1       0.815   1.484  19.150  0.00  0.00    +0.000 HD
ENDBRANCH   9  16
BRANCH  10  18
ATOM     18  O   UNL     1       3.013   2.009  16.645  0.00  0.00    +0.000 OA
ATOM     19  H   UNL     1       2.079   2.046  16.359  0.00  0.00    +0.000 HD
ENDBRANCH  10  18
BRANCH  11  20
ATOM     20  C   UNL     1       3.297   7.464  18.675  0.00  0.00    +0.000 C 
ATOM     21  C   UNL     1       2.586   7.715  17.337  0.00  0.00    +0.000 C 
BRANCH  20  22
ATOM     22  C   UNL     1       2.177   7.268  19.728  0.00  0.00    +0.000 C 
BRANCH  22  23
ATOM     23  C   UNL     1       1.828   8.536  20.502  0.00  0.00    +0.000 C 
BRANCH  23  24
ATOM     24  C   UNL     1       0.475   9.059  20.111  0.00  0.00    +0.000 C 
ATOM     25  C   UNL     1       0.275  10.122  19.308  0.00  0.00    +0.000 C 
ATOM     26  C   UNL     1       1.385  10.940  18.712  0.00  0.00    +0.000 C 
ATOM     27  C   UNL     1      -1.113  10.571  18.942  0.00  0.00    +0.000 C 
ENDBRANCH  23  24
ENDBRANCH  22  23
ENDBRANCH  20  22
ENDBRANCH  11  20
BRANCH   1  28
ATOM     28  O   UNL     1       5.919   7.770  17.348  0.00  0.00    +0.000 OA
BRANCH  28  30
ATOM     29  C   UNL     1       7.826   6.695  18.213  0.00  0.00    +0.000 C 
ATOM     30  C   UNL     1       7.220   7.971  17.710  0.00  0.00    +0.000 C 
ATOM     31  O   UNL     1       7.836   9.026  17.613  0.00  0.00    +0.000 OA
ENDBRANCH  28  30
ENDBRANCH   1  28
TORSDOF 10
ENDMDL
MODEL 7
REMARK VINA RESULT:      -6.8      2.422      5.107
REMARK  Name = 
REMARK  15 active torsions:
REMARK  status: ('A' for Active; 'I' for Inactive)
REMARK    1  A    between atoms: C_1  and  C_2
REMARK    2  A    between atoms: C_2  and  O_4
REMARK    3  A    between atoms: O_4  and  C_5
REMARK    4  A    between atoms: C_7  and  C_8
REMARK    5  A    between atoms: C_12  and  C_13
REMARK    6  A    between atoms: C_13  and  O_15
REMARK    7  A    between atoms: C_16  and  O_17
REMARK    8  A    between atoms: C_18  and  O_19
REMARK    9  A    between atoms: C_20  and  C_21
REMARK   10  A    between atoms: C_21  and  C_22
REMARK   11  A    between atoms: C_21  and  C_23
REMARK   12  A    between atoms: C_23  and  C_24
REMARK   13  A    between atoms: C_24  and  C_25
REMARK   14  A    between atoms: C_26  and  C_27
REMARK   15  A    between atoms: C_26  and  C_28
REMARK                            x       y       z     vdW  Elec       q    Type
REMARK                         _______ _______ _______ _____ _____    ______ ____
ROOT
ATOM      1  C   UNL     1       2.190   7.265  19.930  0.00  0.00    +0.000 C 
ATOM      2  C   UNL     1       1.570   7.351  18.538  0.00  0.00    +0.000 C 
ATOM      3  C   UNL     1       2.627   7.675  17.480  0.00  0.00    +0.000 C 
ATOM      4  C   UNL     1       2.879   9.187  17.481  0.00  0.00    +0.000 C 
ATOM      5  C   UNL     1       3.929   6.903  17.658  0.00  0.00    +0.000 A 
ATOM      6  C   UNL     1       4.258   6.259  18.868  0.00  0.00    +0.000 A 
ATOM      7  C   UNL     1       5.537   5.673  18.999  0.00  0.00    +0.000 A 
ATOM      8  C   UNL     1       6.427   5.579  17.920  0.00  0.00    +0.000 A 
ATOM      9  C   UNL     1       6.070   6.160  16.712  0.00  0.00    +0.000 A 
ATOM     10  C   UNL     1       4.853   6.841  16.600  0.00  0.00    +0.000 A 
ATOM     11  C   UNL     1       3.250   6.128  20.012  0.00  0.00    +0.000 C 
ENDROOT
BRANCH   8  12
ATOM     12  C   UNL     1       7.642   4.754  18.112  0.00  0.00    +0.000 C 
ATOM     13  O   UNL     1       8.113   4.057  17.236  0.00  0.00    +0.000 OA
BRANCH  12  14
ATOM     14  O   UNL     1       8.200   4.881  19.342  0.00  0.00    +0.000 OA
ATOM     15  H   UNL     1       7.653   5.384  19.975  0.00  0.00    +0.000 HD
ENDBRANCH  12  14
ENDBRANCH   8  12
BRANCH   9  16
ATOM     16  O   UNL     1       6.847   6.091  15.583  0.00  0.00    +0.000 OA
ATOM     17  H   UNL     1       6.367   6.546  14.860  0.00  0.00    +0.000 HD
ENDBRANCH   9  16
BRANCH  10  18
ATOM     18  O   UNL     1       4.540   7.419  15.398  0.00  0.00    +0.000 OA
ATOM     19  H   UNL     1       3.762   6.930  15.065  0.00  0.00    +0.000 HD
ENDBRANCH  10  18
BRANCH  11  20
ATOM     20  C   UNL     1       2.661   4.667  20.179  0.00  0.00    +0.000 C 
ATOM     21  C   UNL     1       2.588   4.141  21.620  0.00  0.00    +0.000 C 
BRANCH  20  22
ATOM     22  C   UNL     1       1.248   4.467  19.576  0.00  0.00    +0.000 C 
BRANCH  22  23
ATOM     23  C   UNL     1       1.210   3.494  18.402  0.00  0.00    +0.000 C 
BRANCH  23  24
ATOM     24  C   UNL     1       2.099   2.307  18.646  0.00  0.00    +0.000 C 
ATOM     25  C   UNL     1       3.301   2.128  18.067  0.00  0.00    +0.000 C 
ATOM     26  C   UNL     1       3.904   3.086  17.079  0.00  0.00    +0.000 C 
ATOM     27  C   UNL     1       4.145   0.924  18.382  0.00  0.00    +0.000 C 
ENDBRANCH  23  24
ENDBRANCH  22  23
ENDBRANCH  20  22
ENDBRANCH  11  20
BRANCH   1  28
ATOM     28  O   UNL     1       1.171   7.103  20.938  0.00  0.00    +0.000 OA
BRANCH  28  30
ATOM     29  C   UNL     1      -0.616   8.500  21.568  0.00  0.00    +0.000 C 
ATOM     30  C   UNL     1       0.858   8.233  21.637  0.00  0.00    +0.000 C 
ATOM     31  O   UNL     1       1.647   8.926  22.268  0.00  0.00    +0.000 OA
ENDBRANCH  28  30
ENDBRANCH   1  28
TORSDOF 10
ENDMDL
MODEL 8
REMARK VINA RESULT:      -6.8      6.029     10.460
REMARK  Name = 
REMARK  15 active torsions:
REMARK  status: ('A' for Active; 'I' for Inactive)
REMARK    1  A    between atoms: C_1  and  C_2
REMARK    2  A    between atoms: C_2  and  O_4
REMARK    3  A    between atoms: O_4  and  C_5
REMARK    4  A    between atoms: C_7  and  C_8
REMARK    5  A    between atoms: C_12  and  C_13
REMARK    6  A    between atoms: C_13  and  O_15
REMARK    7  A    between atoms: C_16  and  O_17
REMARK    8  A    between atoms: C_18  and  O_19
REMARK    9  A    between atoms: C_20  and  C_21
REMARK   10  A    between atoms: C_21  and  C_22
REMARK   11  A    between atoms: C_21  and  C_23
REMARK   12  A    between atoms: C_23  and  C_24
REMARK   13  A    between atoms: C_24  and  C_25
REMARK   14  A    between atoms: C_26  and  C_27
REMARK   15  A    between atoms: C_26  and  C_28
REMARK                            x       y       z     vdW  Elec       q    Type
REMARK                         _______ _______ _______ _____ _____    ______ ____
ROOT
ATOM      1  C   UNL     1       0.693  13.069  20.559  0.00  0.00    +0.000 C 
ATOM      2  C   UNL     1      -0.184  12.956  21.802  0.00  0.00    +0.000 C 
ATOM      3  C   UNL     1      -1.654  13.219  21.469  0.00  0.00    +0.000 C 
ATOM      4  C   UNL     1      -1.885  14.734  21.421  0.00  0.00    +0.000 C 
ATOM      5  C   UNL     1      -2.119  12.555  20.179  0.00  0.00    +0.000 A 
ATOM      6  C   UNL     1      -1.209  12.076  19.213  0.00  0.00    +0.000 A 
ATOM      7  C   UNL     1      -1.716  11.589  17.988  0.00  0.00    +0.000 A 
ATOM      8  C   UNL     1      -3.089  11.425  17.761  0.00  0.00    +0.000 A 
ATOM      9  C   UNL     1      -3.978  11.840  18.742  0.00  0.00    +0.000 A 
ATOM     10  C   UNL     1      -3.494  12.427  19.915  0.00  0.00    +0.000 A 
ATOM     11  C   UNL     1       0.296  12.016  19.483  0.00  0.00    +0.000 C 
ENDROOT
BRANCH   8  12
ATOM     12  C   UNL     1      -3.493  10.704  16.532  0.00  0.00    +0.000 C 
ATOM     13  O   UNL     1      -2.815   9.834  16.023  0.00  0.00    +0.000 OA
BRANCH  12  14
ATOM     14  O   UNL     1      -4.705  11.078  16.052  0.00  0.00    +0.000 OA
ATOM     15  H   UNL     1      -4.998  10.567  15.273  0.00  0.00    +0.000 HD
ENDBRANCH  12  14
ENDBRANCH   8  12
BRANCH   9  16
ATOM     16  O   UNL     1      -5.338  11.689  18.640  0.00  0.00    +0.000 OA
ATOM     17  H   UNL     1      -5.602  10.948  19.223  0.00  0.00    +0.000 HD
ENDBRANCH   9  16
BRANCH  10  18
ATOM     18  O   UNL     1      -4.400  12.843  20.856  0.00  0.00    +0.000 OA
ATOM     19  H   UNL     1      -4.704  12.031  21.306  0.00  0.00    +0.000 HD
ENDBRANCH  10  18
BRANCH  11  20
ATOM     20  C   UNL     1       0.840  10.551  19.740  0.00  0.00    +0.000 C 
ATOM     21  C   UNL     1      -0.103   9.619  20.514  0.00  0.00    +0.000 C 
BRANCH  20  22
ATOM     22  C   UNL     1       1.250   9.781  18.459  0.00  0.00    +0.000 C 
BRANCH  22  23
ATOM     23  C   UNL     1       1.762   8.368  18.725  0.00  0.00    +0.000 C 
BRANCH  23  24
ATOM     24  C   UNL     1       2.995   8.073  17.919  0.00  0.00    +0.000 C 
ATOM     25  C   UNL     1       3.484   6.836  17.706  0.00  0.00    +0.000 C 
ATOM     26  C   UNL     1       2.869   5.586  18.267  0.00  0.00    +0.000 C 
ATOM     27  C   UNL     1       4.713   6.620  16.866  0.00  0.00    +0.000 C 
ENDBRANCH  23  24
ENDBRANCH  22  23
ENDBRANCH  20  22
ENDBRANCH  11  20
BRANCH   1  28
ATOM     28  O   UNL     1       2.090  12.962  20.904  0.00  0.00    +0.000 OA
BRANCH  28  30
ATOM     29  C   UNL     1       2.627  15.103  20.085  0.00  0.00    +0.000 C 
ATOM     30  C   UNL     1       2.700  14.139  21.232  0.00  0.00    +0.000 C 
ATOM     31  O   UNL     1       3.208  14.404  22.314  0.00  0.00    +0.000 OA
ENDBRANCH  28  30
ENDBRANCH   1  28
TORSDOF 10
ENDMDL
MODEL 9
REMARK VINA RESULT:      -6.7      2.681      6.593
REMARK  Name = 
REMARK  15 active torsions:
REMARK  status: ('A' for Active; 'I' for Inactive)
REMARK    1  A    between atoms: C_1  and  C_2
REMARK    2  A    between atoms: C_2  and  O_4
REMARK    3  A    between atoms: O_4  and  C_5
REMARK    4  A    between atoms: C_7  and  C_8
REMARK    5  A    between atoms: C_12  and  C_13
REMARK    6  A    between atoms: C_13  and  O_15
REMARK    7  A    between atoms: C_16  and  O_17
REMARK    8  A    between atoms: C_18  and  O_19
REMARK    9  A    between atoms: C_20  and  C_21
REMARK   10  A    between atoms: C_21  and  C_22
REMARK   11  A    between atoms: C_21  and  C_23
REMARK   12  A    between atoms: C_23  and  C_24
REMARK   13  A    between atoms: C_24  and  C_25
REMARK   14  A    between atoms: C_26  and  C_27
REMARK   15  A    between atoms: C_26  and  C_28
REMARK                            x       y       z     vdW  Elec       q    Type
REMARK                         _______ _______ _______ _____ _____    ______ ____
ROOT
ATOM      1  C   UNL     1       2.186   7.881  18.179  0.00  0.00    +0.000 C 
ATOM      2  C   UNL     1       2.520   8.176  19.639  0.00  0.00    +0.000 C 
ATOM      3  C   UNL     1       2.158   6.993  20.540  0.00  0.00    +0.000 C 
ATOM      4  C   UNL     1       0.658   7.051  20.852  0.00  0.00    +0.000 C 
ATOM      5  C   UNL     1       2.543   5.639  19.958  0.00  0.00    +0.000 A 
ATOM      6  C   UNL     1       2.846   5.470  18.591  0.00  0.00    +0.000 A 
ATOM      7  C   UNL     1       3.069   4.163  18.102  0.00  0.00    +0.000 A 
ATOM      8  C   UNL     1       3.149   3.053  18.953  0.00  0.00    +0.000 A 
ATOM      9  C   UNL     1       2.913   3.236  20.308  0.00  0.00    +0.000 A 
ATOM     10  C   UNL     1       2.581   4.507  20.790  0.00  0.00    +0.000 A 
ATOM     11  C   UNL     1       2.996   6.664  17.645  0.00  0.00    +0.000 C 
ENDROOT
BRANCH   8  12
ATOM     12  C   UNL     1       3.603   1.774  18.360  0.00  0.00    +0.000 C 
ATOM     13  O   UNL     1       3.205   1.365  17.288  0.00  0.00    +0.000 OA
BRANCH  12  14
ATOM     14  O   UNL     1       4.532   1.125  19.105  0.00  0.00    +0.000 OA
ATOM     15  H   UNL     1       5.397   1.026  18.662  0.00  0.00    +0.000 HD
ENDBRANCH  12  14
ENDBRANCH   8  12
BRANCH   9  16
ATOM     16  O   UNL     1       3.007   2.227  21.233  0.00  0.00    +0.000 OA
ATOM     17  H   UNL     1       2.485   2.492  22.019  0.00  0.00    +0.000 HD
ENDBRANCH   9  16
BRANCH  10  18
ATOM     18  O   UNL     1       2.336   4.649  22.131  0.00  0.00    +0.000 OA
ATOM     19  H   UNL     1       1.372   4.787  22.210  0.00  0.00    +0.000 HD
ENDBRANCH  10  18
BRANCH  11  20
ATOM     20  C   UNL     1       4.497   6.975  17.243  0.00  0.00    +0.000 C 
ATOM     21  C   UNL     1       5.566   6.446  18.211  0.00  0.00    +0.000 C 
BRANCH  20  22
ATOM     22  C   UNL     1       4.905   6.475  15.835  0.00  0.00    +0.000 C 
BRANCH  22  23
ATOM     23  C   UNL     1       5.760   5.211  15.852  0.00  0.00    +0.000 C 
BRANCH  23  24
ATOM     24  C   UNL     1       5.463   4.335  14.669  0.00  0.00    +0.000 C 
ATOM     25  C   UNL     1       6.265   4.216  13.593  0.00  0.00    +0.000 C 
ATOM     26  C   UNL     1       7.556   4.965  13.425  0.00  0.00    +0.000 C 
ATOM     27  C   UNL     1       5.910   3.296  12.456  0.00  0.00    +0.000 C 
ENDBRANCH  23  24
ENDBRANCH  22  23
ENDBRANCH  20  22
ENDBRANCH  11  20
BRANCH   1  28
ATOM     28  O   UNL     1       2.394   9.049  17.358  0.00  0.00    +0.000 OA
BRANCH  28  30
ATOM     29  C   UNL     1       0.323   9.929  18.045  0.00  0.00    +0.000 C 
ATOM     30  C   UNL     1       1.779  10.186  17.796  0.00  0.00    +0.000 C 
ATOM     31  O   UNL     1       2.326  11.263  17.999  0.00  0.00    +0.000 OA
ENDBRANCH  28  30
ENDBRANCH   1  28
TORSDOF 10
ENDMDL
