MODEL 1
REMARK VINA RESULT:      -6.8      0.000      0.000
REMARK  Name = 
REMARK  4 active torsions:
REMARK  status: ('A' for Active; 'I' for Inactive)
REMARK    1  A    between atoms: C_1  and  C_2
REMARK    2  A    between atoms: C_2  and  O_4
REMARK    3  A    between atoms: O_4  and  C_5
REMARK    4  A    between atoms: C_5  and  N_6
REMARK                            x       y       z     vdW  Elec       q    Type
REMARK                         _______ _______ _______ _____ _____    ______ ____
ROOT
ATOM      1  N   UNL     1       4.147   3.285  18.477  0.00  0.00    +0.000 N 
ATOM      2  O   UNL     1       5.184   2.616  19.153  0.00  0.00    +0.000 OA
ATOM      3  C   UNL     1       4.686   2.197  20.381  0.00  0.00    +0.000 A 
ATOM      4  O   UNL     1       5.272   1.551  21.227  0.00  0.00    +0.000 OA
ATOM      5  C   UNL     1       3.306   2.707  20.457  0.00  0.00    +0.000 A 
ATOM      6  C   UNL     1       2.379   2.573  21.475  0.00  0.00    +0.000 A 
ATOM      7  C   UNL     1       1.137   3.176  21.286  0.00  0.00    +0.000 A 
ATOM      8  C   UNL     1       0.869   3.900  20.109  0.00  0.00    +0.000 A 
ATOM      9  C   UNL     1       1.834   4.019  19.099  0.00  0.00    +0.000 A 
ATOM     10  C   UNL     1       3.052   3.400  19.280  0.00  0.00    +0.000 A 
ENDROOT
BRANCH   1  11
ATOM     11  C   UNL     1       4.487   4.019  17.284  0.00  0.00    +0.000 C 
BRANCH  11  12
ATOM     12  O   UNL     1       5.697   4.762  17.437  0.00  0.00    +0.000 OA
BRANCH  12  14
ATOM     13  C   UNL     1       6.113   4.027  15.256  0.00  0.00    +0.000 C 
ATOM     14  C   UNL     1       6.688   4.406  16.585  0.00  0.00    +0.000 C 
ATOM     15  O   UNL     1       7.887   4.425  16.834  0.00  0.00    +0.000 OA
ENDBRANCH  12  14
ENDBRANCH  11  12
ENDBRANCH   1  11
TORSDOF 3
ENDMDL
MODEL 2
REMARK VINA RESULT:      -6.7      1.659      1.963
REMARK  Name = 
REMARK  4 active torsions:
REMARK  status: ('A' for Active; 'I' for Inactive)
REMARK    1  A    between atoms: C_1  and  C_2
REMARK    2  A    between atoms: C_2  and  O_4
REMARK    3  A    between atoms: O_4  and  C_5
REMARK    4  A    between atoms: C_5  and  N_6
REMARK                            x       y       z     vdW  Elec       q    Type
REMARK                         _______ _______ _______ _____ _____    ______ ____
ROOT
ATOM      1  N   UNL     1       4.798   4.541  18.607  0.00  0.00    +0.000 N 
ATOM      2  O   UNL     1       5.529   3.694  19.461  0.00  0.00    +0.000 OA
ATOM      3  C   UNL     1       4.698   2.641  19.823  0.00  0.00    +0.000 A 
ATOM      4  O   UNL     1       4.986   1.687  20.518  0.00  0.00    +0.000 OA
ATOM      5  C   UNL     1       3.391   2.921  19.204  0.00  0.00    +0.000 A 
ATOM      6  C   UNL     1       2.220   2.186  19.262  0.00  0.00    +0.000 A 
ATOM      7  C   UNL     1       1.114   2.698  18.586  0.00  0.00    +0.000 A 
ATOM      8  C   UNL     1       1.207   3.921  17.895  0.00  0.00    +0.000 A 
ATOM      9  C   UNL     1       2.409   4.642  17.859  0.00  0.00    +0.000 A 
ATOM     10  C   UNL     1       3.506   4.119  18.510  0.00  0.00    +0.000 A 
ENDROOT
BRANCH   1  11
ATOM     11  C   UNL     1       5.365   5.827  18.290  0.00  0.00    +0.000 C 
BRANCH  11  12
ATOM     12  O   UNL     1       5.632   5.967  16.894  0.00  0.00    +0.000 OA
BRANCH  12  14
ATOM     13  C   UNL     1       7.504   7.201  17.559  0.00  0.00    +0.000 C 
ATOM     14  C   UNL     1       6.929   6.215  16.590  0.00  0.00    +0.000 C 
ATOM     15  O   UNL     1       7.566   5.690  15.686  0.00  0.00    +0.000 OA
ENDBRANCH  12  14
ENDBRANCH  11  12
ENDBRANCH   1  11
TORSDOF 3
ENDMDL
MODEL 3
REMARK VINA RESULT:      -6.6      0.859      1.098
REMARK  Name = 
REMARK  4 active torsions:
REMARK  status: ('A' for Active; 'I' for Inactive)
REMARK    1  A    between atoms: C_1  and  C_2
REMARK    2  A    between atoms: C_2  and  O_4
REMARK    3  A    between atoms: O_4  and  C_5
REMARK    4  A    between atoms: C_5  and  N_6
REMARK                            x       y       z     vdW  Elec       q    Type
REMARK                         _______ _______ _______ _____ _____    ______ ____
ROOT
ATOM      1  N   UNL     1       4.411   4.022  18.950  0.00  0.00    +0.000 N 
ATOM      2  O   UNL     1       5.365   3.162  19.524  0.00  0.00    +0.000 OA
ATOM      3  C   UNL     1       4.714   2.384  20.475  0.00  0.00    +0.000 A 
ATOM      4  O   UNL     1       5.197   1.498  21.150  0.00  0.00    +0.000 OA
ATOM      5  C   UNL     1       3.320   2.862  20.506  0.00  0.00    +0.000 A 
ATOM      6  C   UNL     1       2.264   2.425  21.287  0.00  0.00    +0.000 A 
ATOM      7  C   UNL     1       1.042   3.072  21.120  0.00  0.00    +0.000 A 
ATOM      8  C   UNL     1       0.917   4.133  20.202  0.00  0.00    +0.000 A 
ATOM      9  C   UNL     1       2.010   4.551  19.430  0.00  0.00    +0.000 A 
ATOM     10  C   UNL     1       3.211   3.893  19.582  0.00  0.00    +0.000 A 
ENDROOT
BRANCH   1  11
ATOM     11  C   UNL     1       4.890   5.090  18.108  0.00  0.00    +0.000 C 
BRANCH  11  12
ATOM     12  O   UNL     1       5.760   4.613  17.080  0.00  0.00    +0.000 OA
BRANCH  12  14
ATOM     13  C   UNL     1       7.092   6.441  17.676  0.00  0.00    +0.000 C 
ATOM     14  C   UNL     1       7.046   5.024  17.195  0.00  0.00    +0.000 C 
ATOM     15  O   UNL     1       8.038   4.338  16.983  0.00  0.00    +0.000 OA
ENDBRANCH  12  14
ENDBRANCH  11  12
ENDBRANCH   1  11
TORSDOF 3
ENDMDL
MODEL 4
REMARK VINA RESULT:      -6.6      1.492      1.846
REMARK  Name = 
REMARK  4 active torsions:
REMARK  status: ('A' for Active; 'I' for Inactive)
REMARK    1  A    between atoms: C_1  and  C_2
REMARK    2  A    between atoms: C_2  and  O_4
REMARK    3  A    between atoms: O_4  and  C_5
REMARK    4  A    between atoms: C_5  and  N_6
REMARK                            x       y       z     vdW  Elec       q    Type
REMARK                         _______ _______ _______ _____ _____    ______ ____
ROOT
ATOM      1  N   UNL     1       4.798   4.448  18.450  0.00  0.00    +0.000 N 
ATOM      2  O   UNL     1       5.528   3.664  19.361  0.00  0.00    +0.000 OA
ATOM      3  C   UNL     1       4.680   2.668  19.834  0.00  0.00    +0.000 A 
ATOM      4  O   UNL     1       4.962   1.774  20.606  0.00  0.00    +0.000 OA
ATOM      5  C   UNL     1       3.367   2.925  19.219  0.00  0.00    +0.000 A 
ATOM      6  C   UNL     1       2.180   2.229  19.368  0.00  0.00    +0.000 A 
ATOM      7  C   UNL     1       1.072   2.706  18.671  0.00  0.00    +0.000 A 
ATOM      8  C   UNL     1       1.177   3.860  17.871  0.00  0.00    +0.000 A 
ATOM      9  C   UNL     1       2.395   4.543  17.745  0.00  0.00    +0.000 A 
ATOM     10  C   UNL     1       3.494   4.053  18.418  0.00  0.00    +0.000 A 
ENDROOT
BRANCH   1  11
ATOM     11  C   UNL     1       5.388   5.686  18.006  0.00  0.00    +0.000 C 
BRANCH  11  12
ATOM     12  O   UNL     1       6.230   5.501  16.866  0.00  0.00    +0.000 OA
BRANCH  12  14
ATOM     13  C   UNL     1       5.514   4.417  14.921  0.00  0.00    +0.000 C 
ATOM     14  C   UNL     1       5.618   5.706  15.675  0.00  0.00    +0.000 C 
ATOM     15  O   UNL     1       5.172   6.774  15.274  0.00  0.00    +0.000 OA
ENDBRANCH  12  14
ENDBRANCH  11  12
ENDBRANCH   1  11
TORSDOF 3
ENDMDL
MODEL 5
REMARK VINA RESULT:      -6.6      2.259      5.340
REMARK  Name = 
REMARK  4 active torsions:
REMARK  status: ('A' for Active; 'I' for Inactive)
REMARK    1  A    between atoms: C_1  and  C_2
REMARK    2  A    between atoms: C_2  and  O_4
REMARK    3  A    between atoms: O_4  and  C_5
REMARK    4  A    between atoms: C_5  and  N_6
REMARK                            x       y       z     vdW  Elec       q    Type
REMARK                         _______ _______ _______ _____ _____    ______ ____
ROOT
ATOM      1  N   UNL     1       4.053   5.029  18.363  0.00  0.00    +0.000 N 
ATOM      2  O   UNL     1       4.774   5.262  19.548  0.00  0.00    +0.000 OA
ATOM      3  C   UNL     1       6.128   5.207  19.236  0.00  0.00    +0.000 A 
ATOM      4  O   UNL     1       7.061   5.399  19.990  0.00  0.00    +0.000 OA
ATOM      5  C   UNL     1       6.202   4.856  17.807  0.00  0.00    +0.000 A 
ATOM      6  C   UNL     1       7.318   4.671  17.009  0.00  0.00    +0.000 A 
ATOM      7  C   UNL     1       7.096   4.325  15.678  0.00  0.00    +0.000 A 
ATOM      8  C   UNL     1       5.784   4.162  15.195  0.00  0.00    +0.000 A 
ATOM      9  C   UNL     1       4.676   4.354  16.032  0.00  0.00    +0.000 A 
ATOM     10  C   UNL     1       4.900   4.719  17.342  0.00  0.00    +0.000 A 
ENDROOT
BRANCH   1  11
ATOM     11  C   UNL     1       2.634   4.799  18.475  0.00  0.00    +0.000 C 
BRANCH  11  12
ATOM     12  O   UNL     1       2.303   3.416  18.343  0.00  0.00    +0.000 OA
BRANCH  12  14
ATOM     13  C   UNL     1       0.938   3.859  20.191  0.00  0.00    +0.000 C 
ATOM     14  C   UNL     1       1.143   3.055  18.944  0.00  0.00    +0.000 C 
ATOM     15  O   UNL     1       0.346   2.226  18.523  0.00  0.00    +0.000 OA
ENDBRANCH  12  14
ENDBRANCH  11  12
ENDBRANCH   1  11
TORSDOF 3
ENDMDL
MODEL 6
REMARK VINA RESULT:      -6.6      1.770      5.365
REMARK  Name = 
REMARK  4 active torsions:
REMARK  status: ('A' for Active; 'I' for Inactive)
REMARK    1  A    between atoms: C_1  and  C_2
REMARK    2  A    between atoms: C_2  and  O_4
REMARK    3  A    between atoms: O_4  and  C_5
REMARK    4  A    between atoms: C_5  and  N_6
REMARK                            x       y       z     vdW  Elec       q    Type
REMARK                         _______ _______ _______ _____ _____    ______ ____
ROOT
ATOM      1  N   UNL     1       4.324   4.543  18.699  0.00  0.00    +0.000 N 
ATOM      2  O   UNL     1       5.126   4.912  19.795  0.00  0.00    +0.000 OA
ATOM      3  C   UNL     1       6.406   5.163  19.315  0.00  0.00    +0.000 A 
ATOM      4  O   UNL     1       7.366   5.544  19.954  0.00  0.00    +0.000 OA
ATOM      5  C   UNL     1       6.368   4.859  17.874  0.00  0.00    +0.000 A 
ATOM      6  C   UNL     1       7.383   4.937  16.936  0.00  0.00    +0.000 A 
ATOM      7  C   UNL     1       7.069   4.571  15.629  0.00  0.00    +0.000 A 
ATOM      8  C   UNL     1       5.772   4.128  15.305  0.00  0.00    +0.000 A 
ATOM      9  C   UNL     1       4.769   4.058  16.282  0.00  0.00    +0.000 A 
ATOM     10  C   UNL     1       5.078   4.444  17.569  0.00  0.00    +0.000 A 
ENDROOT
BRANCH   1  11
ATOM     11  C   UNL     1       3.016   4.004  18.976  0.00  0.00    +0.000 C 
BRANCH  11  12
ATOM     12  O   UNL     1       3.066   2.929  19.916  0.00  0.00    +0.000 OA
BRANCH  12  14
ATOM     13  C   UNL     1       1.058   3.872  20.656  0.00  0.00    +0.000 C 
ATOM     14  C   UNL     1       2.293   3.105  21.014  0.00  0.00    +0.000 C 
ATOM     15  O   UNL     1       2.532   2.673  22.135  0.00  0.00    +0.000 OA
ENDBRANCH  12  14
ENDBRANCH  11  12
ENDBRANCH   1  11
TORSDOF 3
ENDMDL
MODEL 7
REMARK VINA RESULT:      -6.5      2.769      4.061
REMARK  Name = 
REMARK  4 active torsions:
REMARK  status: ('A' for Active; 'I' for Inactive)
REMARK    1  A    between atoms: C_1  and  C_2
REMARK    2  A    between atoms: C_2  and  O_4
REMARK    3  A    between atoms: O_4  and  C_5
REMARK    4  A    between atoms: C_5  and  N_6
REMARK                            x       y       z     vdW  Elec       q    Type
REMARK                         _______ _______ _______ _____ _____    ______ ____
ROOT
ATOM      1  N   UNL     1       6.720   4.433  15.962  0.00  0.00    +0.000 N 
ATOM      2  O   UNL     1       7.867   4.702  16.732  0.00  0.00    +0.000 OA
ATOM      3  C   UNL     1       7.484   4.714  18.068  0.00  0.00    +0.000 A 
ATOM      4  O   UNL     1       8.204   4.873  19.034  0.00  0.00    +0.000 OA
ATOM      5  C   UNL     1       6.025   4.509  18.077  0.00  0.00    +0.000 A 
ATOM      6  C   UNL     1       5.158   4.448  19.153  0.00  0.00    +0.000 A 
ATOM      7  C   UNL     1       3.807   4.257  18.869  0.00  0.00    +0.000 A 
ATOM      8  C   UNL     1       3.368   4.152  17.535  0.00  0.00    +0.000 A 
ATOM      9  C   UNL     1       4.275   4.223  16.469  0.00  0.00    +0.000 A 
ATOM     10  C   UNL     1       5.613   4.388  16.756  0.00  0.00    +0.000 A 
ENDROOT
BRANCH   1  11
ATOM     11  C   UNL     1       6.814   4.605  14.534  0.00  0.00    +0.000 C 
BRANCH  11  12
ATOM     12  O   UNL     1       6.179   3.541  13.823  0.00  0.00    +0.000 OA
BRANCH  12  14
ATOM     13  C   UNL     1       5.091   3.012  11.820  0.00  0.00    +0.000 C 
ATOM     14  C   UNL     1       6.294   3.618  12.475  0.00  0.00    +0.000 C 
ATOM     15  O   UNL     1       7.218   4.140  11.864  0.00  0.00    +0.000 OA
ENDBRANCH  12  14
ENDBRANCH  11  12
ENDBRANCH   1  11
TORSDOF 3
ENDMDL
MODEL 8
REMARK VINA RESULT:      -6.5      1.420      1.533
REMARK  Name = 
REMARK  4 active torsions:
REMARK  status: ('A' for Active; 'I' for Inactive)
REMARK    1  A    between atoms: C_1  and  C_2
REMARK    2  A    between atoms: C_2  and  O_4
REMARK    3  A    between atoms: O_4  and  C_5
REMARK    4  A    between atoms: C_5  and  N_6
REMARK                            x       y       z     vdW  Elec       q    Type
REMARK                         _______ _______ _______ _____ _____    ______ ____
ROOT
ATOM      1  N   UNL     1       4.716   4.445  18.608  0.00  0.00    +0.000 N 
ATOM      2  O   UNL     1       5.448   3.651  19.510  0.00  0.00    +0.000 OA
ATOM      3  C   UNL     1       4.618   2.620  19.934  0.00  0.00    +0.000 A 
ATOM      4  O   UNL     1       4.908   1.709  20.684  0.00  0.00    +0.000 OA
ATOM      5  C   UNL     1       3.310   2.863  19.301  0.00  0.00    +0.000 A 
ATOM      6  C   UNL     1       2.140   2.132  19.404  0.00  0.00    +0.000 A 
ATOM      7  C   UNL     1       1.033   2.602  18.701  0.00  0.00    +0.000 A 
ATOM      8  C   UNL     1       1.124   3.782  17.938  0.00  0.00    +0.000 A 
ATOM      9  C   UNL     1       2.326   4.500  17.859  0.00  0.00    +0.000 A 
ATOM     10  C   UNL     1       3.424   4.017  18.538  0.00  0.00    +0.000 A 
ENDROOT
BRANCH   1  11
ATOM     11  C   UNL     1       5.282   5.710  18.215  0.00  0.00    +0.000 C 
BRANCH  11  12
ATOM     12  O   UNL     1       6.710   5.676  18.196  0.00  0.00    +0.000 OA
BRANCH  12  14
ATOM     13  C   UNL     1       6.593   5.436  15.872  0.00  0.00    +0.000 C 
ATOM     14  C   UNL     1       7.244   5.002  17.149  0.00  0.00    +0.000 C 
ATOM     15  O   UNL     1       8.154   4.185  17.213  0.00  0.00    +0.000 OA
ENDBRANCH  12  14
ENDBRANCH  11  12
ENDBRANCH   1  11
TORSDOF 3
ENDMDL
MODEL 9
REMARK VINA RESULT:      -6.5      2.643      3.479
REMARK  Name = 
REMARK  4 active torsions:
REMARK  status: ('A' for Active; 'I' for Inactive)
REMARK    1  A    between atoms: C_1  and  C_2
REMARK    2  A    between atoms: C_2  and  O_4
REMARK    3  A    between atoms: O_4  and  C_5
REMARK    4  A    between atoms: C_5  and  N_6
REMARK                            x       y       z     vdW  Elec       q    Type
REMARK                         _______ _______ _______ _____ _____    ______ ____
ROOT
ATOM      1  N   UNL     1       4.324   6.103  17.045  0.00  0.00    +0.000 N 
ATOM      2  O   UNL     1       3.837   7.260  17.681  0.00  0.00    +0.000 OA
ATOM      3  C   UNL     1       2.830   6.869  18.555  0.00  0.00    +0.000 A 
ATOM      4  O   UNL     1       2.199   7.581  19.310  0.00  0.00    +0.000 OA
ATOM      5  C   UNL     1       2.672   5.415  18.372  0.00  0.00    +0.000 A 
ATOM      6  C   UNL     1       1.798   4.545  18.999  0.00  0.00    +0.000 A 
ATOM      7  C   UNL     1       1.854   3.206  18.618  0.00  0.00    +0.000 A 
ATOM      8  C   UNL     1       2.759   2.786  17.624  0.00  0.00    +0.000 A 
ATOM      9  C   UNL     1       3.628   3.696  17.007  0.00  0.00    +0.000 A 
ATOM     10  C   UNL     1       3.585   5.016  17.404  0.00  0.00    +0.000 A 
ENDROOT
BRANCH   1  11
ATOM     11  C   UNL     1       5.207   6.276  15.920  0.00  0.00    +0.000 C 
BRANCH  11  12
ATOM     12  O   UNL     1       6.581   6.156  16.293  0.00  0.00    +0.000 OA
BRANCH  12  14
ATOM     13  C   UNL     1       6.604   4.336  14.823  0.00  0.00    +0.000 C 
ATOM     14  C   UNL     1       7.110   4.923  16.104  0.00  0.00    +0.000 C 
ATOM     15  O   UNL     1       7.918   4.371  16.841  0.00  0.00    +0.000 OA
ENDBRANCH  12  14
ENDBRANCH  11  12
ENDBRANCH   1  11
TORSDOF 3
ENDMDL
