MODEL 1
REMARK VINA RESULT:      -7.3      0.000      0.000
REMARK  Name = 
REMARK  11 active torsions:
REMARK  status: ('A' for Active; 'I' for Inactive)
REMARK    1  A    between atoms: C_1  and  O_2
REMARK    2  A    between atoms: O_2  and  C_3
REMARK    3  A    between atoms: C_6  and  C_7
REMARK    4  A    between atoms: C_7  and  C_9
REMARK    5  A    between atoms: C_9  and  C_10
REMARK    6  A    between atoms: C_10  and  C_12
REMARK    7  A    between atoms: N_14  and  C_15
REMARK    8  A    between atoms: C_17  and  O_18
REMARK    9  A    between atoms: O_18  and  C_19
REMARK   10  A    between atoms: C_22  and  O_23
REMARK   11  A    between atoms: O_23  and  C_24
REMARK                            x       y       z     vdW  Elec       q    Type
REMARK                         _______ _______ _______ _____ _____    ______ ____
ROOT
ATOM      1  C   UNL     1       1.602   4.243  20.672  0.00  0.00    +0.000 C 
ATOM      2  O   UNL     1       0.528   4.066  20.114  0.00  0.00    +0.000 OA
ATOM      3  N   UNL     1       2.282   5.442  20.870  0.00  0.00    +0.000 N 
ATOM      4  H   UNL     1       3.208   5.330  21.264  0.00  0.00    +0.000 HD
ENDROOT
BRANCH   3   5
ATOM      5  C   UNL     1       1.834   6.740  20.515  0.00  0.00    +0.000 A 
ATOM      6  C   UNL     1       0.934   7.412  21.369  0.00  0.00    +0.000 A 
ATOM      7  C   UNL     1       0.443   8.694  21.091  0.00  0.00    +0.000 A 
ATOM      8  C   UNL     1       0.886   9.355  19.958  0.00  0.00    +0.000 A 
ATOM      9  C   UNL     1       1.791   8.723  19.109  0.00  0.00    +0.000 A 
ATOM     10  C   UNL     1       2.271   7.422  19.362  0.00  0.00    +0.000 A 
BRANCH   7  11
ATOM     11  O   UNL     1      -0.462   9.181  21.994  0.00  0.00    +0.000 OA
ATOM     12  C   UNL     1       0.045   9.542  23.274  0.00  0.00    +0.000 C 
ENDBRANCH   7  11
BRANCH  10  13
ATOM     13  O   UNL     1       3.109   7.039  18.353  0.00  0.00    +0.000 OA
ATOM     14  C   UNL     1       3.441   7.911  17.293  0.00  0.00    +0.000 C 
ENDBRANCH  10  13
ENDBRANCH   3   5
BRANCH   1  15
ATOM     15  C   UNL     1       2.328   3.030  21.248  0.00  0.00    +0.000 C 
ATOM     16  O   UNL     1       1.854   2.465  22.226  0.00  0.00    +0.000 OA
BRANCH  15  17
ATOM     17  C   UNL     1       3.569   2.568  20.509  0.00  0.00    +0.000 C 
BRANCH  17  18
ATOM     18  C   UNL     1       3.476   2.677  19.005  0.00  0.00    +0.000 C 
ATOM     19  O   UNL     1       2.683   1.999  18.359  0.00  0.00    +0.000 OA
BRANCH  18  23
ATOM     20  C   UNL     1       6.118   5.490  17.032  0.00  0.00    +0.000 A 
ATOM     21  C   UNL     1       6.178   5.284  18.410  0.00  0.00    +0.000 A 
ATOM     22  C   UNL     1       5.328   4.356  19.029  0.00  0.00    +0.000 A 
ATOM     23  C   UNL     1       4.385   3.636  18.281  0.00  0.00    +0.000 A 
ATOM     24  C   UNL     1       4.325   3.856  16.897  0.00  0.00    +0.000 A 
ATOM     25  C   UNL     1       5.184   4.780  16.278  0.00  0.00    +0.000 A 
BRANCH  20  27
ATOM     26  C   UNL     1       7.478   7.376  17.494  0.00  0.00    +0.000 C 
ATOM     27  O   UNL     1       6.977   6.438  16.547  0.00  0.00    +0.000 OA
ENDBRANCH  20  27
ENDBRANCH  18  23
ENDBRANCH  17  18
ENDBRANCH  15  17
ENDBRANCH   1  15
TORSDOF 8
ENDMDL
MODEL 2
REMARK VINA RESULT:      -6.9      2.868      7.573
REMARK  Name = 
REMARK  11 active torsions:
REMARK  status: ('A' for Active; 'I' for Inactive)
REMARK    1  A    between atoms: C_1  and  O_2
REMARK    2  A    between atoms: O_2  and  C_3
REMARK    3  A    between atoms: C_6  and  C_7
REMARK    4  A    between atoms: C_7  and  C_9
REMARK    5  A    between atoms: C_9  and  C_10
REMARK    6  A    between atoms: C_10  and  C_12
REMARK    7  A    between atoms: N_14  and  C_15
REMARK    8  A    between atoms: C_17  and  O_18
REMARK    9  A    between atoms: O_18  and  C_19
REMARK   10  A    between atoms: C_22  and  O_23
REMARK   11  A    between atoms: O_23  and  C_24
REMARK                            x       y       z     vdW  Elec       q    Type
REMARK                         _______ _______ _______ _____ _____    ______ ____
ROOT
ATOM      1  C   UNL     1       0.666   8.193  21.522  0.00  0.00    +0.000 C 
ATOM      2  O   UNL     1      -0.489   7.900  21.246  0.00  0.00    +0.000 OA
ATOM      3  N   UNL     1       1.837   7.573  21.094  0.00  0.00    +0.000 N 
ATOM      4  H   UNL     1       2.676   7.924  21.540  0.00  0.00    +0.000 HD
ENDROOT
BRANCH   3   5
ATOM      5  C   UNL     1       1.941   6.492  20.182  0.00  0.00    +0.000 A 
ATOM      6  C   UNL     1       1.497   5.213  20.582  0.00  0.00    +0.000 A 
ATOM      7  C   UNL     1       1.565   4.093  19.744  0.00  0.00    +0.000 A 
ATOM      8  C   UNL     1       2.046   4.244  18.454  0.00  0.00    +0.000 A 
ATOM      9  C   UNL     1       2.471   5.500  18.027  0.00  0.00    +0.000 A 
ATOM     10  C   UNL     1       2.434   6.629  18.869  0.00  0.00    +0.000 A 
BRANCH   7  11
ATOM     11  O   UNL     1       1.143   2.919  20.304  0.00  0.00    +0.000 OA
ATOM     12  C   UNL     1       1.629   2.623  21.608  0.00  0.00    +0.000 C 
ENDBRANCH   7  11
BRANCH  10  13
ATOM     13  O   UNL     1       2.944   7.711  18.208  0.00  0.00    +0.000 OA
ATOM     14  C   UNL     1       2.108   8.727  17.694  0.00  0.00    +0.000 C 
ENDBRANCH  10  13
ENDBRANCH   3   5
BRANCH   1  15
ATOM     15  C   UNL     1       0.911   9.384  22.445  0.00  0.00    +0.000 C 
ATOM     16  O   UNL     1       2.003   9.498  22.988  0.00  0.00    +0.000 OA
BRANCH  15  17
ATOM     17  C   UNL     1      -0.217  10.390  22.567  0.00  0.00    +0.000 C 
BRANCH  17  18
ATOM     18  C   UNL     1      -0.148  11.529  21.578  0.00  0.00    +0.000 C 
ATOM     19  O   UNL     1       0.629  12.467  21.730  0.00  0.00    +0.000 OA
BRANCH  18  23
ATOM     20  C   UNL     1      -2.679  11.451  18.061  0.00  0.00    +0.000 A 
ATOM     21  C   UNL     1      -1.457  10.780  18.088  0.00  0.00    +0.000 A 
ATOM     22  C   UNL     1      -0.660  10.801  19.242  0.00  0.00    +0.000 A 
ATOM     23  C   UNL     1      -1.061  11.516  20.379  0.00  0.00    +0.000 A 
ATOM     24  C   UNL     1      -2.287  12.197  20.340  0.00  0.00    +0.000 A 
ATOM     25  C   UNL     1      -3.089  12.167  19.186  0.00  0.00    +0.000 A 
BRANCH  20  27
ATOM     26  C   UNL     1      -2.705  10.678  15.819  0.00  0.00    +0.000 C 
ATOM     27  O   UNL     1      -3.355  11.382  16.873  0.00  0.00    +0.000 OA
ENDBRANCH  20  27
ENDBRANCH  18  23
ENDBRANCH  17  18
ENDBRANCH  15  17
ENDBRANCH   1  15
TORSDOF 8
ENDMDL
MODEL 3
REMARK VINA RESULT:      -6.8      1.741      2.237
REMARK  Name = 
REMARK  11 active torsions:
REMARK  status: ('A' for Active; 'I' for Inactive)
REMARK    1  A    between atoms: C_1  and  O_2
REMARK    2  A    between atoms: O_2  and  C_3
REMARK    3  A    between atoms: C_6  and  C_7
REMARK    4  A    between atoms: C_7  and  C_9
REMARK    5  A    between atoms: C_9  and  C_10
REMARK    6  A    between atoms: C_10  and  C_12
REMARK    7  A    between atoms: N_14  and  C_15
REMARK    8  A    between atoms: C_17  and  O_18
REMARK    9  A    between atoms: O_18  and  C_19
REMARK   10  A    between atoms: C_22  and  O_23
REMARK   11  A    between atoms: O_23  and  C_24
REMARK                            x       y       z     vdW  Elec       q    Type
REMARK                         _______ _______ _______ _____ _____    ______ ____
ROOT
ATOM      1  C   UNL     1       2.411   4.845  19.587  0.00  0.00    +0.000 C 
ATOM      2  O   UNL     1       1.680   4.619  18.633  0.00  0.00    +0.000 OA
ATOM      3  N   UNL     1       2.692   6.070  20.185  0.00  0.00    +0.000 N 
ATOM      4  H   UNL     1       3.413   6.026  20.894  0.00  0.00    +0.000 HD
ENDROOT
BRANCH   3   5
ATOM      5  C   UNL     1       2.130   7.328  19.848  0.00  0.00    +0.000 A 
ATOM      6  C   UNL     1       1.418   8.046  20.832  0.00  0.00    +0.000 A 
ATOM      7  C   UNL     1       0.831   9.294  20.581  0.00  0.00    +0.000 A 
ATOM      8  C   UNL     1       0.987   9.873  19.333  0.00  0.00    +0.000 A 
ATOM      9  C   UNL     1       1.704   9.195  18.350  0.00  0.00    +0.000 A 
ATOM     10  C   UNL     1       2.275   7.927  18.581  0.00  0.00    +0.000 A 
BRANCH   7  11
ATOM     11  O   UNL     1       0.132   9.831  21.627  0.00  0.00    +0.000 OA
ATOM     12  C   UNL     1      -0.651  10.985  21.345  0.00  0.00    +0.000 C 
ENDBRANCH   7  11
BRANCH  10  13
ATOM     13  O   UNL     1       2.881   7.483  17.439  0.00  0.00    +0.000 OA
ATOM     14  C   UNL     1       4.283   7.537  17.275  0.00  0.00    +0.000 C 
ENDBRANCH  10  13
ENDBRANCH   3   5
BRANCH   1  15
ATOM     15  C   UNL     1       3.127   3.668  20.245  0.00  0.00    +0.000 C 
ATOM     16  O   UNL     1       2.642   3.169  21.253  0.00  0.00    +0.000 OA
BRANCH  15  17
ATOM     17  C   UNL     1       4.373   3.156  19.549  0.00  0.00    +0.000 C 
BRANCH  17  18
ATOM     18  C   UNL     1       5.292   4.241  19.038  0.00  0.00    +0.000 C 
ATOM     19  O   UNL     1       5.759   5.093  19.787  0.00  0.00    +0.000 OA
BRANCH  18  23
ATOM     20  C   UNL     1       6.386   4.419  14.848  0.00  0.00    +0.000 A 
ATOM     21  C   UNL     1       7.302   4.736  15.850  0.00  0.00    +0.000 A 
ATOM     22  C   UNL     1       6.937   4.654  17.201  0.00  0.00    +0.000 A 
ATOM     23  C   UNL     1       5.638   4.279  17.572  0.00  0.00    +0.000 A 
ATOM     24  C   UNL     1       4.718   3.971  16.558  0.00  0.00    +0.000 A 
ATOM     25  C   UNL     1       5.090   4.045  15.205  0.00  0.00    +0.000 A 
BRANCH  20  27
ATOM     26  C   UNL     1       6.389   3.600  12.623  0.00  0.00    +0.000 C 
ATOM     27  O   UNL     1       6.849   4.561  13.569  0.00  0.00    +0.000 OA
ENDBRANCH  20  27
ENDBRANCH  18  23
ENDBRANCH  17  18
ENDBRANCH  15  17
ENDBRANCH   1  15
TORSDOF 8
ENDMDL
MODEL 4
REMARK VINA RESULT:      -6.7      3.442      6.296
REMARK  Name = 
REMARK  11 active torsions:
REMARK  status: ('A' for Active; 'I' for Inactive)
REMARK    1  A    between atoms: C_1  and  O_2
REMARK    2  A    between atoms: O_2  and  C_3
REMARK    3  A    between atoms: C_6  and  C_7
REMARK    4  A    between atoms: C_7  and  C_9
REMARK    5  A    between atoms: C_9  and  C_10
REMARK    6  A    between atoms: C_10  and  C_12
REMARK    7  A    between atoms: N_14  and  C_15
REMARK    8  A    between atoms: C_17  and  O_18
REMARK    9  A    between atoms: O_18  and  C_19
REMARK   10  A    between atoms: C_22  and  O_23
REMARK   11  A    between atoms: O_23  and  C_24
REMARK                            x       y       z     vdW  Elec       q    Type
REMARK                         _______ _______ _______ _____ _____    ______ ____
ROOT
ATOM      1  C   UNL     1       6.465   5.452  19.038  0.00  0.00    +0.000 C 
ATOM      2  O   UNL     1       6.876   5.046  20.116  0.00  0.00    +0.000 OA
ATOM      3  N   UNL     1       5.153   5.490  18.576  0.00  0.00    +0.000 N 
ATOM      4  H   UNL     1       5.066   5.769  17.606  0.00  0.00    +0.000 HD
ENDROOT
BRANCH   3   5
ATOM      5  C   UNL     1       3.988   5.118  19.295  0.00  0.00    +0.000 A 
ATOM      6  C   UNL     1       3.100   6.126  19.728  0.00  0.00    +0.000 A 
ATOM      7  C   UNL     1       1.929   5.844  20.444  0.00  0.00    +0.000 A 
ATOM      8  C   UNL     1       1.599   4.525  20.705  0.00  0.00    +0.000 A 
ATOM      9  C   UNL     1       2.449   3.510  20.270  0.00  0.00    +0.000 A 
ATOM     10  C   UNL     1       3.644   3.781  19.573  0.00  0.00    +0.000 A 
BRANCH   7  11
ATOM     11  O   UNL     1       1.206   6.938  20.834  0.00  0.00    +0.000 OA
ATOM     12  C   UNL     1       1.655   8.202  20.358  0.00  0.00    +0.000 C 
ENDBRANCH   7  11
BRANCH  10  13
ATOM     13  O   UNL     1       4.293   2.609  19.306  0.00  0.00    +0.000 OA
ATOM     14  C   UNL     1       4.752   1.763  20.339  0.00  0.00    +0.000 C 
ENDBRANCH  10  13
ENDBRANCH   3   5
BRANCH   1  15
ATOM     15  C   UNL     1       7.479   6.002  18.038  0.00  0.00    +0.000 C 
ATOM     16  O   UNL     1       7.571   5.472  16.937  0.00  0.00    +0.000 OA
BRANCH  15  17
ATOM     17  C   UNL     1       8.262   7.226  18.469  0.00  0.00    +0.000 C 
BRANCH  17  18
ATOM     18  C   UNL     1       7.814   8.514  17.818  0.00  0.00    +0.000 C 
ATOM     19  O   UNL     1       6.935   8.530  16.963  0.00  0.00    +0.000 OA
BRANCH  18  23
ATOM     20  C   UNL     1       9.722  12.188  19.102  0.00  0.00    +0.000 A 
ATOM     21  C   UNL     1       9.891  10.998  19.810  0.00  0.00    +0.000 A 
ATOM     22  C   UNL     1       9.281   9.815  19.369  0.00  0.00    +0.000 A 
ATOM     23  C   UNL     1       8.470   9.808  18.225  0.00  0.00    +0.000 A 
ATOM     24  C   UNL     1       8.297  11.011  17.525  0.00  0.00    +0.000 A 
ATOM     25  C   UNL     1       8.917  12.194  17.963  0.00  0.00    +0.000 A 
BRANCH  20  27
ATOM     26  C   UNL     1       9.924  14.550  19.151  0.00  0.00    +0.000 C 
ATOM     27  O   UNL     1      10.343  13.281  19.643  0.00  0.00    +0.000 OA
ENDBRANCH  20  27
ENDBRANCH  18  23
ENDBRANCH  17  18
ENDBRANCH  15  17
ENDBRANCH   1  15
TORSDOF 8
ENDMDL
MODEL 5
REMARK VINA RESULT:      -6.7      2.352      6.966
REMARK  Name = 
REMARK  11 active torsions:
REMARK  status: ('A' for Active; 'I' for Inactive)
REMARK    1  A    between atoms: C_1  and  O_2
REMARK    2  A    between atoms: O_2  and  C_3
REMARK    3  A    between atoms: C_6  and  C_7
REMARK    4  A    between atoms: C_7  and  C_9
REMARK    5  A    between atoms: C_9  and  C_10
REMARK    6  A    between atoms: C_10  and  C_12
REMARK    7  A    between atoms: N_14  and  C_15
REMARK    8  A    between atoms: C_17  and  O_18
REMARK    9  A    between atoms: O_18  and  C_19
REMARK   10  A    between atoms: C_22  and  O_23
REMARK   11  A    between atoms: O_23  and  C_24
REMARK                            x       y       z     vdW  Elec       q    Type
REMARK                         _______ _______ _______ _____ _____    ______ ____
ROOT
ATOM      1  C   UNL     1       3.510   3.583  17.405  0.00  0.00    +0.000 C 
ATOM      2  O   UNL     1       3.991   2.471  17.569  0.00  0.00    +0.000 OA
ATOM      3  N   UNL     1       4.022   4.641  16.660  0.00  0.00    +0.000 N 
ATOM      4  H   UNL     1       3.501   5.504  16.758  0.00  0.00    +0.000 HD
ENDROOT
BRANCH   3   5
ATOM      5  C   UNL     1       5.199   4.632  15.869  0.00  0.00    +0.000 A 
ATOM      6  C   UNL     1       5.147   4.084  14.569  0.00  0.00    +0.000 A 
ATOM      7  C   UNL     1       6.264   4.034  13.725  0.00  0.00    +0.000 A 
ATOM      8  C   UNL     1       7.461   4.580  14.157  0.00  0.00    +0.000 A 
ATOM      9  C   UNL     1       7.533   5.146  15.428  0.00  0.00    +0.000 A 
ATOM     10  C   UNL     1       6.425   5.177  16.298  0.00  0.00    +0.000 A 
BRANCH   7  11
ATOM     11  O   UNL     1       6.057   3.424  12.519  0.00  0.00    +0.000 OA
ATOM     12  C   UNL     1       4.711   3.361  12.059  0.00  0.00    +0.000 C 
ENDBRANCH   7  11
BRANCH  10  13
ATOM     13  O   UNL     1       6.790   5.751  17.483  0.00  0.00    +0.000 OA
ATOM     14  C   UNL     1       7.272   7.077  17.548  0.00  0.00    +0.000 C 
ENDBRANCH  10  13
ENDBRANCH   3   5
BRANCH   1  15
ATOM     15  C   UNL     1       2.176   3.901  18.076  0.00  0.00    +0.000 C 
ATOM     16  O   UNL     1       1.137   3.574  17.515  0.00  0.00    +0.000 OA
BRANCH  15  17
ATOM     17  C   UNL     1       2.243   4.551  19.444  0.00  0.00    +0.000 C 
BRANCH  17  18
ATOM     18  C   UNL     1       3.083   5.805  19.499  0.00  0.00    +0.000 C 
ATOM     19  O   UNL     1       4.289   5.763  19.719  0.00  0.00    +0.000 OA
BRANCH  18  23
ATOM     20  C   UNL     1       1.110   9.631  18.989  0.00  0.00    +0.000 A 
ATOM     21  C   UNL     1       1.099   8.969  20.216  0.00  0.00    +0.000 A 
ATOM     22  C   UNL     1       1.759   7.740  20.368  0.00  0.00    +0.000 A 
ATOM     23  C   UNL     1       2.419   7.141  19.285  0.00  0.00    +0.000 A 
ATOM     24  C   UNL     1       2.417   7.809  18.051  0.00  0.00    +0.000 A 
ATOM     25  C   UNL     1       1.763   9.045  17.904  0.00  0.00    +0.000 A 
BRANCH  20  27
ATOM     26  C   UNL     1      -0.997  10.707  19.141  0.00  0.00    +0.000 C 
ATOM     27  O   UNL     1       0.411  10.806  18.955  0.00  0.00    +0.000 OA
ENDBRANCH  20  27
ENDBRANCH  18  23
ENDBRANCH  17  18
ENDBRANCH  15  17
ENDBRANCH   1  15
TORSDOF 8
ENDMDL
MODEL 6
REMARK VINA RESULT:      -6.7      4.617      8.056
REMARK  Name = 
REMARK  11 active torsions:
REMARK  status: ('A' for Active; 'I' for Inactive)
REMARK    1  A    between atoms: C_1  and  O_2
REMARK    2  A    between atoms: O_2  and  C_3
REMARK    3  A    between atoms: C_6  and  C_7
REMARK    4  A    between atoms: C_7  and  C_9
REMARK    5  A    between atoms: C_9  and  C_10
REMARK    6  A    between atoms: C_10  and  C_12
REMARK    7  A    between atoms: N_14  and  C_15
REMARK    8  A    between atoms: C_17  and  O_18
REMARK    9  A    between atoms: O_18  and  C_19
REMARK   10  A    between atoms: C_22  and  O_23
REMARK   11  A    between atoms: O_23  and  C_24
REMARK                            x       y       z     vdW  Elec       q    Type
REMARK                         _______ _______ _______ _____ _____    ______ ____
ROOT
ATOM      1  C   UNL     1       8.192   8.981  18.116  0.00  0.00    +0.000 C 
ATOM      2  O   UNL     1       7.645   9.728  17.318  0.00  0.00    +0.000 OA
ATOM      3  N   UNL     1       9.154   9.296  19.072  0.00  0.00    +0.000 N 
ATOM      4  H   UNL     1       9.541   8.491  19.548  0.00  0.00    +0.000 HD
ENDROOT
BRANCH   3   5
ATOM      5  C   UNL     1       9.664  10.586  19.368  0.00  0.00    +0.000 A 
ATOM      6  C   UNL     1      10.396  11.277  18.378  0.00  0.00    +0.000 A 
ATOM      7  C   UNL     1      10.935  12.553  18.590  0.00  0.00    +0.000 A 
ATOM      8  C   UNL     1      10.711  13.187  19.801  0.00  0.00    +0.000 A 
ATOM      9  C   UNL     1       9.974  12.535  20.787  0.00  0.00    +0.000 A 
ATOM     10  C   UNL     1       9.450  11.240  20.597  0.00  0.00    +0.000 A 
BRANCH   7  11
ATOM     11  O   UNL     1      11.661  13.060  17.548  0.00  0.00    +0.000 OA
ATOM     12  C   UNL     1      11.657  14.475  17.397  0.00  0.00    +0.000 C 
ENDBRANCH   7  11
BRANCH  10  13
ATOM     13  O   UNL     1       8.811  10.834  21.734  0.00  0.00    +0.000 OA
ATOM     14  C   UNL     1       8.133  11.748  22.571  0.00  0.00    +0.000 C 
ENDBRANCH  10  13
ENDBRANCH   3   5
BRANCH   1  15
ATOM     15  C   UNL     1       7.803   7.504  18.109  0.00  0.00    +0.000 C 
ATOM     16  O   UNL     1       8.228   6.776  18.998  0.00  0.00    +0.000 OA
BRANCH  15  17
ATOM     17  C   UNL     1       6.849   7.059  17.018  0.00  0.00    +0.000 C 
BRANCH  17  18
ATOM     18  C   UNL     1       6.606   5.568  16.971  0.00  0.00    +0.000 C 
ATOM     19  O   UNL     1       7.520   4.774  16.775  0.00  0.00    +0.000 OA
BRANCH  18  23
ATOM     20  C   UNL     1       2.553   4.166  17.598  0.00  0.00    +0.000 A 
ATOM     21  C   UNL     1       2.923   5.475  17.907  0.00  0.00    +0.000 A 
ATOM     22  C   UNL     1       4.234   5.917  17.680  0.00  0.00    +0.000 A 
ATOM     23  C   UNL     1       5.205   5.047  17.163  0.00  0.00    +0.000 A 
ATOM     24  C   UNL     1       4.828   3.730  16.864  0.00  0.00    +0.000 A 
ATOM     25  C   UNL     1       3.511   3.292  17.083  0.00  0.00    +0.000 A 
BRANCH  20  27
ATOM     26  C   UNL     1       1.059   2.674  18.675  0.00  0.00    +0.000 C 
ATOM     27  O   UNL     1       1.256   3.843  17.887  0.00  0.00    +0.000 OA
ENDBRANCH  20  27
ENDBRANCH  18  23
ENDBRANCH  17  18
ENDBRANCH  15  17
ENDBRANCH   1  15
TORSDOF 8
ENDMDL
MODEL 7
REMARK VINA RESULT:      -6.7      2.867      5.214
REMARK  Name = 
REMARK  11 active torsions:
REMARK  status: ('A' for Active; 'I' for Inactive)
REMARK    1  A    between atoms: C_1  and  O_2
REMARK    2  A    between atoms: O_2  and  C_3
REMARK    3  A    between atoms: C_6  and  C_7
REMARK    4  A    between atoms: C_7  and  C_9
REMARK    5  A    between atoms: C_9  and  C_10
REMARK    6  A    between atoms: C_10  and  C_12
REMARK    7  A    between atoms: N_14  and  C_15
REMARK    8  A    between atoms: C_17  and  O_18
REMARK    9  A    between atoms: O_18  and  C_19
REMARK   10  A    between atoms: C_22  and  O_23
REMARK   11  A    between atoms: O_23  and  C_24
REMARK                            x       y       z     vdW  Elec       q    Type
REMARK                         _______ _______ _______ _____ _____    ______ ____
ROOT
ATOM      1  C   UNL     1       6.426   5.143  18.830  0.00  0.00    +0.000 C 
ATOM      2  O   UNL     1       6.816   5.313  19.977  0.00  0.00    +0.000 OA
ATOM      3  N   UNL     1       5.116   5.010  18.377  0.00  0.00    +0.000 N 
ATOM      4  H   UNL     1       5.043   4.768  17.396  0.00  0.00    +0.000 HD
ENDROOT
BRANCH   3   5
ATOM      5  C   UNL     1       3.934   5.110  19.154  0.00  0.00    +0.000 A 
ATOM      6  C   UNL     1       3.391   6.386  19.415  0.00  0.00    +0.000 A 
ATOM      7  C   UNL     1       2.229   6.572  20.175  0.00  0.00    +0.000 A 
ATOM      8  C   UNL     1       1.555   5.463  20.658  0.00  0.00    +0.000 A 
ATOM      9  C   UNL     1       2.058   4.191  20.397  0.00  0.00    +0.000 A 
ATOM     10  C   UNL     1       3.242   3.991  19.658  0.00  0.00    +0.000 A 
BRANCH   7  11
ATOM     11  O   UNL     1       1.866   7.875  20.377  0.00  0.00    +0.000 OA
ATOM     12  C   UNL     1       0.731   8.100  21.205  0.00  0.00    +0.000 C 
ENDBRANCH   7  11
BRANCH  10  13
ATOM     13  O   UNL     1       3.519   2.655  19.590  0.00  0.00    +0.000 OA
ATOM     14  C   UNL     1       2.798   1.790  18.738  0.00  0.00    +0.000 C 
ENDBRANCH  10  13
ENDBRANCH   3   5
BRANCH   1  15
ATOM     15  C   UNL     1       7.467   5.063  17.716  0.00  0.00    +0.000 C 
ATOM     16  O   UNL     1       8.217   4.096  17.674  0.00  0.00    +0.000 OA
BRANCH  15  17
ATOM     17  C   UNL     1       7.446   6.177  16.688  0.00  0.00    +0.000 C 
BRANCH  17  18
ATOM     18  C   UNL     1       6.253   6.150  15.762  0.00  0.00    +0.000 C 
ATOM     19  O   UNL     1       5.288   6.888  15.935  0.00  0.00    +0.000 OA
BRANCH  18  23
ATOM     20  C   UNL     1       6.141   3.319  12.483  0.00  0.00    +0.000 A 
ATOM     21  C   UNL     1       5.088   3.415  13.392  0.00  0.00    +0.000 A 
ATOM     22  C   UNL     1       5.133   4.350  14.436  0.00  0.00    +0.000 A 
ATOM     23  C   UNL     1       6.246   5.188  14.603  0.00  0.00    +0.000 A 
ATOM     24  C   UNL     1       7.305   5.078  13.689  0.00  0.00    +0.000 A 
ATOM     25  C   UNL     1       7.253   4.146  12.638  0.00  0.00    +0.000 A 
BRANCH  20  27
ATOM     26  C   UNL     1       7.197   1.753  11.049  0.00  0.00    +0.000 C 
ATOM     27  O   UNL     1       5.996   2.353  11.524  0.00  0.00    +0.000 OA
ENDBRANCH  20  27
ENDBRANCH  18  23
ENDBRANCH  17  18
ENDBRANCH  15  17
ENDBRANCH   1  15
TORSDOF 8
ENDMDL
MODEL 8
REMARK VINA RESULT:      -6.7      2.270      6.920
REMARK  Name = 
REMARK  11 active torsions:
REMARK  status: ('A' for Active; 'I' for Inactive)
REMARK    1  A    between atoms: C_1  and  O_2
REMARK    2  A    between atoms: O_2  and  C_3
REMARK    3  A    between atoms: C_6  and  C_7
REMARK    4  A    between atoms: C_7  and  C_9
REMARK    5  A    between atoms: C_9  and  C_10
REMARK    6  A    between atoms: C_10  and  C_12
REMARK    7  A    between atoms: N_14  and  C_15
REMARK    8  A    between atoms: C_17  and  O_18
REMARK    9  A    between atoms: O_18  and  C_19
REMARK   10  A    between atoms: C_22  and  O_23
REMARK   11  A    between atoms: O_23  and  C_24
REMARK                            x       y       z     vdW  Elec       q    Type
REMARK                         _______ _______ _______ _____ _____    ______ ____
ROOT
ATOM      1  C   UNL     1       3.202   3.663  17.647  0.00  0.00    +0.000 C 
ATOM      2  O   UNL     1       3.636   2.523  17.722  0.00  0.00    +0.000 OA
ATOM      3  N   UNL     1       3.786   4.770  17.037  0.00  0.00    +0.000 N 
ATOM      4  H   UNL     1       3.290   5.638  17.197  0.00  0.00    +0.000 HD
ENDROOT
BRANCH   3   5
ATOM      5  C   UNL     1       5.002   4.792  16.306  0.00  0.00    +0.000 A 
ATOM      6  C   UNL     1       5.053   4.165  15.043  0.00  0.00    +0.000 A 
ATOM      7  C   UNL     1       6.213   4.140  14.258  0.00  0.00    +0.000 A 
ATOM      8  C   UNL     1       7.348   4.792  14.712  0.00  0.00    +0.000 A 
ATOM      9  C   UNL     1       7.317   5.437  15.946  0.00  0.00    +0.000 A 
ATOM     10  C   UNL     1       6.166   5.445  16.758  0.00  0.00    +0.000 A 
BRANCH   7  11
ATOM     11  O   UNL     1       6.109   3.446  13.085  0.00  0.00    +0.000 OA
ATOM     12  C   UNL     1       6.935   3.881  12.010  0.00  0.00    +0.000 C 
ENDBRANCH   7  11
BRANCH  10  13
ATOM     13  O   UNL     1       6.430   6.112  17.921  0.00  0.00    +0.000 OA
ATOM     14  C   UNL     1       7.580   5.834  18.691  0.00  0.00    +0.000 C 
ENDBRANCH  10  13
ENDBRANCH   3   5
BRANCH   1  15
ATOM     15  C   UNL     1       1.847   3.965  18.283  0.00  0.00    +0.000 C 
ATOM     16  O   UNL     1       0.828   3.610  17.703  0.00  0.00    +0.000 OA
BRANCH  15  17
ATOM     17  C   UNL     1       1.870   4.636  19.643  0.00  0.00    +0.000 C 
BRANCH  17  18
ATOM     18  C   UNL     1       2.772   5.845  19.726  0.00  0.00    +0.000 C 
ATOM     19  O   UNL     1       3.972   5.737  19.952  0.00  0.00    +0.000 OA
BRANCH  18  23
ATOM     20  C   UNL     1       1.136   9.805  19.074  0.00  0.00    +0.000 A 
ATOM     21  C   UNL     1       1.814   9.127  18.062  0.00  0.00    +0.000 A 
ATOM     22  C   UNL     1       2.320   7.838  18.285  0.00  0.00    +0.000 A 
ATOM     23  C   UNL     1       2.178   7.217  19.535  0.00  0.00    +0.000 A 
ATOM     24  C   UNL     1       1.503   7.911  20.550  0.00  0.00    +0.000 A 
ATOM     25  C   UNL     1       0.988   9.199  20.321  0.00  0.00    +0.000 A 
BRANCH  20  27
ATOM     26  C   UNL     1      -0.663  11.348  18.990  0.00  0.00    +0.000 C 
ATOM     27  O   UNL     1       0.711  11.065  18.747  0.00  0.00    +0.000 OA
ENDBRANCH  20  27
ENDBRANCH  18  23
ENDBRANCH  17  18
ENDBRANCH  15  17
ENDBRANCH   1  15
TORSDOF 8
ENDMDL
MODEL 9
REMARK VINA RESULT:      -6.6      2.144      6.512
REMARK  Name = 
REMARK  11 active torsions:
REMARK  status: ('A' for Active; 'I' for Inactive)
REMARK    1  A    between atoms: C_1  and  O_2
REMARK    2  A    between atoms: O_2  and  C_3
REMARK    3  A    between atoms: C_6  and  C_7
REMARK    4  A    between atoms: C_7  and  C_9
REMARK    5  A    between atoms: C_9  and  C_10
REMARK    6  A    between atoms: C_10  and  C_12
REMARK    7  A    between atoms: N_14  and  C_15
REMARK    8  A    between atoms: C_17  and  O_18
REMARK    9  A    between atoms: O_18  and  C_19
REMARK   10  A    between atoms: C_22  and  O_23
REMARK   11  A    between atoms: O_23  and  C_24
REMARK                            x       y       z     vdW  Elec       q    Type
REMARK                         _______ _______ _______ _____ _____    ______ ____
ROOT
ATOM      1  C   UNL     1       3.988   3.258  18.541  0.00  0.00    +0.000 C 
ATOM      2  O   UNL     1       4.944   2.976  19.249  0.00  0.00    +0.000 OA
ATOM      3  N   UNL     1       3.993   3.889  17.300  0.00  0.00    +0.000 N 
ATOM      4  H   UNL     1       3.071   4.115  16.949  0.00  0.00    +0.000 HD
ENDROOT
BRANCH   3   5
ATOM      5  C   UNL     1       5.133   4.288  16.555  0.00  0.00    +0.000 A 
ATOM      6  C   UNL     1       5.288   3.812  15.235  0.00  0.00    +0.000 A 
ATOM      7  C   UNL     1       6.384   4.156  14.432  0.00  0.00    +0.000 A 
ATOM      8  C   UNL     1       7.335   5.032  14.930  0.00  0.00    +0.000 A 
ATOM      9  C   UNL     1       7.194   5.532  16.222  0.00  0.00    +0.000 A 
ATOM     10  C   UNL     1       6.112   5.172  17.050  0.00  0.00    +0.000 A 
BRANCH   7  11
ATOM     11  O   UNL     1       6.411   3.568  13.198  0.00  0.00    +0.000 OA
ATOM     12  C   UNL     1       5.182   3.536  12.481  0.00  0.00    +0.000 C 
ENDBRANCH   7  11
BRANCH  10  13
ATOM     13  O   UNL     1       6.246   5.776  18.268  0.00  0.00    +0.000 OA
ATOM     14  C   UNL     1       7.514   6.095  18.801  0.00  0.00    +0.000 C 
ENDBRANCH  10  13
ENDBRANCH   3   5
BRANCH   1  15
ATOM     15  C   UNL     1       2.590   2.889  19.030  0.00  0.00    +0.000 C 
ATOM     16  O   UNL     1       2.349   1.720  19.308  0.00  0.00    +0.000 OA
BRANCH  15  17
ATOM     17  C   UNL     1       1.607   4.031  19.199  0.00  0.00    +0.000 C 
BRANCH  17  18
ATOM     18  C   UNL     1       2.083   5.133  20.117  0.00  0.00    +0.000 C 
ATOM     19  O   UNL     1       2.554   4.889  21.223  0.00  0.00    +0.000 OA
BRANCH  18  23
ATOM     20  C   UNL     1       1.830   9.227  18.719  0.00  0.00    +0.000 A 
ATOM     21  C   UNL     1       2.322   8.212  17.900  0.00  0.00    +0.000 A 
ATOM     22  C   UNL     1       2.380   6.889  18.362  0.00  0.00    +0.000 A 
ATOM     23  C   UNL     1       1.968   6.565  19.663  0.00  0.00    +0.000 A 
ATOM     24  C   UNL     1       1.483   7.594  20.484  0.00  0.00    +0.000 A 
ATOM     25  C   UNL     1       1.418   8.918  20.015  0.00  0.00    +0.000 A 
BRANCH  20  27
ATOM     26  C   UNL     1       1.226  11.510  18.930  0.00  0.00    +0.000 C 
ATOM     27  O   UNL     1       1.847  10.480  18.168  0.00  0.00    +0.000 OA
ENDBRANCH  20  27
ENDBRANCH  18  23
ENDBRANCH  17  18
ENDBRANCH  15  17
ENDBRANCH   1  15
TORSDOF 8
ENDMDL
