MODEL 1
REMARK VINA RESULT:      -8.4      0.000      0.000
REMARK  Name = 
REMARK  9 active torsions:
REMARK  status: ('A' for Active; 'I' for Inactive)
REMARK    1  A    between atoms: C_1  and  O_2
REMARK    2  A    between atoms: O_2  and  C_3
REMARK    3  A    between atoms: C_3  and  C_5
REMARK    4  A    between atoms: C_5  and  C_6
REMARK    5  A    between atoms: C_6  and  C_7
REMARK    6  A    between atoms: C_16  and  C_17
REMARK    7  A    between atoms: C_17  and  C_18
REMARK    8  A    between atoms: C_17  and  C_19
REMARK    9  A    between atoms: C_22  and  C_23
REMARK                            x       y       z     vdW  Elec       q    Type
REMARK                         _______ _______ _______ _____ _____    ______ ____
ROOT
ATOM      1  C   UNL     1       3.658   3.577  19.073  0.00  0.00    +0.000 C 
ATOM      2  C   UNL     1       4.761   4.591  19.366  0.00  0.00    +0.000 C 
ATOM      3  C   UNL     1       5.611   5.016  18.419  0.00  0.00    +0.000 C 
ATOM      4  C   UNL     1       5.497   4.552  17.055  0.00  0.00    +0.000 C 
ATOM      5  C   UNL     1       6.240   5.254  16.191  0.00  0.00    +0.000 C 
ATOM      6  C   UNL     1       6.973   6.238  17.026  0.00  0.00    +0.000 C 
ATOM      7  O   UNL     1       7.743   7.067  16.560  0.00  0.00    +0.000 OA
ATOM      8  C   UNL     1       6.671   6.079  18.504  0.00  0.00    +0.000 C 
ATOM      9  C   UNL     1       7.923   5.659  19.257  0.00  0.00    +0.000 C 
ATOM     10  C   UNL     1       4.556   3.427  16.750  0.00  0.00    +0.000 C 
ATOM     11  N   UNL     1       4.094   2.698  17.933  0.00  0.00    +0.000 NA
ATOM     12  H   UNL     1       4.864   2.120  18.272  0.00  0.00    +0.000 HD
ENDROOT
BRANCH   5  13
ATOM     13  C   UNL     1       6.324   5.166  14.697  0.00  0.00    +0.000 C 
ATOM     14  C   UNL     1       7.772   5.029  14.219  0.00  0.00    +0.000 C 
ATOM     15  C   UNL     1       5.460   4.046  14.116  0.00  0.00    +0.000 C 
ENDBRANCH   5  13
BRANCH   1  16
ATOM     16  C   UNL     1       3.433   2.623  20.298  0.00  0.00    +0.000 C 
ATOM     17  O   UNL     1       4.315   2.129  20.992  0.00  0.00    +0.000 OA
BRANCH  16  19
ATOM     18  C   UNL     1       1.608   2.589  21.793  0.00  0.00    +0.000 C 
ATOM     19  O   UNL     1       2.095   2.375  20.470  0.00  0.00    +0.000 OA
ENDBRANCH  16  19
ENDBRANCH   1  16
BRANCH   1  20
ATOM     20  C   UNL     1       2.305   4.293  18.759  0.00  0.00    +0.000 C 
BRANCH  20  21
ATOM     21  C   UNL     1       2.177   5.755  19.162  0.00  0.00    +0.000 A 
ATOM     22  C   UNL     1       2.423   6.781  18.239  0.00  0.00    +0.000 A 
ATOM     23  C   UNL     1       2.232   8.119  18.594  0.00  0.00    +0.000 A 
ATOM     24  C   UNL     1       1.801   8.453  19.876  0.00  0.00    +0.000 A 
ATOM     25  C   UNL     1       1.573   7.446  20.811  0.00  0.00    +0.000 A 
ATOM     26  C   UNL     1       1.756   6.107  20.455  0.00  0.00    +0.000 A 
ENDBRANCH  20  21
ENDBRANCH   1  20
TORSDOF 5
ENDMDL
MODEL 2
REMARK VINA RESULT:      -8.0      0.422      1.267
REMARK  Name = 
REMARK  9 active torsions:
REMARK  status: ('A' for Active; 'I' for Inactive)
REMARK    1  A    between atoms: C_1  and  O_2
REMARK    2  A    between atoms: O_2  and  C_3
REMARK    3  A    between atoms: C_3  and  C_5
REMARK    4  A    between atoms: C_5  and  C_6
REMARK    5  A    between atoms: C_6  and  C_7
REMARK    6  A    between atoms: C_16  and  C_17
REMARK    7  A    between atoms: C_17  and  C_18
REMARK    8  A    between atoms: C_17  and  C_19
REMARK    9  A    between atoms: C_22  and  C_23
REMARK                            x       y       z     vdW  Elec       q    Type
REMARK                         _______ _______ _______ _____ _____    ______ ____
ROOT
ATOM      1  C   UNL     1       3.691   3.412  19.083  0.00  0.00    +0.000 C 
ATOM      2  C   UNL     1       4.773   4.471  19.271  0.00  0.00    +0.000 C 
ATOM      3  C   UNL     1       5.655   4.772  18.305  0.00  0.00    +0.000 C 
ATOM      4  C   UNL     1       5.596   4.120  17.016  0.00  0.00    +0.000 C 
ATOM      5  C   UNL     1       6.365   4.704  16.089  0.00  0.00    +0.000 C 
ATOM      6  C   UNL     1       7.058   5.805  16.804  0.00  0.00    +0.000 C 
ATOM      7  O   UNL     1       7.838   6.571  16.255  0.00  0.00    +0.000 OA
ATOM      8  C   UNL     1       6.702   5.850  18.278  0.00  0.00    +0.000 C 
ATOM      9  C   UNL     1       7.929   5.556  19.127  0.00  0.00    +0.000 C 
ATOM     10  C   UNL     1       4.677   2.951  16.838  0.00  0.00    +0.000 C 
ATOM     11  N   UNL     1       4.176   2.389  18.093  0.00  0.00    +0.000 NA
ATOM     12  H   UNL     1       4.937   1.873  18.538  0.00  0.00    +0.000 HD
ENDROOT
BRANCH   5  13
ATOM     13  C   UNL     1       6.506   4.410  14.626  0.00  0.00    +0.000 C 
ATOM     14  C   UNL     1       5.162   4.501  13.899  0.00  0.00    +0.000 C 
ATOM     15  C   UNL     1       7.549   5.293  13.938  0.00  0.00    +0.000 C 
ENDBRANCH   5  13
BRANCH   1  16
ATOM     16  C   UNL     1       3.428   2.636  20.421  0.00  0.00    +0.000 C 
ATOM     17  O   UNL     1       4.289   2.224  21.191  0.00  0.00    +0.000 OA
BRANCH  16  19
ATOM     18  C   UNL     1       1.609   2.675  21.924  0.00  0.00    +0.000 C 
ATOM     19  O   UNL     1       2.082   2.436  20.600  0.00  0.00    +0.000 OA
ENDBRANCH  16  19
ENDBRANCH   1  16
BRANCH   1  20
ATOM     20  C   UNL     1       2.345   4.059  18.623  0.00  0.00    +0.000 C 
BRANCH  20  21
ATOM     21  C   UNL     1       2.164   5.550  18.872  0.00  0.00    +0.000 A 
ATOM     22  C   UNL     1       1.844   6.033  20.149  0.00  0.00    +0.000 A 
ATOM     23  C   UNL     1       1.751   7.407  20.387  0.00  0.00    +0.000 A 
ATOM     24  C   UNL     1       1.968   8.317  19.355  0.00  0.00    +0.000 A 
ATOM     25  C   UNL     1       2.264   7.852  18.076  0.00  0.00    +0.000 A 
ATOM     26  C   UNL     1       2.365   6.478  17.838  0.00  0.00    +0.000 A 
ENDBRANCH  20  21
ENDBRANCH   1  20
TORSDOF 5
ENDMDL
MODEL 3
REMARK VINA RESULT:      -7.9      0.697      1.067
REMARK  Name = 
REMARK  9 active torsions:
REMARK  status: ('A' for Active; 'I' for Inactive)
REMARK    1  A    between atoms: C_1  and  O_2
REMARK    2  A    between atoms: O_2  and  C_3
REMARK    3  A    between atoms: C_3  and  C_5
REMARK    4  A    between atoms: C_5  and  C_6
REMARK    5  A    between atoms: C_6  and  C_7
REMARK    6  A    between atoms: C_16  and  C_17
REMARK    7  A    between atoms: C_17  and  C_18
REMARK    8  A    between atoms: C_17  and  C_19
REMARK    9  A    between atoms: C_22  and  C_23
REMARK                            x       y       z     vdW  Elec       q    Type
REMARK                         _______ _______ _______ _____ _____    ______ ____
ROOT
ATOM      1  C   UNL     1       3.968   3.373  19.142  0.00  0.00    +0.000 C 
ATOM      2  C   UNL     1       5.002   4.467  19.394  0.00  0.00    +0.000 C 
ATOM      3  C   UNL     1       5.771   4.964  18.412  0.00  0.00    +0.000 C 
ATOM      4  C   UNL     1       5.628   4.503  17.050  0.00  0.00    +0.000 C 
ATOM      5  C   UNL     1       6.272   5.266  16.160  0.00  0.00    +0.000 C 
ATOM      6  C   UNL     1       6.967   6.298  16.970  0.00  0.00    +0.000 C 
ATOM      7  O   UNL     1       7.648   7.187  16.478  0.00  0.00    +0.000 OA
ATOM      8  C   UNL     1       6.749   6.104  18.459  0.00  0.00    +0.000 C 
ATOM      9  C   UNL     1       8.065   5.777  19.147  0.00  0.00    +0.000 C 
ATOM     10  C   UNL     1       4.762   3.311  16.777  0.00  0.00    +0.000 C 
ATOM     11  N   UNL     1       4.414   2.540  17.972  0.00  0.00    +0.000 NA
ATOM     12  H   UNL     1       5.242   2.020  18.268  0.00  0.00    +0.000 HD
ENDROOT
BRANCH   5  13
ATOM     13  C   UNL     1       6.291   5.197  14.662  0.00  0.00    +0.000 C 
ATOM     14  C   UNL     1       7.708   4.984  14.124  0.00  0.00    +0.000 C 
ATOM     15  C   UNL     1       5.340   4.138  14.103  0.00  0.00    +0.000 C 
ENDBRANCH   5  13
BRANCH   1  16
ATOM     16  C   UNL     1       3.876   2.396  20.365  0.00  0.00    +0.000 C 
ATOM     17  O   UNL     1       3.007   2.412  21.231  0.00  0.00    +0.000 OA
BRANCH  16  19
ATOM     18  C   UNL     1       5.294   1.009  21.643  0.00  0.00    +0.000 C 
ATOM     19  O   UNL     1       4.938   1.528  20.364  0.00  0.00    +0.000 OA
ENDBRANCH  16  19
ENDBRANCH   1  16
BRANCH   1  20
ATOM     20  C   UNL     1       2.551   3.985  18.900  0.00  0.00    +0.000 C 
BRANCH  20  21
ATOM     21  C   UNL     1       2.372   5.470  19.181  0.00  0.00    +0.000 A 
ATOM     22  C   UNL     1       2.558   6.422  18.169  0.00  0.00    +0.000 A 
ATOM     23  C   UNL     1       2.321   7.778  18.414  0.00  0.00    +0.000 A 
ATOM     24  C   UNL     1       1.904   8.203  19.673  0.00  0.00    +0.000 A 
ATOM     25  C   UNL     1       1.736   7.272  20.696  0.00  0.00    +0.000 A 
ATOM     26  C   UNL     1       1.965   5.916  20.450  0.00  0.00    +0.000 A 
ENDBRANCH  20  21
ENDBRANCH   1  20
TORSDOF 5
ENDMDL
MODEL 4
REMARK VINA RESULT:      -7.9      3.040      6.736
REMARK  Name = 
REMARK  9 active torsions:
REMARK  status: ('A' for Active; 'I' for Inactive)
REMARK    1  A    between atoms: C_1  and  O_2
REMARK    2  A    between atoms: O_2  and  C_3
REMARK    3  A    between atoms: C_3  and  C_5
REMARK    4  A    between atoms: C_5  and  C_6
REMARK    5  A    between atoms: C_6  and  C_7
REMARK    6  A    between atoms: C_16  and  C_17
REMARK    7  A    between atoms: C_17  and  C_18
REMARK    8  A    between atoms: C_17  and  C_19
REMARK    9  A    between atoms: C_22  and  C_23
REMARK                            x       y       z     vdW  Elec       q    Type
REMARK                         _______ _______ _______ _____ _____    ______ ____
ROOT
ATOM      1  C   UNL     1       2.826   6.788  18.571  0.00  0.00    +0.000 C 
ATOM      2  C   UNL     1       2.238   7.126  19.938  0.00  0.00    +0.000 C 
ATOM      3  C   UNL     1       1.519   8.239  20.151  0.00  0.00    +0.000 C 
ATOM      4  C   UNL     1       1.238   9.161  19.074  0.00  0.00    +0.000 C 
ATOM      5  C   UNL     1       0.307  10.072  19.383  0.00  0.00    +0.000 C 
ATOM      6  C   UNL     1      -0.039   9.801  20.801  0.00  0.00    +0.000 C 
ATOM      7  O   UNL     1      -0.882  10.441  21.416  0.00  0.00    +0.000 OA
ATOM      8  C   UNL     1       0.781   8.669  21.389  0.00  0.00    +0.000 C 
ATOM      9  C   UNL     1       1.674   9.187  22.505  0.00  0.00    +0.000 C 
ATOM     10  C   UNL     1       1.938   8.975  17.763  0.00  0.00    +0.000 C 
ATOM     11  N   UNL     1       3.084   8.066  17.821  0.00  0.00    +0.000 NA
ATOM     12  H   UNL     1       3.849   8.548  18.295  0.00  0.00    +0.000 HD
ENDROOT
BRANCH   5  13
ATOM     13  C   UNL     1      -0.336  11.123  18.529  0.00  0.00    +0.000 C 
ATOM     14  C   UNL     1      -1.810  10.809  18.261  0.00  0.00    +0.000 C 
ATOM     15  C   UNL     1      -0.184  12.532  19.103  0.00  0.00    +0.000 C 
ENDBRANCH   5  13
BRANCH   1  16
ATOM     16  C   UNL     1       4.218   6.080  18.718  0.00  0.00    +0.000 C 
ATOM     17  O   UNL     1       4.613   5.477  19.710  0.00  0.00    +0.000 OA
BRANCH  16  19
ATOM     18  C   UNL     1       5.775   5.147  17.211  0.00  0.00    +0.000 C 
ATOM     19  O   UNL     1       4.968   6.262  17.584  0.00  0.00    +0.000 OA
ENDBRANCH  16  19
ENDBRANCH   1  16
BRANCH   1  20
ATOM     20  C   UNL     1       1.879   5.837  17.771  0.00  0.00    +0.000 C 
BRANCH  20  21
ATOM     21  C   UNL     1       1.841   4.374  18.187  0.00  0.00    +0.000 A 
ATOM     22  C   UNL     1       2.461   3.387  17.408  0.00  0.00    +0.000 A 
ATOM     23  C   UNL     1       2.486   2.055  17.833  0.00  0.00    +0.000 A 
ATOM     24  C   UNL     1       1.887   1.689  19.036  0.00  0.00    +0.000 A 
ATOM     25  C   UNL     1       1.247   2.654  19.811  0.00  0.00    +0.000 A 
ATOM     26  C   UNL     1       1.229   3.987  19.391  0.00  0.00    +0.000 A 
ENDBRANCH  20  21
ENDBRANCH   1  20
TORSDOF 5
ENDMDL
MODEL 5
REMARK VINA RESULT:      -7.6      3.029      6.651
REMARK  Name = 
REMARK  9 active torsions:
REMARK  status: ('A' for Active; 'I' for Inactive)
REMARK    1  A    between atoms: C_1  and  O_2
REMARK    2  A    between atoms: O_2  and  C_3
REMARK    3  A    between atoms: C_3  and  C_5
REMARK    4  A    between atoms: C_5  and  C_6
REMARK    5  A    between atoms: C_6  and  C_7
REMARK    6  A    between atoms: C_16  and  C_17
REMARK    7  A    between atoms: C_17  and  C_18
REMARK    8  A    between atoms: C_17  and  C_19
REMARK    9  A    between atoms: C_22  and  C_23
REMARK                            x       y       z     vdW  Elec       q    Type
REMARK                         _______ _______ _______ _____ _____    ______ ____
ROOT
ATOM      1  C   UNL     1       2.683   6.958  18.461  0.00  0.00    +0.000 C 
ATOM      2  C   UNL     1       2.269   7.206  19.909  0.00  0.00    +0.000 C 
ATOM      3  C   UNL     1       1.505   8.251  20.264  0.00  0.00    +0.000 C 
ATOM      4  C   UNL     1       1.007   9.179  19.275  0.00  0.00    +0.000 C 
ATOM      5  C   UNL     1       0.062  10.002  19.746  0.00  0.00    +0.000 C 
ATOM      6  C   UNL     1      -0.060   9.663  21.186  0.00  0.00    +0.000 C 
ATOM      7  O   UNL     1      -0.853  10.214  21.937  0.00  0.00    +0.000 OA
ATOM      8  C   UNL     1       0.919   8.583  21.608  0.00  0.00    +0.000 C 
ATOM      9  C   UNL     1       1.917   9.138  22.611  0.00  0.00    +0.000 C 
ATOM     10  C   UNL     1       1.527   9.090  17.873  0.00  0.00    +0.000 C 
ATOM     11  N   UNL     1       2.735   8.274  17.736  0.00  0.00    +0.000 NA
ATOM     12  H   UNL     1       3.521   8.802  18.119  0.00  0.00    +0.000 HD
ENDROOT
BRANCH   5  13
ATOM     13  C   UNL     1      -0.772  11.023  19.032  0.00  0.00    +0.000 C 
ATOM     14  C   UNL     1       0.057  12.241  18.616  0.00  0.00    +0.000 C 
ATOM     15  C   UNL     1      -1.519  10.447  17.829  0.00  0.00    +0.000 C 
ENDBRANCH   5  13
BRANCH   1  16
ATOM     16  C   UNL     1       4.131   6.360  18.386  0.00  0.00    +0.000 C 
ATOM     17  O   UNL     1       4.898   6.458  17.434  0.00  0.00    +0.000 OA
BRANCH  16  19
ATOM     18  C   UNL     1       5.306   4.559  19.359  0.00  0.00    +0.000 C 
ATOM     19  O   UNL     1       4.420   5.663  19.532  0.00  0.00    +0.000 OA
ENDBRANCH  16  19
ENDBRANCH   1  16
BRANCH   1  20
ATOM     20  C   UNL     1       1.707   5.958  17.761  0.00  0.00    +0.000 C 
BRANCH  20  21
ATOM     21  C   UNL     1       1.758   4.504  18.205  0.00  0.00    +0.000 A 
ATOM     22  C   UNL     1       2.346   3.523  17.394  0.00  0.00    +0.000 A 
ATOM     23  C   UNL     1       2.456   2.202  17.839  0.00  0.00    +0.000 A 
ATOM     24  C   UNL     1       1.972   1.840  19.095  0.00  0.00    +0.000 A 
ATOM     25  C   UNL     1       1.365   2.798  19.903  0.00  0.00    +0.000 A 
ATOM     26  C   UNL     1       1.262   4.120  19.462  0.00  0.00    +0.000 A 
ENDBRANCH  20  21
ENDBRANCH   1  20
TORSDOF 5
ENDMDL
MODEL 6
REMARK VINA RESULT:      -7.5      2.047      6.018
REMARK  Name = 
REMARK  9 active torsions:
REMARK  status: ('A' for Active; 'I' for Inactive)
REMARK    1  A    between atoms: C_1  and  O_2
REMARK    2  A    between atoms: O_2  and  C_3
REMARK    3  A    between atoms: C_3  and  C_5
REMARK    4  A    between atoms: C_5  and  C_6
REMARK    5  A    between atoms: C_6  and  C_7
REMARK    6  A    between atoms: C_16  and  C_17
REMARK    7  A    between atoms: C_17  and  C_18
REMARK    8  A    between atoms: C_17  and  C_19
REMARK    9  A    between atoms: C_22  and  C_23
REMARK                            x       y       z     vdW  Elec       q    Type
REMARK                         _______ _______ _______ _____ _____    ______ ____
ROOT
ATOM      1  C   UNL     1       5.097   4.912  16.542  0.00  0.00    +0.000 C 
ATOM      2  C   UNL     1       4.450   6.200  17.043  0.00  0.00    +0.000 C 
ATOM      3  C   UNL     1       3.501   6.201  17.992  0.00  0.00    +0.000 C 
ATOM      4  C   UNL     1       3.070   4.969  18.613  0.00  0.00    +0.000 C 
ATOM      5  C   UNL     1       2.319   5.159  19.705  0.00  0.00    +0.000 C 
ATOM      6  C   UNL     1       2.165   6.631  19.814  0.00  0.00    +0.000 C 
ATOM      7  O   UNL     1       1.544   7.172  20.719  0.00  0.00    +0.000 OA
ATOM      8  C   UNL     1       2.843   7.368  18.674  0.00  0.00    +0.000 C 
ATOM      9  C   UNL     1       1.811   8.092  17.826  0.00  0.00    +0.000 C 
ATOM     10  C   UNL     1       3.536   3.667  18.038  0.00  0.00    +0.000 C 
ATOM     11  N   UNL     1       4.119   3.781  16.700  0.00  0.00    +0.000 NA
ATOM     12  H   UNL     1       3.361   3.939  16.034  0.00  0.00    +0.000 HD
ENDROOT
BRANCH   5  13
ATOM     13  C   UNL     1       1.769   4.165  20.683  0.00  0.00    +0.000 C 
ATOM     14  C   UNL     1       0.612   3.362  20.083  0.00  0.00    +0.000 C 
ATOM     15  C   UNL     1       2.838   3.226  21.244  0.00  0.00    +0.000 C 
ENDBRANCH   5  13
BRANCH   1  16
ATOM     16  C   UNL     1       5.415   5.004  15.008  0.00  0.00    +0.000 C 
ATOM     17  O   UNL     1       5.439   6.033  14.342  0.00  0.00    +0.000 OA
BRANCH  16  19
ATOM     18  C   UNL     1       6.148   3.730  13.162  0.00  0.00    +0.000 C 
ATOM     19  O   UNL     1       5.626   3.752  14.489  0.00  0.00    +0.000 OA
ENDBRANCH  16  19
ENDBRANCH   1  16
BRANCH   1  20
ATOM     20  C   UNL     1       6.433   4.623  17.299  0.00  0.00    +0.000 C 
BRANCH  20  21
ATOM     21  C   UNL     1       7.221   5.820  17.811  0.00  0.00    +0.000 A 
ATOM     22  C   UNL     1       7.325   6.993  17.049  0.00  0.00    +0.000 A 
ATOM     23  C   UNL     1       7.989   8.114  17.555  0.00  0.00    +0.000 A 
ATOM     24  C   UNL     1       8.562   8.079  18.824  0.00  0.00    +0.000 A 
ATOM     25  C   UNL     1       8.486   6.915  19.584  0.00  0.00    +0.000 A 
ATOM     26  C   UNL     1       7.817   5.795  19.082  0.00  0.00    +0.000 A 
ENDBRANCH  20  21
ENDBRANCH   1  20
TORSDOF 5
ENDMDL
MODEL 7
REMARK VINA RESULT:      -7.2      1.956      6.075
REMARK  Name = 
REMARK  9 active torsions:
REMARK  status: ('A' for Active; 'I' for Inactive)
REMARK    1  A    between atoms: C_1  and  O_2
REMARK    2  A    between atoms: O_2  and  C_3
REMARK    3  A    between atoms: C_3  and  C_5
REMARK    4  A    between atoms: C_5  and  C_6
REMARK    5  A    between atoms: C_6  and  C_7
REMARK    6  A    between atoms: C_16  and  C_17
REMARK    7  A    between atoms: C_17  and  C_18
REMARK    8  A    between atoms: C_17  and  C_19
REMARK    9  A    between atoms: C_22  and  C_23
REMARK                            x       y       z     vdW  Elec       q    Type
REMARK                         _______ _______ _______ _____ _____    ______ ____
ROOT
ATOM      1  C   UNL     1       5.419   4.716  16.099  0.00  0.00    +0.000 C 
ATOM      2  C   UNL     1       4.679   5.924  16.668  0.00  0.00    +0.000 C 
ATOM      3  C   UNL     1       3.737   5.803  17.616  0.00  0.00    +0.000 C 
ATOM      4  C   UNL     1       3.401   4.512  18.171  0.00  0.00    +0.000 C 
ATOM      5  C   UNL     1       2.643   4.586  19.271  0.00  0.00    +0.000 C 
ATOM      6  C   UNL     1       2.379   6.036  19.458  0.00  0.00    +0.000 C 
ATOM      7  O   UNL     1       1.723   6.480  20.390  0.00  0.00    +0.000 OA
ATOM      8  C   UNL     1       2.996   6.880  18.359  0.00  0.00    +0.000 C 
ATOM      9  C   UNL     1       1.909   7.569  17.550  0.00  0.00    +0.000 C 
ATOM     10  C   UNL     1       3.961   3.280  17.527  0.00  0.00    +0.000 C 
ATOM     11  N   UNL     1       4.529   3.508  16.197  0.00  0.00    +0.000 NA
ATOM     12  H   UNL     1       3.758   3.645  15.541  0.00  0.00    +0.000 HD
ENDROOT
BRANCH   5  13
ATOM     13  C   UNL     1       2.172   3.504  20.195  0.00  0.00    +0.000 C 
ATOM     14  C   UNL     1       2.425   3.862  21.661  0.00  0.00    +0.000 C 
ATOM     15  C   UNL     1       0.704   3.133  19.980  0.00  0.00    +0.000 C 
ENDBRANCH   5  13
BRANCH   1  16
ATOM     16  C   UNL     1       5.723   4.913  14.573  0.00  0.00    +0.000 C 
ATOM     17  O   UNL     1       6.433   5.789  14.091  0.00  0.00    +0.000 OA
BRANCH  16  19
ATOM     18  C   UNL     1       5.759   3.471  12.705  0.00  0.00    +0.000 C 
ATOM     19  O   UNL     1       5.044   3.982  13.828  0.00  0.00    +0.000 OA
ENDBRANCH  16  19
ENDBRANCH   1  16
BRANCH   1  20
ATOM     20  C   UNL     1       6.775   4.488  16.840  0.00  0.00    +0.000 C 
BRANCH  20  21
ATOM     21  C   UNL     1       7.348   5.657  17.629  0.00  0.00    +0.000 A 
ATOM     22  C   UNL     1       7.827   5.480  18.934  0.00  0.00    +0.000 A 
ATOM     23  C   UNL     1       8.419   6.540  19.626  0.00  0.00    +0.000 A 
ATOM     24  C   UNL     1       8.533   7.794  19.029  0.00  0.00    +0.000 A 
ATOM     25  C   UNL     1       8.042   7.992  17.741  0.00  0.00    +0.000 A 
ATOM     26  C   UNL     1       7.457   6.930  17.045  0.00  0.00    +0.000 A 
ENDBRANCH  20  21
ENDBRANCH   1  20
TORSDOF 5
ENDMDL
MODEL 8
REMARK VINA RESULT:      -7.1      2.222      4.459
REMARK  Name = 
REMARK  9 active torsions:
REMARK  status: ('A' for Active; 'I' for Inactive)
REMARK    1  A    between atoms: C_1  and  O_2
REMARK    2  A    between atoms: O_2  and  C_3
REMARK    3  A    between atoms: C_3  and  C_5
REMARK    4  A    between atoms: C_5  and  C_6
REMARK    5  A    between atoms: C_6  and  C_7
REMARK    6  A    between atoms: C_16  and  C_17
REMARK    7  A    between atoms: C_17  and  C_18
REMARK    8  A    between atoms: C_17  and  C_19
REMARK    9  A    between atoms: C_22  and  C_23
REMARK                            x       y       z     vdW  Elec       q    Type
REMARK                         _______ _______ _______ _____ _____    ______ ____
ROOT
ATOM      1  C   UNL     1       5.909   5.042  16.728  0.00  0.00    +0.000 C 
ATOM      2  C   UNL     1       6.777   5.649  15.630  0.00  0.00    +0.000 C 
ATOM      3  C   UNL     1       6.900   5.082  14.420  0.00  0.00    +0.000 C 
ATOM      4  C   UNL     1       6.180   3.873  14.089  0.00  0.00    +0.000 C 
ATOM      5  C   UNL     1       6.203   3.582  12.782  0.00  0.00    +0.000 C 
ATOM      6  C   UNL     1       7.057   4.631  12.170  0.00  0.00    +0.000 C 
ATOM      7  O   UNL     1       7.287   4.688  10.970  0.00  0.00    +0.000 OA
ATOM      8  C   UNL     1       7.615   5.594  13.201  0.00  0.00    +0.000 C 
ATOM      9  C   UNL     1       9.129   5.480  13.264  0.00  0.00    +0.000 C 
ATOM     10  C   UNL     1       5.460   3.138  15.178  0.00  0.00    +0.000 C 
ATOM     11  N   UNL     1       5.842   3.552  16.529  0.00  0.00    +0.000 NA
ATOM     12  H   UNL     1       6.770   3.177  16.727  0.00  0.00    +0.000 HD
ENDROOT
BRANCH   5  13
ATOM     13  C   UNL     1       5.504   2.494  12.023  0.00  0.00    +0.000 C 
ATOM     14  C   UNL     1       4.330   3.039  11.207  0.00  0.00    +0.000 C 
ATOM     15  C   UNL     1       6.449   1.689  11.131  0.00  0.00    +0.000 C 
ENDBRANCH   5  13
BRANCH   1  16
ATOM     16  C   UNL     1       6.553   5.265  18.141  0.00  0.00    +0.000 C 
ATOM     17  O   UNL     1       6.665   4.416  19.019  0.00  0.00    +0.000 OA
BRANCH  16  19
ATOM     18  C   UNL     1       8.218   6.753  18.902  0.00  0.00    +0.000 C 
ATOM     19  O   UNL     1       6.945   6.571  18.286  0.00  0.00    +0.000 OA
ENDBRANCH  16  19
ENDBRANCH   1  16
BRANCH   1  20
ATOM     20  C   UNL     1       4.484   5.682  16.736  0.00  0.00    +0.000 C 
BRANCH  20  21
ATOM     21  C   UNL     1       3.491   5.169  17.769  0.00  0.00    +0.000 A 
ATOM     22  C   UNL     1       3.271   5.866  18.966  0.00  0.00    +0.000 A 
ATOM     23  C   UNL     1       2.306   5.430  19.878  0.00  0.00    +0.000 A 
ATOM     24  C   UNL     1       1.552   4.289  19.612  0.00  0.00    +0.000 A 
ATOM     25  C   UNL     1       1.774   3.572  18.439  0.00  0.00    +0.000 A 
ATOM     26  C   UNL     1       2.734   4.012  17.523  0.00  0.00    +0.000 A 
ENDBRANCH  20  21
ENDBRANCH   1  20
TORSDOF 5
ENDMDL
MODEL 9
REMARK VINA RESULT:      -7.1      1.938      6.071
REMARK  Name = 
REMARK  9 active torsions:
REMARK  status: ('A' for Active; 'I' for Inactive)
REMARK    1  A    between atoms: C_1  and  O_2
REMARK    2  A    between atoms: O_2  and  C_3
REMARK    3  A    between atoms: C_3  and  C_5
REMARK    4  A    between atoms: C_5  and  C_6
REMARK    5  A    between atoms: C_6  and  C_7
REMARK    6  A    between atoms: C_16  and  C_17
REMARK    7  A    between atoms: C_17  and  C_18
REMARK    8  A    between atoms: C_17  and  C_19
REMARK    9  A    between atoms: C_22  and  C_23
REMARK                            x       y       z     vdW  Elec       q    Type
REMARK                         _______ _______ _______ _____ _____    ______ ____
ROOT
ATOM      1  C   UNL     1       5.435   4.485  16.460  0.00  0.00    +0.000 C 
ATOM      2  C   UNL     1       4.662   5.747  16.835  0.00  0.00    +0.000 C 
ATOM      3  C   UNL     1       3.760   5.764  17.828  0.00  0.00    +0.000 C 
ATOM      4  C   UNL     1       3.500   4.582  18.618  0.00  0.00    +0.000 C 
ATOM      5  C   UNL     1       2.778   4.826  19.718  0.00  0.00    +0.000 C 
ATOM      6  C   UNL     1       2.457   6.274  19.654  0.00  0.00    +0.000 C 
ATOM      7  O   UNL     1       1.814   6.854  20.518  0.00  0.00    +0.000 OA
ATOM      8  C   UNL     1       2.998   6.929  18.397  0.00  0.00    +0.000 C 
ATOM      9  C   UNL     1       1.854   7.420  17.524  0.00  0.00    +0.000 C 
ATOM     10  C   UNL     1       4.092   3.277  18.181  0.00  0.00    +0.000 C 
ATOM     11  N   UNL     1       4.602   3.282  16.809  0.00  0.00    +0.000 NA
ATOM     12  H   UNL     1       3.805   3.269  16.172  0.00  0.00    +0.000 HD
ENDROOT
BRANCH   5  13
ATOM     13  C   UNL     1       2.387   3.910  20.839  0.00  0.00    +0.000 C 
ATOM     14  C   UNL     1       0.946   3.416  20.690  0.00  0.00    +0.000 C 
ATOM     15  C   UNL     1       3.345   2.729  21.004  0.00  0.00    +0.000 C 
ENDBRANCH   5  13
BRANCH   1  16
ATOM     16  C   UNL     1       5.677   4.415  14.912  0.00  0.00    +0.000 C 
ATOM     17  O   UNL     1       4.804   4.373  14.052  0.00  0.00    +0.000 OA
BRANCH  16  19
ATOM     18  C   UNL     1       7.414   4.991  13.423  0.00  0.00    +0.000 C 
ATOM     19  O   UNL     1       7.021   4.363  14.641  0.00  0.00    +0.000 OA
ENDBRANCH  16  19
ENDBRANCH   1  16
BRANCH   1  20
ATOM     20  C   UNL     1       6.825   4.445  17.173  0.00  0.00    +0.000 C 
BRANCH  20  21
ATOM     21  C   UNL     1       7.357   5.752  17.742  0.00  0.00    +0.000 A 
ATOM     22  C   UNL     1       7.925   5.801  19.023  0.00  0.00    +0.000 A 
ATOM     23  C   UNL     1       8.479   6.988  19.512  0.00  0.00    +0.000 A 
ATOM     24  C   UNL     1       8.467   8.143  18.734  0.00  0.00    +0.000 A 
ATOM     25  C   UNL     1       7.887   8.116  17.468  0.00  0.00    +0.000 A 
ATOM     26  C   UNL     1       7.340   6.928  16.975  0.00  0.00    +0.000 A 
ENDBRANCH  20  21
ENDBRANCH   1  20
TORSDOF 5
ENDMDL
