MODEL 1
REMARK VINA RESULT:      -6.8      0.000      0.000
REMARK  Name = 
REMARK  14 active torsions:
REMARK  status: ('A' for Active; 'I' for Inactive)
REMARK    1  A    between atoms: N_1  and  C_2
REMARK    2  A    between atoms: C_2  and  C_3
REMARK    3  A    between atoms: C_3  and  C_4
REMARK    4  A    between atoms: C_4  and  C_5
REMARK    5  A    between atoms: C_5  and  C_6
REMARK    6  A    between atoms: C_6  and  C_7
REMARK    7  A    between atoms: C_7  and  C_8
REMARK    8  A    between atoms: C_8  and  C_9
REMARK    9  A    between atoms: N_11  and  C_12
REMARK   10  A    between atoms: C_14  and  C_15
REMARK   11  A    between atoms: C_15  and  O_16
REMARK   12  A    between atoms: C_17  and  O_18
REMARK   13  A    between atoms: C_19  and  O_20
REMARK   14  A    between atoms: C_21  and  O_22
REMARK                            x       y       z     vdW  Elec       q    Type
REMARK                         _______ _______ _______ _____ _____    ______ ____
ROOT
ATOM      1  C   UNL     1       4.804   3.895  17.966  0.00  0.00    +0.000 C 
ATOM      2  O   UNL     1       4.396   4.925  18.874  0.00  0.00    +0.000 OA
ATOM      3  C   UNL     1       2.964   5.111  18.943  0.00  0.00    +0.000 C 
ATOM      4  C   UNL     1       2.290   3.817  19.443  0.00  0.00    +0.000 C 
ATOM      5  C   UNL     1       2.701   2.636  18.536  0.00  0.00    +0.000 C 
ATOM      6  C   UNL     1       4.227   2.545  18.435  0.00  0.00    +0.000 C 
ENDROOT
BRANCH   1   9
ATOM      7  C   UNL     1       7.195   4.539  17.320  0.00  0.00    +0.000 C 
ATOM      8  O   UNL     1       8.368   4.321  17.558  0.00  0.00    +0.000 OA
ATOM      9  N   UNL     1       6.246   3.870  18.043  0.00  0.00    +0.000 N 
ATOM     10  H   UNL     1       6.652   3.113  18.572  0.00  0.00    +0.000 HD
BRANCH   7  11
ATOM     11  C   UNL     1       6.742   5.529  16.254  0.00  0.00    +0.000 C 
BRANCH  11  12
ATOM     12  C   UNL     1       7.027   4.991  14.845  0.00  0.00    +0.000 C 
BRANCH  12  13
ATOM     13  C   UNL     1       5.837   4.221  14.269  0.00  0.00    +0.000 C 
BRANCH  13  14
ATOM     14  C   UNL     1       6.240   3.418  13.029  0.00  0.00    +0.000 C 
BRANCH  14  15
ATOM     15  C   UNL     1       5.134   3.436  11.974  0.00  0.00    +0.000 C 
BRANCH  15  16
ATOM     16  C   UNL     1       5.057   2.105  11.224  0.00  0.00    +0.000 C 
BRANCH  16  17
ATOM     17  C   UNL     1       6.394   1.369  11.281  0.00  0.00    +0.000 C 
BRANCH  17  18
ATOM     18  N   UNL     1       6.185  -0.070  11.191  0.00  0.00    +0.000 NA
ATOM     19  H   UNL     1       5.665  -0.388  12.006  0.00  0.00    +0.000 HD
ATOM     20  H   UNL     1       7.085  -0.550  11.223  0.00  0.00    +0.000 HD
ENDBRANCH  17  18
ENDBRANCH  16  17
ENDBRANCH  15  16
ENDBRANCH  14  15
ENDBRANCH  13  14
ENDBRANCH  12  13
ENDBRANCH  11  12
ENDBRANCH   7  11
ENDBRANCH   1   9
BRANCH   4  21
ATOM     21  O   UNL     1       0.868   3.948  19.521  0.00  0.00    +0.000 OA
ATOM     22  H   UNL     1       0.636   4.893  19.553  0.00  0.00    +0.000 HD
ENDBRANCH   4  21
BRANCH   5  23
ATOM     23  O   UNL     1       2.179   1.406  19.054  0.00  0.00    +0.000 OA
ATOM     24  H   UNL     1       2.223   1.471  20.028  0.00  0.00    +0.000 HD
ENDBRANCH   5  23
BRANCH   6  25
ATOM     25  O   UNL     1       4.742   2.197  19.741  0.00  0.00    +0.000 OA
ATOM     26  H   UNL     1       4.024   1.765  20.243  0.00  0.00    +0.000 HD
ENDBRANCH   6  25
BRANCH   3  27
ATOM     27  C   UNL     1       2.679   6.346  19.828  0.00  0.00    +0.000 C 
BRANCH  27  28
ATOM     28  O   UNL     1       1.931   6.104  21.015  0.00  0.00    +0.000 OA
ATOM     29  H   UNL     1       2.004   6.878  21.607  0.00  0.00    +0.000 HD
ENDBRANCH  27  28
ENDBRANCH   3  27
TORSDOF 14
ENDMDL
MODEL 2
REMARK VINA RESULT:      -6.8      2.115      2.476
REMARK  Name = 
REMARK  14 active torsions:
REMARK  status: ('A' for Active; 'I' for Inactive)
REMARK    1  A    between atoms: N_1  and  C_2
REMARK    2  A    between atoms: C_2  and  C_3
REMARK    3  A    between atoms: C_3  and  C_4
REMARK    4  A    between atoms: C_4  and  C_5
REMARK    5  A    between atoms: C_5  and  C_6
REMARK    6  A    between atoms: C_6  and  C_7
REMARK    7  A    between atoms: C_7  and  C_8
REMARK    8  A    between atoms: C_8  and  C_9
REMARK    9  A    between atoms: N_11  and  C_12
REMARK   10  A    between atoms: C_14  and  C_15
REMARK   11  A    between atoms: C_15  and  O_16
REMARK   12  A    between atoms: C_17  and  O_18
REMARK   13  A    between atoms: C_19  and  O_20
REMARK   14  A    between atoms: C_21  and  O_22
REMARK                            x       y       z     vdW  Elec       q    Type
REMARK                         _______ _______ _______ _____ _____    ______ ____
ROOT
ATOM      1  C   UNL     1       4.379   4.178  17.187  0.00  0.00    +0.000 C 
ATOM      2  O   UNL     1       4.126   5.211  18.147  0.00  0.00    +0.000 OA
ATOM      3  C   UNL     1       2.746   5.292  18.568  0.00  0.00    +0.000 C 
ATOM      4  C   UNL     1       2.325   3.972  19.248  0.00  0.00    +0.000 C 
ATOM      5  C   UNL     1       2.594   2.790  18.290  0.00  0.00    +0.000 C 
ATOM      6  C   UNL     1       4.050   2.809  17.812  0.00  0.00    +0.000 C 
ENDROOT
BRANCH   1   9
ATOM      7  C   UNL     1       6.465   4.322  15.711  0.00  0.00    +0.000 C 
ATOM      8  O   UNL     1       7.680   4.360  15.732  0.00  0.00    +0.000 OA
ATOM      9  N   UNL     1       5.792   4.264  16.900  0.00  0.00    +0.000 N 
ATOM     10  H   UNL     1       6.416   4.061  17.667  0.00  0.00    +0.000 HD
BRANCH   7  11
ATOM     11  C   UNL     1       5.663   4.343  14.415  0.00  0.00    +0.000 C 
BRANCH  11  12
ATOM     12  C   UNL     1       6.424   3.635  13.285  0.00  0.00    +0.000 C 
BRANCH  12  13
ATOM     13  C   UNL     1       5.687   3.727  11.948  0.00  0.00    +0.000 C 
BRANCH  13  14
ATOM     14  C   UNL     1       4.252   3.204  12.066  0.00  0.00    +0.000 C 
BRANCH  14  15
ATOM     15  C   UNL     1       3.589   3.090  10.693  0.00  0.00    +0.000 C 
BRANCH  15  16
ATOM     16  C   UNL     1       3.252   4.468  10.121  0.00  0.00    +0.000 C 
BRANCH  16  17
ATOM     17  C   UNL     1       2.637   4.345   8.729  0.00  0.00    +0.000 C 
BRANCH  17  18
ATOM     18  N   UNL     1       1.776   5.488   8.452  0.00  0.00    +0.000 NA
ATOM     19  H   UNL     1       0.954   5.445   9.050  0.00  0.00    +0.000 HD
ATOM     20  H   UNL     1       1.434   5.434   7.491  0.00  0.00    +0.000 HD
ENDBRANCH  17  18
ENDBRANCH  16  17
ENDBRANCH  15  16
ENDBRANCH  14  15
ENDBRANCH  13  14
ENDBRANCH  12  13
ENDBRANCH  11  12
ENDBRANCH   7  11
ENDBRANCH   1   9
BRANCH   4  21
ATOM     21  O   UNL     1       0.961   4.000  19.677  0.00  0.00    +0.000 OA
ATOM     22  H   UNL     1       0.577   3.112  19.576  0.00  0.00    +0.000 HD
ENDBRANCH   4  21
BRANCH   5  23
ATOM     23  O   UNL     1       2.320   1.546  18.947  0.00  0.00    +0.000 OA
ATOM     24  H   UNL     1       2.442   0.844  18.279  0.00  0.00    +0.000 HD
ENDBRANCH   5  23
BRANCH   6  25
ATOM     25  O   UNL     1       4.899   2.553  18.955  0.00  0.00    +0.000 OA
ATOM     26  H   UNL     1       4.411   2.817  19.758  0.00  0.00    +0.000 HD
ENDBRANCH   6  25
BRANCH   3  27
ATOM     27  C   UNL     1       2.588   6.537  19.472  0.00  0.00    +0.000 C 
BRANCH  27  28
ATOM     28  O   UNL     1       2.009   6.310  20.753  0.00  0.00    +0.000 OA
ATOM     29  H   UNL     1       1.569   7.127  21.058  0.00  0.00    +0.000 HD
ENDBRANCH  27  28
ENDBRANCH   3  27
TORSDOF 14
ENDMDL
MODEL 3
REMARK VINA RESULT:      -6.7      1.415      1.697
REMARK  Name = 
REMARK  14 active torsions:
REMARK  status: ('A' for Active; 'I' for Inactive)
REMARK    1  A    between atoms: N_1  and  C_2
REMARK    2  A    between atoms: C_2  and  C_3
REMARK    3  A    between atoms: C_3  and  C_4
REMARK    4  A    between atoms: C_4  and  C_5
REMARK    5  A    between atoms: C_5  and  C_6
REMARK    6  A    between atoms: C_6  and  C_7
REMARK    7  A    between atoms: C_7  and  C_8
REMARK    8  A    between atoms: C_8  and  C_9
REMARK    9  A    between atoms: N_11  and  C_12
REMARK   10  A    between atoms: C_14  and  C_15
REMARK   11  A    between atoms: C_15  and  O_16
REMARK   12  A    between atoms: C_17  and  O_18
REMARK   13  A    between atoms: C_19  and  O_20
REMARK   14  A    between atoms: C_21  and  O_22
REMARK                            x       y       z     vdW  Elec       q    Type
REMARK                         _______ _______ _______ _____ _____    ______ ____
ROOT
ATOM      1  C   UNL     1       4.325   3.984  18.694  0.00  0.00    +0.000 C 
ATOM      2  O   UNL     1       3.911   3.761  20.047  0.00  0.00    +0.000 OA
ATOM      3  C   UNL     1       2.478   3.780  20.231  0.00  0.00    +0.000 C 
ATOM      4  C   UNL     1       1.827   2.655  19.401  0.00  0.00    +0.000 C 
ATOM      5  C   UNL     1       2.246   2.797  17.921  0.00  0.00    +0.000 C 
ATOM      6  C   UNL     1       3.773   2.857  17.800  0.00  0.00    +0.000 C 
ENDROOT
BRANCH   1   9
ATOM      7  C   UNL     1       6.709   4.685  18.081  0.00  0.00    +0.000 C 
ATOM      8  O   UNL     1       7.884   4.418  18.250  0.00  0.00    +0.000 OA
ATOM      9  N   UNL     1       5.768   3.928  18.724  0.00  0.00    +0.000 N 
ATOM     10  H   UNL     1       6.175   3.095  19.122  0.00  0.00    +0.000 HD
BRANCH   7  11
ATOM     11  C   UNL     1       6.245   5.829  17.189  0.00  0.00    +0.000 C 
BRANCH  11  12
ATOM     12  C   UNL     1       5.923   5.329  15.774  0.00  0.00    +0.000 C 
BRANCH  12  13
ATOM     13  C   UNL     1       7.177   4.886  15.019  0.00  0.00    +0.000 C 
BRANCH  13  14
ATOM     14  C   UNL     1       6.892   4.702  13.525  0.00  0.00    +0.000 C 
BRANCH  14  15
ATOM     15  C   UNL     1       5.852   3.607  13.290  0.00  0.00    +0.000 C 
BRANCH  15  16
ATOM     16  C   UNL     1       5.690   3.302  11.801  0.00  0.00    +0.000 C 
BRANCH  16  17
ATOM     17  C   UNL     1       5.694   1.796  11.549  0.00  0.00    +0.000 C 
BRANCH  17  18
ATOM     18  N   UNL     1       7.026   1.351  11.156  0.00  0.00    +0.000 NA
ATOM     19  H   UNL     1       7.231   1.685  10.217  0.00  0.00    +0.000 HD
ATOM     20  H   UNL     1       7.046   0.331  11.107  0.00  0.00    +0.000 HD
ENDBRANCH  17  18
ENDBRANCH  16  17
ENDBRANCH  15  16
ENDBRANCH  14  15
ENDBRANCH  13  14
ENDBRANCH  12  13
ENDBRANCH  11  12
ENDBRANCH   7  11
ENDBRANCH   1   9
BRANCH   4  21
ATOM     21  O   UNL     1       0.404   2.637  19.544  0.00  0.00    +0.000 OA
ATOM     22  H   UNL     1       0.176   2.264  20.413  0.00  0.00    +0.000 HD
ENDBRANCH   4  21
BRANCH   5  23
ATOM     23  O   UNL     1       1.747   1.692  17.155  0.00  0.00    +0.000 OA
ATOM     24  H   UNL     1       1.736   0.919  17.753  0.00  0.00    +0.000 HD
ENDBRANCH   5  23
BRANCH   6  25
ATOM     25  O   UNL     1       4.305   1.575  18.209  0.00  0.00    +0.000 OA
ATOM     26  H   UNL     1       4.992   1.315  17.566  0.00  0.00    +0.000 HD
ENDBRANCH   6  25
BRANCH   3  27
ATOM     27  C   UNL     1       2.183   3.688  21.746  0.00  0.00    +0.000 C 
BRANCH  27  28
ATOM     28  O   UNL     1       1.566   2.484  22.191  0.00  0.00    +0.000 OA
ATOM     29  H   UNL     1       1.261   2.598  23.112  0.00  0.00    +0.000 HD
ENDBRANCH  27  28
ENDBRANCH   3  27
TORSDOF 14
ENDMDL
MODEL 4
REMARK VINA RESULT:      -6.7      3.657      6.359
REMARK  Name = 
REMARK  14 active torsions:
REMARK  status: ('A' for Active; 'I' for Inactive)
REMARK    1  A    between atoms: N_1  and  C_2
REMARK    2  A    between atoms: C_2  and  C_3
REMARK    3  A    between atoms: C_3  and  C_4
REMARK    4  A    between atoms: C_4  and  C_5
REMARK    5  A    between atoms: C_5  and  C_6
REMARK    6  A    between atoms: C_6  and  C_7
REMARK    7  A    between atoms: C_7  and  C_8
REMARK    8  A    between atoms: C_8  and  C_9
REMARK    9  A    between atoms: N_11  and  C_12
REMARK   10  A    between atoms: C_14  and  C_15
REMARK   11  A    between atoms: C_15  and  O_16
REMARK   12  A    between atoms: C_17  and  O_18
REMARK   13  A    between atoms: C_19  and  O_20
REMARK   14  A    between atoms: C_21  and  O_22
REMARK                            x       y       z     vdW  Elec       q    Type
REMARK                         _______ _______ _______ _____ _____    ______ ____
ROOT
ATOM      1  C   UNL     1       4.655   5.847  17.697  0.00  0.00    +0.000 C 
ATOM      2  O   UNL     1       5.820   6.320  18.382  0.00  0.00    +0.000 OA
ATOM      3  C   UNL     1       6.855   5.323  18.533  0.00  0.00    +0.000 C 
ATOM      4  C   UNL     1       7.343   4.858  17.146  0.00  0.00    +0.000 C 
ATOM      5  C   UNL     1       6.139   4.355  16.318  0.00  0.00    +0.000 C 
ATOM      6  C   UNL     1       5.041   5.424  16.266  0.00  0.00    +0.000 C 
ENDROOT
BRANCH   1   9
ATOM      7  C   UNL     1       2.466   7.115  18.086  0.00  0.00    +0.000 C 
ATOM      8  O   UNL     1       1.902   8.177  17.904  0.00  0.00    +0.000 OA
ATOM      9  N   UNL     1       3.756   6.977  17.652  0.00  0.00    +0.000 N 
ATOM     10  H   UNL     1       4.023   7.736  17.044  0.00  0.00    +0.000 HD
BRANCH   7  11
ATOM     11  C   UNL     1       1.796   5.937  18.783  0.00  0.00    +0.000 C 
BRANCH  11  12
ATOM     12  C   UNL     1       1.977   6.022  20.305  0.00  0.00    +0.000 C 
BRANCH  12  13
ATOM     13  C   UNL     1       2.250   4.653  20.930  0.00  0.00    +0.000 C 
BRANCH  13  14
ATOM     14  C   UNL     1       1.170   3.638  20.542  0.00  0.00    +0.000 C 
BRANCH  14  15
ATOM     15  C   UNL     1       1.789   2.361  19.973  0.00  0.00    +0.000 C 
BRANCH  15  16
ATOM     16  C   UNL     1       1.709   2.334  18.447  0.00  0.00    +0.000 C 
BRANCH  16  17
ATOM     17  C   UNL     1       3.103   2.412  17.826  0.00  0.00    +0.000 C 
BRANCH  17  18
ATOM     18  N   UNL     1       4.125   2.274  18.856  0.00  0.00    +0.000 NA
ATOM     19  H   UNL     1       3.783   1.663  19.594  0.00  0.00    +0.000 HD
ATOM     20  H   UNL     1       4.296   3.181  19.293  0.00  0.00    +0.000 HD
ENDBRANCH  17  18
ENDBRANCH  16  17
ENDBRANCH  15  16
ENDBRANCH  14  15
ENDBRANCH  13  14
ENDBRANCH  12  13
ENDBRANCH  11  12
ENDBRANCH   7  11
ENDBRANCH   1   9
BRANCH   4  21
ATOM     21  O   UNL     1       8.365   3.862  17.242  0.00  0.00    +0.000 OA
ATOM     22  H   UNL     1       8.824   3.792  16.387  0.00  0.00    +0.000 HD
ENDBRANCH   4  21
BRANCH   5  23
ATOM     23  O   UNL     1       6.554   4.029  14.985  0.00  0.00    +0.000 OA
ATOM     24  H   UNL     1       7.075   4.790  14.660  0.00  0.00    +0.000 HD
ENDBRANCH   5  23
BRANCH   6  25
ATOM     25  O   UNL     1       5.551   6.554  15.521  0.00  0.00    +0.000 OA
ATOM     26  H   UNL     1       5.885   7.212  16.162  0.00  0.00    +0.000 HD
ENDBRANCH   6  25
BRANCH   3  27
ATOM     27  C   UNL     1       7.974   5.918  19.421  0.00  0.00    +0.000 C 
BRANCH  27  28
ATOM     28  O   UNL     1       8.098   5.361  20.725  0.00  0.00    +0.000 OA
ATOM     29  H   UNL     1       8.796   4.676  20.719  0.00  0.00    +0.000 HD
ENDBRANCH  27  28
ENDBRANCH   3  27
TORSDOF 14
ENDMDL
MODEL 5
REMARK VINA RESULT:      -6.7      1.455      1.682
REMARK  Name = 
REMARK  14 active torsions:
REMARK  status: ('A' for Active; 'I' for Inactive)
REMARK    1  A    between atoms: N_1  and  C_2
REMARK    2  A    between atoms: C_2  and  C_3
REMARK    3  A    between atoms: C_3  and  C_4
REMARK    4  A    between atoms: C_4  and  C_5
REMARK    5  A    between atoms: C_5  and  C_6
REMARK    6  A    between atoms: C_6  and  C_7
REMARK    7  A    between atoms: C_7  and  C_8
REMARK    8  A    between atoms: C_8  and  C_9
REMARK    9  A    between atoms: N_11  and  C_12
REMARK   10  A    between atoms: C_14  and  C_15
REMARK   11  A    between atoms: C_15  and  O_16
REMARK   12  A    between atoms: C_17  and  O_18
REMARK   13  A    between atoms: C_19  and  O_20
REMARK   14  A    between atoms: C_21  and  O_22
REMARK                            x       y       z     vdW  Elec       q    Type
REMARK                         _______ _______ _______ _____ _____    ______ ____
ROOT
ATOM      1  C   UNL     1       4.398   3.943  17.514  0.00  0.00    +0.000 C 
ATOM      2  O   UNL     1       4.092   4.908  18.526  0.00  0.00    +0.000 OA
ATOM      3  C   UNL     1       2.679   5.045  18.797  0.00  0.00    +0.000 C 
ATOM      4  C   UNL     1       2.110   3.706  19.307  0.00  0.00    +0.000 C 
ATOM      5  C   UNL     1       2.422   2.590  18.285  0.00  0.00    +0.000 C 
ATOM      6  C   UNL     1       3.922   2.551  17.976  0.00  0.00    +0.000 C 
ENDROOT
BRANCH   1   9
ATOM      7  C   UNL     1       6.655   4.533  16.461  0.00  0.00    +0.000 C 
ATOM      8  O   UNL     1       7.857   4.377  16.566  0.00  0.00    +0.000 OA
ATOM      9  N   UNL     1       5.837   3.959  17.396  0.00  0.00    +0.000 N 
ATOM     10  H   UNL     1       6.340   3.296  17.967  0.00  0.00    +0.000 HD
BRANCH   7  11
ATOM     11  C   UNL     1       6.026   5.345  15.337  0.00  0.00    +0.000 C 
BRANCH  11  12
ATOM     12  C   UNL     1       5.359   4.430  14.301  0.00  0.00    +0.000 C 
BRANCH  12  13
ATOM     13  C   UNL     1       6.383   3.698  13.432  0.00  0.00    +0.000 C 
BRANCH  13  14
ATOM     14  C   UNL     1       5.992   3.744  11.952  0.00  0.00    +0.000 C 
BRANCH  14  15
ATOM     15  C   UNL     1       5.198   2.501  11.550  0.00  0.00    +0.000 C 
BRANCH  15  16
ATOM     16  C   UNL     1       3.762   2.858  11.165  0.00  0.00    +0.000 C 
BRANCH  16  17
ATOM     17  C   UNL     1       3.729   4.091  10.264  0.00  0.00    +0.000 C 
BRANCH  17  18
ATOM     18  N   UNL     1       2.799   3.888   9.160  0.00  0.00    +0.000 NA
ATOM     19  H   UNL     1       2.835   4.691   8.535  0.00  0.00    +0.000 HD
ATOM     20  H   UNL     1       1.844   3.849   9.520  0.00  0.00    +0.000 HD
ENDBRANCH  17  18
ENDBRANCH  16  17
ENDBRANCH  15  16
ENDBRANCH  14  15
ENDBRANCH  13  14
ENDBRANCH  12  13
ENDBRANCH  11  12
ENDBRANCH   7  11
ENDBRANCH   1   9
BRANCH   4  21
ATOM     21  O   UNL     1       0.709   3.788  19.582  0.00  0.00    +0.000 OA
ATOM     22  H   UNL     1       0.308   2.910  19.461  0.00  0.00    +0.000 HD
ENDBRANCH   4  21
BRANCH   5  23
ATOM     23  O   UNL     1       2.004   1.317  18.796  0.00  0.00    +0.000 OA
ATOM     24  H   UNL     1       1.209   1.481  19.340  0.00  0.00    +0.000 HD
ENDBRANCH   5  23
BRANCH   6  25
ATOM     25  O   UNL     1       4.617   2.150  19.180  0.00  0.00    +0.000 OA
ATOM     26  H   UNL     1       4.501   2.856  19.844  0.00  0.00    +0.000 HD
ENDBRANCH   6  25
BRANCH   3  27
ATOM     27  C   UNL     1       2.487   6.221  19.783  0.00  0.00    +0.000 C 
BRANCH  27  28
ATOM     28  O   UNL     1       2.150   5.866  21.120  0.00  0.00    +0.000 OA
ATOM     29  H   UNL     1       2.259   6.646  21.699  0.00  0.00    +0.000 HD
ENDBRANCH  27  28
ENDBRANCH   3  27
TORSDOF 14
ENDMDL
MODEL 6
REMARK VINA RESULT:      -6.6      1.624      2.183
REMARK  Name = 
REMARK  14 active torsions:
REMARK  status: ('A' for Active; 'I' for Inactive)
REMARK    1  A    between atoms: N_1  and  C_2
REMARK    2  A    between atoms: C_2  and  C_3
REMARK    3  A    between atoms: C_3  and  C_4
REMARK    4  A    between atoms: C_4  and  C_5
REMARK    5  A    between atoms: C_5  and  C_6
REMARK    6  A    between atoms: C_6  and  C_7
REMARK    7  A    between atoms: C_7  and  C_8
REMARK    8  A    between atoms: C_8  and  C_9
REMARK    9  A    between atoms: N_11  and  C_12
REMARK   10  A    between atoms: C_14  and  C_15
REMARK   11  A    between atoms: C_15  and  O_16
REMARK   12  A    between atoms: C_17  and  O_18
REMARK   13  A    between atoms: C_19  and  O_20
REMARK   14  A    between atoms: C_21  and  O_22
REMARK                            x       y       z     vdW  Elec       q    Type
REMARK                         _______ _______ _______ _____ _____    ______ ____
ROOT
ATOM      1  C   UNL     1       4.545   4.241  19.145  0.00  0.00    +0.000 C 
ATOM      2  O   UNL     1       4.181   3.304  20.165  0.00  0.00    +0.000 OA
ATOM      3  C   UNL     1       2.799   3.397  20.578  0.00  0.00    +0.000 C 
ATOM      4  C   UNL     1       1.872   3.098  19.382  0.00  0.00    +0.000 C 
ATOM      5  C   UNL     1       2.216   4.047  18.213  0.00  0.00    +0.000 C 
ATOM      6  C   UNL     1       3.710   3.966  17.879  0.00  0.00    +0.000 C 
ENDROOT
BRANCH   1   9
ATOM      7  C   UNL     1       6.865   4.707  18.170  0.00  0.00    +0.000 C 
ATOM      8  O   UNL     1       7.993   4.262  18.064  0.00  0.00    +0.000 OA
ATOM      9  N   UNL     1       5.943   3.988  18.879  0.00  0.00    +0.000 N 
ATOM     10  H   UNL     1       6.272   3.055  19.071  0.00  0.00    +0.000 HD
BRANCH   7  11
ATOM     11  C   UNL     1       6.444   6.034  17.552  0.00  0.00    +0.000 C 
BRANCH  11  12
ATOM     12  C   UNL     1       6.733   6.057  16.044  0.00  0.00    +0.000 C 
BRANCH  12  13
ATOM     13  C   UNL     1       5.505   5.674  15.216  0.00  0.00    +0.000 C 
BRANCH  13  14
ATOM     14  C   UNL     1       5.685   4.306  14.552  0.00  0.00    +0.000 C 
BRANCH  14  15
ATOM     15  C   UNL     1       6.971   4.256  13.726  0.00  0.00    +0.000 C 
BRANCH  15  16
ATOM     16  C   UNL     1       6.672   4.033  12.243  0.00  0.00    +0.000 C 
BRANCH  16  17
ATOM     17  C   UNL     1       5.451   3.134  12.061  0.00  0.00    +0.000 C 
BRANCH  17  18
ATOM     18  N   UNL     1       5.865   1.783  11.704  0.00  0.00    +0.000 NA
ATOM     19  H   UNL     1       6.790   1.600  12.085  0.00  0.00    +0.000 HD
ATOM     20  H   UNL     1       5.955   1.709  10.690  0.00  0.00    +0.000 HD
ENDBRANCH  17  18
ENDBRANCH  16  17
ENDBRANCH  15  16
ENDBRANCH  14  15
ENDBRANCH  13  14
ENDBRANCH  12  13
ENDBRANCH  11  12
ENDBRANCH   7  11
ENDBRANCH   1   9
BRANCH   4  21
ATOM     21  O   UNL     1       0.490   3.186  19.739  0.00  0.00    +0.000 OA
ATOM     22  H   UNL     1      -0.048   3.199  18.928  0.00  0.00    +0.000 HD
ENDBRANCH   4  21
BRANCH   5  23
ATOM     23  O   UNL     1       1.447   3.706  17.052  0.00  0.00    +0.000 OA
ATOM     24  H   UNL     1       1.151   4.549  16.655  0.00  0.00    +0.000 HD
ENDBRANCH   5  23
BRANCH   6  25
ATOM     25  O   UNL     1       3.983   2.641  17.366  0.00  0.00    +0.000 OA
ATOM     26  H   UNL     1       4.863   2.367  17.691  0.00  0.00    +0.000 HD
ENDBRANCH   6  25
BRANCH   3  27
ATOM     27  C   UNL     1       2.589   2.450  21.782  0.00  0.00    +0.000 C 
BRANCH  27  28
ATOM     28  O   UNL     1       1.297   2.476  22.379  0.00  0.00    +0.000 OA
ATOM     29  H   UNL     1       1.249   3.217  23.015  0.00  0.00    +0.000 HD
ENDBRANCH  27  28
ENDBRANCH   3  27
TORSDOF 14
ENDMDL
MODEL 7
REMARK VINA RESULT:      -6.5      3.945      6.454
REMARK  Name = 
REMARK  14 active torsions:
REMARK  status: ('A' for Active; 'I' for Inactive)
REMARK    1  A    between atoms: N_1  and  C_2
REMARK    2  A    between atoms: C_2  and  C_3
REMARK    3  A    between atoms: C_3  and  C_4
REMARK    4  A    between atoms: C_4  and  C_5
REMARK    5  A    between atoms: C_5  and  C_6
REMARK    6  A    between atoms: C_6  and  C_7
REMARK    7  A    between atoms: C_7  and  C_8
REMARK    8  A    between atoms: C_8  and  C_9
REMARK    9  A    between atoms: N_11  and  C_12
REMARK   10  A    between atoms: C_14  and  C_15
REMARK   11  A    between atoms: C_15  and  O_16
REMARK   12  A    between atoms: C_17  and  O_18
REMARK   13  A    between atoms: C_19  and  O_20
REMARK   14  A    between atoms: C_21  and  O_22
REMARK                            x       y       z     vdW  Elec       q    Type
REMARK                         _______ _______ _______ _____ _____    ______ ____
ROOT
ATOM      1  C   UNL     1       4.337   5.492  18.769  0.00  0.00    +0.000 C 
ATOM      2  O   UNL     1       5.624   5.828  19.300  0.00  0.00    +0.000 OA
ATOM      3  C   UNL     1       6.722   5.521  18.412  0.00  0.00    +0.000 C 
ATOM      4  C   UNL     1       6.582   6.327  17.104  0.00  0.00    +0.000 C 
ATOM      5  C   UNL     1       5.200   6.049  16.472  0.00  0.00    +0.000 C 
ATOM      6  C   UNL     1       4.083   6.311  17.489  0.00  0.00    +0.000 C 
ENDROOT
BRANCH   1   9
ATOM      7  C   UNL     1       2.077   5.539  19.969  0.00  0.00    +0.000 C 
ATOM      8  O   UNL     1       1.477   6.020  20.912  0.00  0.00    +0.000 OA
ATOM      9  N   UNL     1       3.393   5.871  19.794  0.00  0.00    +0.000 N 
ATOM     10  H   UNL     1       3.657   6.649  20.379  0.00  0.00    +0.000 HD
BRANCH   7  11
ATOM     11  C   UNL     1       1.425   4.579  18.982  0.00  0.00    +0.000 C 
BRANCH  11  12
ATOM     12  C   UNL     1       0.884   3.335  19.698  0.00  0.00    +0.000 C 
BRANCH  12  13
ATOM     13  C   UNL     1       1.107   2.058  18.886  0.00  0.00    +0.000 C 
BRANCH  13  14
ATOM     14  C   UNL     1       2.301   2.203  17.938  0.00  0.00    +0.000 C 
BRANCH  14  15
ATOM     15  C   UNL     1       3.520   1.445  18.464  0.00  0.00    +0.000 C 
BRANCH  15  16
ATOM     16  C   UNL     1       4.468   2.372  19.227  0.00  0.00    +0.000 C 
BRANCH  16  17
ATOM     17  C   UNL     1       4.315   2.186  20.735  0.00  0.00    +0.000 C 
BRANCH  17  18
ATOM     18  N   UNL     1       5.394   1.357  21.256  0.00  0.00    +0.000 NA
ATOM     19  H   UNL     1       5.801   1.804  22.074  0.00  0.00    +0.000 HD
ATOM     20  H   UNL     1       6.142   1.293  20.564  0.00  0.00    +0.000 HD
ENDBRANCH  17  18
ENDBRANCH  16  17
ENDBRANCH  15  16
ENDBRANCH  14  15
ENDBRANCH  13  14
ENDBRANCH  12  13
ENDBRANCH  11  12
ENDBRANCH   7  11
ENDBRANCH   1   9
BRANCH   4  21
ATOM     21  O   UNL     1       7.643   6.051  16.187  0.00  0.00    +0.000 OA
ATOM     22  H   UNL     1       8.197   6.845  16.091  0.00  0.00    +0.000 HD
ENDBRANCH   4  21
BRANCH   5  23
ATOM     23  O   UNL     1       5.004   6.879  15.320  0.00  0.00    +0.000 OA
ATOM     24  H   UNL     1       4.042   6.896  15.147  0.00  0.00    +0.000 HD
ENDBRANCH   5  23
BRANCH   6  25
ATOM     25  O   UNL     1       4.072   7.728  17.785  0.00  0.00    +0.000 OA
ATOM     26  H   UNL     1       3.144   8.032  17.765  0.00  0.00    +0.000 HD
ENDBRANCH   6  25
BRANCH   3  27
ATOM     27  C   UNL     1       8.045   5.784  19.168  0.00  0.00    +0.000 C 
BRANCH  27  28
ATOM     28  O   UNL     1       8.052   5.441  20.551  0.00  0.00    +0.000 OA
ATOM     29  H   UNL     1       8.065   6.259  21.086  0.00  0.00    +0.000 HD
ENDBRANCH  27  28
ENDBRANCH   3  27
TORSDOF 14
ENDMDL
MODEL 8
REMARK VINA RESULT:      -6.5      3.676      6.038
REMARK  Name = 
REMARK  14 active torsions:
REMARK  status: ('A' for Active; 'I' for Inactive)
REMARK    1  A    between atoms: N_1  and  C_2
REMARK    2  A    between atoms: C_2  and  C_3
REMARK    3  A    between atoms: C_3  and  C_4
REMARK    4  A    between atoms: C_4  and  C_5
REMARK    5  A    between atoms: C_5  and  C_6
REMARK    6  A    between atoms: C_6  and  C_7
REMARK    7  A    between atoms: C_7  and  C_8
REMARK    8  A    between atoms: C_8  and  C_9
REMARK    9  A    between atoms: N_11  and  C_12
REMARK   10  A    between atoms: C_14  and  C_15
REMARK   11  A    between atoms: C_15  and  O_16
REMARK   12  A    between atoms: C_17  and  O_18
REMARK   13  A    between atoms: C_19  and  O_20
REMARK   14  A    between atoms: C_21  and  O_22
REMARK                            x       y       z     vdW  Elec       q    Type
REMARK                         _______ _______ _______ _____ _____    ______ ____
ROOT
ATOM      1  C   UNL     1       4.757   4.406  18.729  0.00  0.00    +0.000 C 
ATOM      2  O   UNL     1       4.414   3.367  19.654  0.00  0.00    +0.000 OA
ATOM      3  C   UNL     1       3.149   3.574  20.323  0.00  0.00    +0.000 C 
ATOM      4  C   UNL     1       2.007   3.611  19.287  0.00  0.00    +0.000 C 
ATOM      5  C   UNL     1       2.309   4.690  18.223  0.00  0.00    +0.000 C 
ATOM      6  C   UNL     1       3.696   4.466  17.612  0.00  0.00    +0.000 C 
ENDROOT
BRANCH   1   9
ATOM      7  C   UNL     1       7.181   4.733  17.977  0.00  0.00    +0.000 C 
ATOM      8  O   UNL     1       8.131   4.177  17.459  0.00  0.00    +0.000 OA
ATOM      9  N   UNL     1       6.034   4.016  18.177  0.00  0.00    +0.000 N 
ATOM     10  H   UNL     1       6.056   3.139  17.679  0.00  0.00    +0.000 HD
BRANCH   7  11
ATOM     11  C   UNL     1       7.222   6.191  18.417  0.00  0.00    +0.000 C 
BRANCH  11  12
ATOM     12  C   UNL     1       7.146   7.134  17.208  0.00  0.00    +0.000 C 
BRANCH  12  13
ATOM     13  C   UNL     1       7.746   8.508  17.510  0.00  0.00    +0.000 C 
BRANCH  13  14
ATOM     14  C   UNL     1       8.502   8.505  18.842  0.00  0.00    +0.000 C 
BRANCH  14  15
ATOM     15  C   UNL     1       9.338   9.775  19.007  0.00  0.00    +0.000 C 
BRANCH  15  16
ATOM     16  C   UNL     1       8.833  10.897  18.099  0.00  0.00    +0.000 C 
BRANCH  16  17
ATOM     17  C   UNL     1       9.856  12.027  18.008  0.00  0.00    +0.000 C 
BRANCH  17  18
ATOM     18  N   UNL     1      11.086  11.549  17.391  0.00  0.00    +0.000 NA
ATOM     19  H   UNL     1      10.892  11.241  16.441  0.00  0.00    +0.000 HD
ATOM     20  H   UNL     1      11.425  10.728  17.893  0.00  0.00    +0.000 HD
ENDBRANCH  17  18
ENDBRANCH  16  17
ENDBRANCH  15  16
ENDBRANCH  14  15
ENDBRANCH  13  14
ENDBRANCH  12  13
ENDBRANCH  11  12
ENDBRANCH   7  11
ENDBRANCH   1   9
BRANCH   4  21
ATOM     21  O   UNL     1       0.733   3.823  19.901  0.00  0.00    +0.000 OA
ATOM     22  H   UNL     1       0.282   4.560  19.454  0.00  0.00    +0.000 HD
ENDBRANCH   4  21
BRANCH   5  23
ATOM     23  O   UNL     1       1.318   4.659  17.188  0.00  0.00    +0.000 OA
ATOM     24  H   UNL     1       1.198   5.581  16.887  0.00  0.00    +0.000 HD
ENDBRANCH   5  23
BRANCH   6  25
ATOM     25  O   UNL     1       3.664   3.223  16.873  0.00  0.00    +0.000 OA
ATOM     26  H   UNL     1       3.027   2.627  17.313  0.00  0.00    +0.000 HD
ENDBRANCH   6  25
BRANCH   3  27
ATOM     27  C   UNL     1       2.984   2.473  21.396  0.00  0.00    +0.000 C 
BRANCH  27  28
ATOM     28  O   UNL     1       1.868   2.615  22.269  0.00  0.00    +0.000 OA
ATOM     29  H   UNL     1       1.770   3.555  22.518  0.00  0.00    +0.000 HD
ENDBRANCH  27  28
ENDBRANCH   3  27
TORSDOF 14
ENDMDL
MODEL 9
REMARK VINA RESULT:      -6.4      3.735      6.398
REMARK  Name = 
REMARK  14 active torsions:
REMARK  status: ('A' for Active; 'I' for Inactive)
REMARK    1  A    between atoms: N_1  and  C_2
REMARK    2  A    between atoms: C_2  and  C_3
REMARK    3  A    between atoms: C_3  and  C_4
REMARK    4  A    between atoms: C_4  and  C_5
REMARK    5  A    between atoms: C_5  and  C_6
REMARK    6  A    between atoms: C_6  and  C_7
REMARK    7  A    between atoms: C_7  and  C_8
REMARK    8  A    between atoms: C_8  and  C_9
REMARK    9  A    between atoms: N_11  and  C_12
REMARK   10  A    between atoms: C_14  and  C_15
REMARK   11  A    between atoms: C_15  and  O_16
REMARK   12  A    between atoms: C_17  and  O_18
REMARK   13  A    between atoms: C_19  and  O_20
REMARK   14  A    between atoms: C_21  and  O_22
REMARK                            x       y       z     vdW  Elec       q    Type
REMARK                         _______ _______ _______ _____ _____    ______ ____
ROOT
ATOM      1  C   UNL     1       4.875   4.008  19.169  0.00  0.00    +0.000 C 
ATOM      2  O   UNL     1       3.879   3.120  18.649  0.00  0.00    +0.000 OA
ATOM      3  C   UNL     1       2.693   3.027  19.470  0.00  0.00    +0.000 C 
ATOM      4  C   UNL     1       2.014   4.408  19.572  0.00  0.00    +0.000 C 
ATOM      5  C   UNL     1       3.030   5.445  20.098  0.00  0.00    +0.000 C 
ATOM      6  C   UNL     1       4.299   5.436  19.239  0.00  0.00    +0.000 C 
ENDROOT
BRANCH   1   9
ATOM      7  C   UNL     1       7.101   4.709  18.118  0.00  0.00    +0.000 C 
ATOM      8  O   UNL     1       7.861   4.492  17.194  0.00  0.00    +0.000 OA
ATOM      9  N   UNL     1       5.961   3.959  18.218  0.00  0.00    +0.000 N 
ATOM     10  H   UNL     1       5.794   3.429  17.377  0.00  0.00    +0.000 HD
BRANCH   7  11
ATOM     11  C   UNL     1       7.370   5.779  19.170  0.00  0.00    +0.000 C 
BRANCH  11  12
ATOM     12  C   UNL     1       8.249   6.902  18.602  0.00  0.00    +0.000 C 
BRANCH  12  13
ATOM     13  C   UNL     1       7.503   7.756  17.577  0.00  0.00    +0.000 C 
BRANCH  13  14
ATOM     14  C   UNL     1       7.779   9.248  17.787  0.00  0.00    +0.000 C 
BRANCH  14  15
ATOM     15  C   UNL     1       8.904   9.465  18.800  0.00  0.00    +0.000 C 
BRANCH  15  16
ATOM     16  C   UNL     1       9.559  10.835  18.621  0.00  0.00    +0.000 C 
BRANCH  16  17
ATOM     17  C   UNL     1      10.138  11.340  19.941  0.00  0.00    +0.000 C 
BRANCH  17  18
ATOM     18  N   UNL     1       9.314  10.895  21.059  0.00  0.00    +0.000 NA
ATOM     19  H   UNL     1       9.287  11.623  21.769  0.00  0.00    +0.000 HD
ATOM     20  H   UNL     1       9.745  10.082  21.500  0.00  0.00    +0.000 HD
ENDBRANCH  17  18
ENDBRANCH  16  17
ENDBRANCH  15  16
ENDBRANCH  14  15
ENDBRANCH  13  14
ENDBRANCH  12  13
ENDBRANCH  11  12
ENDBRANCH   7  11
ENDBRANCH   1   9
BRANCH   4  21
ATOM     21  O   UNL     1       0.837   4.369  20.382  0.00  0.00    +0.000 OA
ATOM     22  H   UNL     1       0.060   4.557  19.826  0.00  0.00    +0.000 HD
ENDBRANCH   4  21
BRANCH   5  23
ATOM     23  O   UNL     1       2.453   6.757  20.088  0.00  0.00    +0.000 OA
ATOM     24  H   UNL     1       1.644   6.711  20.634  0.00  0.00    +0.000 HD
ENDBRANCH   5  23
BRANCH   6  25
ATOM     25  O   UNL     1       3.948   5.908  17.917  0.00  0.00    +0.000 OA
ATOM     26  H   UNL     1       2.975   5.992  17.876  0.00  0.00    +0.000 HD
ENDBRANCH   6  25
BRANCH   3  27
ATOM     27  C   UNL     1       1.782   1.925  18.879  0.00  0.00    +0.000 C 
BRANCH  27  28
ATOM     28  O   UNL     1       0.453   2.322  18.555  0.00  0.00    +0.000 OA
ATOM     29  H   UNL     1       0.411   2.570  17.610  0.00  0.00    +0.000 HD
ENDBRANCH  27  28
ENDBRANCH   3  27
TORSDOF 14
ENDMDL
