MODEL 1
REMARK VINA RESULT:      -8.5      0.000      0.000
REMARK  Name = 
REMARK  12 active torsions:
REMARK  status: ('A' for Active; 'I' for Inactive)
REMARK    1  A    between atoms: C_1  and  C_2
REMARK    2  A    between atoms: C_2  and  C_3
REMARK    3  A    between atoms: C_2  and  C_4
REMARK    4  A    between atoms: C_2  and  N_5
REMARK    5  A    between atoms: N_5  and  S_6
REMARK    6  A    between atoms: S_6  and  C_9
REMARK    7  A    between atoms: C_12  and  N_13
REMARK    8  A    between atoms: C_14  and  C_16
REMARK    9  A    between atoms: C_16  and  C_17
REMARK   10  A    between atoms: C_16  and  N_25
REMARK   11  A    between atoms: C_17  and  C_18
REMARK   12  A    between atoms: C_26  and  C_28
REMARK                            x       y       z     vdW  Elec       q    Type
REMARK                         _______ _______ _______ _____ _____    ______ ____
ROOT
ATOM      1  N   UNL     1       1.061   9.277  19.729  0.00  0.00    +0.000 N 
ATOM      2  C   UNL     1       0.858   9.669  21.045  0.00  0.00    +0.000 C 
ATOM      3  O   UNL     1       1.384   9.128  22.023  0.00  0.00    +0.000 OA
ATOM      4  H   UNL     1       0.810   9.929  18.997  0.00  0.00    +0.000 HD
ENDROOT
BRANCH   1   8
ATOM      5  C   UNL     1       3.416   5.981  18.575  0.00  0.00    +0.000 A 
ATOM      6  C   UNL     1       3.289   7.060  17.705  0.00  0.00    +0.000 A 
ATOM      7  C   UNL     1       2.528   8.167  18.085  0.00  0.00    +0.000 A 
ATOM      8  C   UNL     1       1.865   8.192  19.319  0.00  0.00    +0.000 A 
ATOM      9  C   UNL     1       1.994   7.096  20.181  0.00  0.00    +0.000 A 
ATOM     10  C   UNL     1       2.758   5.983  19.808  0.00  0.00    +0.000 A 
BRANCH   5  11
ATOM     11  S   UNL     1       4.392   4.575  18.104  0.00  0.00    +0.000 S 
ATOM     12  O   UNL     1       4.634   4.643  16.682  0.00  0.00    +0.000 OA
ATOM     13  O   UNL     1       3.758   3.427  18.714  0.00  0.00    +0.000 OA
BRANCH  11  14
ATOM     14  N   UNL     1       5.835   4.824  18.943  0.00  0.00    +0.000 NA
ATOM     15  H   UNL     1       5.654   5.072  19.915  0.00  0.00    +0.000 HD
BRANCH  14  17
ATOM     16  C   UNL     1       6.802   6.723  17.644  0.00  0.00    +0.000 C 
ATOM     17  C   UNL     1       7.071   5.400  18.356  0.00  0.00    +0.000 C 
ATOM     18  C   UNL     1       7.750   4.388  17.426  0.00  0.00    +0.000 C 
ATOM     19  C   UNL     1       8.036   5.671  19.528  0.00  0.00    +0.000 C 
ENDBRANCH  14  17
ENDBRANCH  11  14
ENDBRANCH   5  11
ENDBRANCH   1   8
BRANCH   2  20
ATOM     20  C   UNL     1      -0.079  10.884  21.288  0.00  0.00    +0.000 C 
BRANCH  20  21
ATOM     21  N   UNL     1      -1.055  10.854  20.189  0.00  0.00    +0.000 N 
ATOM     22  C   UNL     1      -1.461  11.963  19.492  0.00  0.00    +0.000 C 
ATOM     23  O   UNL     1      -0.991  13.081  19.658  0.00  0.00    +0.000 OA
ATOM     24  H   UNL     1      -1.267   9.934  19.810  0.00  0.00    +0.000 HD
BRANCH  22  25
ATOM     25  C   UNL     1      -2.514  11.716  18.474  0.00  0.00    +0.000 A 
ATOM     26  C   UNL     1      -3.873  11.894  18.769  0.00  0.00    +0.000 A 
ATOM     27  C   UNL     1      -4.839  11.608  17.802  0.00  0.00    +0.000 A 
ATOM     28  C   UNL     1      -4.449  11.157  16.541  0.00  0.00    +0.000 A 
ATOM     29  C   UNL     1      -3.094  11.015  16.234  0.00  0.00    +0.000 A 
ATOM     30  C   UNL     1      -2.125  11.305  17.195  0.00  0.00    +0.000 A 
ENDBRANCH  22  25
ENDBRANCH  20  21
BRANCH  20  31
ATOM     31  C   UNL     1      -0.762  10.936  22.664  0.00  0.00    +0.000 C 
BRANCH  31  32
ATOM     32  C   UNL     1      -1.513  12.195  23.058  0.00  0.00    +0.000 A 
ATOM     33  C   UNL     1      -0.942  13.479  23.084  0.00  0.00    +0.000 A 
ATOM     34  C   UNL     1      -1.697  14.592  23.451  0.00  0.00    +0.000 A 
ATOM     35  C   UNL     1      -3.026  14.429  23.805  0.00  0.00    +0.000 A 
ATOM     36  F   UNL     1      -3.751  15.498  24.161  0.00  0.00    +0.000 F 
ATOM     37  C   UNL     1      -3.616  13.173  23.799  0.00  0.00    +0.000 A 
ATOM     38  C   UNL     1      -2.862  12.059  23.427  0.00  0.00    +0.000 A 
ENDBRANCH  31  32
ENDBRANCH  20  31
ENDBRANCH   2  20
TORSDOF 9
ENDMDL
MODEL 2
REMARK VINA RESULT:      -8.5      3.315      4.020
REMARK  Name = 
REMARK  12 active torsions:
REMARK  status: ('A' for Active; 'I' for Inactive)
REMARK    1  A    between atoms: C_1  and  C_2
REMARK    2  A    between atoms: C_2  and  C_3
REMARK    3  A    between atoms: C_2  and  C_4
REMARK    4  A    between atoms: C_2  and  N_5
REMARK    5  A    between atoms: N_5  and  S_6
REMARK    6  A    between atoms: S_6  and  C_9
REMARK    7  A    between atoms: C_12  and  N_13
REMARK    8  A    between atoms: C_14  and  C_16
REMARK    9  A    between atoms: C_16  and  C_17
REMARK   10  A    between atoms: C_16  and  N_25
REMARK   11  A    between atoms: C_17  and  C_18
REMARK   12  A    between atoms: C_26  and  C_28
REMARK                            x       y       z     vdW  Elec       q    Type
REMARK                         _______ _______ _______ _____ _____    ______ ____
ROOT
ATOM      1  N   UNL     1       0.064  10.910  19.646  0.00  0.00    +0.000 N 
ATOM      2  C   UNL     1       0.533  12.215  19.704  0.00  0.00    +0.000 C 
ATOM      3  O   UNL     1       1.699  12.549  19.467  0.00  0.00    +0.000 OA
ATOM      4  H   UNL     1      -0.936  10.769  19.592  0.00  0.00    +0.000 HD
ENDROOT
BRANCH   1   8
ATOM      5  C   UNL     1       2.371   7.484  18.820  0.00  0.00    +0.000 A 
ATOM      6  C   UNL     1       2.118   8.393  17.797  0.00  0.00    +0.000 A 
ATOM      7  C   UNL     1       1.373   9.543  18.064  0.00  0.00    +0.000 A 
ATOM      8  C   UNL     1       0.849   9.778  19.342  0.00  0.00    +0.000 A 
ATOM      9  C   UNL     1       1.104   8.850  20.360  0.00  0.00    +0.000 A 
ATOM     10  C   UNL     1       1.853   7.697  20.101  0.00  0.00    +0.000 A 
BRANCH   5  11
ATOM     11  S   UNL     1       3.329   6.026  18.493  0.00  0.00    +0.000 S 
ATOM     12  O   UNL     1       2.494   5.079  17.792  0.00  0.00    +0.000 OA
ATOM     13  O   UNL     1       3.982   5.689  19.740  0.00  0.00    +0.000 OA
BRANCH  11  14
ATOM     14  N   UNL     1       4.538   6.596  17.462  0.00  0.00    +0.000 NA
ATOM     15  H   UNL     1       4.157   7.254  16.782  0.00  0.00    +0.000 HD
BRANCH  14  17
ATOM     16  C   UNL     1       5.765   4.433  17.670  0.00  0.00    +0.000 C 
ATOM     17  C   UNL     1       5.704   5.803  17.000  0.00  0.00    +0.000 C 
ATOM     18  C   UNL     1       7.006   6.587  17.205  0.00  0.00    +0.000 C 
ATOM     19  C   UNL     1       5.526   5.591  15.483  0.00  0.00    +0.000 C 
ENDBRANCH  14  17
ENDBRANCH  11  14
ENDBRANCH   5  11
ENDBRANCH   1   8
BRANCH   2  20
ATOM     20  C   UNL     1      -0.492  13.323  20.073  0.00  0.00    +0.000 C 
BRANCH  20  21
ATOM     21  N   UNL     1      -0.179  14.456  19.191  0.00  0.00    +0.000 N 
ATOM     22  C   UNL     1       0.076  15.727  19.636  0.00  0.00    +0.000 C 
ATOM     23  O   UNL     1       0.153  16.032  20.820  0.00  0.00    +0.000 OA
ATOM     24  H   UNL     1       0.056  14.218  18.230  0.00  0.00    +0.000 HD
BRANCH  22  25
ATOM     25  C   UNL     1       0.292  16.737  18.568  0.00  0.00    +0.000 A 
ATOM     26  C   UNL     1      -0.761  17.529  18.087  0.00  0.00    +0.000 A 
ATOM     27  C   UNL     1      -0.533  18.436  17.050  0.00  0.00    +0.000 A 
ATOM     28  C   UNL     1       0.743  18.559  16.502  0.00  0.00    +0.000 A 
ATOM     29  C   UNL     1       1.799  17.798  17.005  0.00  0.00    +0.000 A 
ATOM     30  C   UNL     1       1.578  16.894  18.045  0.00  0.00    +0.000 A 
ENDBRANCH  22  25
ENDBRANCH  20  21
BRANCH  20  31
ATOM     31  C   UNL     1      -1.972  12.917  19.989  0.00  0.00    +0.000 C 
BRANCH  31  32
ATOM     32  C   UNL     1      -2.764  12.776  21.277  0.00  0.00    +0.000 A 
ATOM     33  C   UNL     1      -4.138  13.049  21.392  0.00  0.00    +0.000 A 
ATOM     34  C   UNL     1      -4.800  12.891  22.609  0.00  0.00    +0.000 A 
ATOM     35  C   UNL     1      -4.092  12.469  23.722  0.00  0.00    +0.000 A 
ATOM     36  F   UNL     1      -4.727  12.321  24.892  0.00  0.00    +0.000 F 
ATOM     37  C   UNL     1      -2.732  12.203  23.642  0.00  0.00    +0.000 A 
ATOM     38  C   UNL     1      -2.070  12.356  22.423  0.00  0.00    +0.000 A 
ENDBRANCH  31  32
ENDBRANCH  20  31
ENDBRANCH   2  20
TORSDOF 9
ENDMDL
MODEL 3
REMARK VINA RESULT:      -8.5      1.635      2.348
REMARK  Name = 
REMARK  12 active torsions:
REMARK  status: ('A' for Active; 'I' for Inactive)
REMARK    1  A    between atoms: C_1  and  C_2
REMARK    2  A    between atoms: C_2  and  C_3
REMARK    3  A    between atoms: C_2  and  C_4
REMARK    4  A    between atoms: C_2  and  N_5
REMARK    5  A    between atoms: N_5  and  S_6
REMARK    6  A    between atoms: S_6  and  C_9
REMARK    7  A    between atoms: C_12  and  N_13
REMARK    8  A    between atoms: C_14  and  C_16
REMARK    9  A    between atoms: C_16  and  C_17
REMARK   10  A    between atoms: C_16  and  N_25
REMARK   11  A    between atoms: C_17  and  C_18
REMARK   12  A    between atoms: C_26  and  C_28
REMARK                            x       y       z     vdW  Elec       q    Type
REMARK                         _______ _______ _______ _____ _____    ______ ____
ROOT
ATOM      1  N   UNL     1       0.726   9.489  19.967  0.00  0.00    +0.000 N 
ATOM      2  C   UNL     1       0.717  10.078  21.223  0.00  0.00    +0.000 C 
ATOM      3  O   UNL     1       1.503   9.792  22.133  0.00  0.00    +0.000 OA
ATOM      4  H   UNL     1       0.236   9.963  19.219  0.00  0.00    +0.000 HD
ENDROOT
BRANCH   1   8
ATOM      5  C   UNL     1       3.303   6.365  18.810  0.00  0.00    +0.000 A 
ATOM      6  C   UNL     1       3.110   7.439  17.946  0.00  0.00    +0.000 A 
ATOM      7  C   UNL     1       2.275   8.490  18.327  0.00  0.00    +0.000 A 
ATOM      8  C   UNL     1       1.603   8.463  19.556  0.00  0.00    +0.000 A 
ATOM      9  C   UNL     1       1.799   7.372  20.412  0.00  0.00    +0.000 A 
ATOM     10  C   UNL     1       2.638   6.315  20.038  0.00  0.00    +0.000 A 
BRANCH   5  11
ATOM     11  S   UNL     1       4.374   5.031  18.338  0.00  0.00    +0.000 S 
ATOM     12  O   UNL     1       5.720   5.361  18.743  0.00  0.00    +0.000 OA
ATOM     13  O   UNL     1       4.046   4.723  16.962  0.00  0.00    +0.000 OA
BRANCH  11  14
ATOM     14  N   UNL     1       3.798   3.743  19.264  0.00  0.00    +0.000 NA
ATOM     15  H   UNL     1       4.560   3.279  19.757  0.00  0.00    +0.000 HD
BRANCH  14  17
ATOM     16  C   UNL     1       1.744   3.537  17.862  0.00  0.00    +0.000 C 
ATOM     17  C   UNL     1       2.654   2.874  18.892  0.00  0.00    +0.000 C 
ATOM     18  C   UNL     1       1.872   2.445  20.140  0.00  0.00    +0.000 C 
ATOM     19  C   UNL     1       3.249   1.600  18.260  0.00  0.00    +0.000 C 
ENDBRANCH  14  17
ENDBRANCH  11  14
ENDBRANCH   5  11
ENDBRANCH   1   8
BRANCH   2  20
ATOM     20  C   UNL     1      -0.342  11.185  21.482  0.00  0.00    +0.000 C 
BRANCH  20  21
ATOM     21  N   UNL     1      -1.293  11.088  20.366  0.00  0.00    +0.000 N 
ATOM     22  C   UNL     1      -1.680  12.152  19.592  0.00  0.00    +0.000 C 
ATOM     23  O   UNL     1      -1.211  13.277  19.699  0.00  0.00    +0.000 OA
ATOM     24  H   UNL     1      -1.499  10.146  20.040  0.00  0.00    +0.000 HD
BRANCH  22  25
ATOM     25  C   UNL     1      -2.711  11.843  18.568  0.00  0.00    +0.000 A 
ATOM     26  C   UNL     1      -4.079  11.982  18.842  0.00  0.00    +0.000 A 
ATOM     27  C   UNL     1      -5.022  11.639  17.871  0.00  0.00    +0.000 A 
ATOM     28  C   UNL     1      -4.601  11.169  16.628  0.00  0.00    +0.000 A 
ATOM     29  C   UNL     1      -3.239  11.066  16.341  0.00  0.00    +0.000 A 
ATOM     30  C   UNL     1      -2.292  11.413  17.306  0.00  0.00    +0.000 A 
ENDBRANCH  22  25
ENDBRANCH  20  21
BRANCH  20  31
ATOM     31  C   UNL     1      -1.047  11.128  22.847  0.00  0.00    +0.000 C 
BRANCH  31  32
ATOM     32  C   UNL     1      -1.919  12.298  23.266  0.00  0.00    +0.000 A 
ATOM     33  C   UNL     1      -3.286  12.192  23.574  0.00  0.00    +0.000 A 
ATOM     34  C   UNL     1      -4.023  13.312  23.958  0.00  0.00    +0.000 A 
ATOM     35  C   UNL     1      -3.401  14.548  24.027  0.00  0.00    +0.000 A 
ATOM     36  F   UNL     1      -4.110  15.625  24.392  0.00  0.00    +0.000 F 
ATOM     37  C   UNL     1      -2.056  14.687  23.718  0.00  0.00    +0.000 A 
ATOM     38  C   UNL     1      -1.316  13.565  23.339  0.00  0.00    +0.000 A 
ENDBRANCH  31  32
ENDBRANCH  20  31
ENDBRANCH   2  20
TORSDOF 9
ENDMDL
MODEL 4
REMARK VINA RESULT:      -8.4      3.399      4.404
REMARK  Name = 
REMARK  12 active torsions:
REMARK  status: ('A' for Active; 'I' for Inactive)
REMARK    1  A    between atoms: C_1  and  C_2
REMARK    2  A    between atoms: C_2  and  C_3
REMARK    3  A    between atoms: C_2  and  C_4
REMARK    4  A    between atoms: C_2  and  N_5
REMARK    5  A    between atoms: N_5  and  S_6
REMARK    6  A    between atoms: S_6  and  C_9
REMARK    7  A    between atoms: C_12  and  N_13
REMARK    8  A    between atoms: C_14  and  C_16
REMARK    9  A    between atoms: C_16  and  C_17
REMARK   10  A    between atoms: C_16  and  N_25
REMARK   11  A    between atoms: C_17  and  C_18
REMARK   12  A    between atoms: C_26  and  C_28
REMARK                            x       y       z     vdW  Elec       q    Type
REMARK                         _______ _______ _______ _____ _____    ______ ____
ROOT
ATOM      1  N   UNL     1       0.244  10.642  19.890  0.00  0.00    +0.000 N 
ATOM      2  C   UNL     1       0.630  11.932  19.554  0.00  0.00    +0.000 C 
ATOM      3  O   UNL     1       1.652  12.211  18.919  0.00  0.00    +0.000 OA
ATOM      4  H   UNL     1      -0.718  10.493  20.167  0.00  0.00    +0.000 HD
ENDROOT
BRANCH   1   8
ATOM      5  C   UNL     1       2.379   7.106  19.072  0.00  0.00    +0.000 A 
ATOM      6  C   UNL     1       2.136   8.004  18.037  0.00  0.00    +0.000 A 
ATOM      7  C   UNL     1       1.448   9.190  18.301  0.00  0.00    +0.000 A 
ATOM      8  C   UNL     1       0.971   9.471  19.588  0.00  0.00    +0.000 A 
ATOM      9  C   UNL     1       1.215   8.554  20.618  0.00  0.00    +0.000 A 
ATOM     10  C   UNL     1       1.907   7.364  20.362  0.00  0.00    +0.000 A 
BRANCH   5  11
ATOM     11  S   UNL     1       3.265   5.602  18.748  0.00  0.00    +0.000 S 
ATOM     12  O   UNL     1       4.673   5.912  18.662  0.00  0.00    +0.000 OA
ATOM     13  O   UNL     1       2.562   4.949  17.664  0.00  0.00    +0.000 OA
BRANCH  11  14
ATOM     14  N   UNL     1       2.964   4.684  20.132  0.00  0.00    +0.000 NA
ATOM     15  H   UNL     1       3.660   4.872  20.853  0.00  0.00    +0.000 HD
BRANCH  14  17
ATOM     16  C   UNL     1       3.188   2.362  19.245  0.00  0.00    +0.000 C 
ATOM     17  C   UNL     1       2.394   3.314  20.135  0.00  0.00    +0.000 C 
ATOM     18  C   UNL     1       0.911   3.344  19.745  0.00  0.00    +0.000 C 
ATOM     19  C   UNL     1       2.480   2.800  21.587  0.00  0.00    +0.000 C 
ENDBRANCH  14  17
ENDBRANCH  11  14
ENDBRANCH   5  11
ENDBRANCH   1   8
BRANCH   2  20
ATOM     20  C   UNL     1      -0.307  13.091  19.993  0.00  0.00    +0.000 C 
BRANCH  20  21
ATOM     21  N   UNL     1       0.056  14.233  19.142  0.00  0.00    +0.000 N 
ATOM     22  C   UNL     1       0.067  15.536  19.568  0.00  0.00    +0.000 C 
ATOM     23  O   UNL     1      -0.144  15.876  20.726  0.00  0.00    +0.000 OA
ATOM     24  H   UNL     1       0.514  14.002  18.263  0.00  0.00    +0.000 HD
BRANCH  22  25
ATOM     25  C   UNL     1       0.388  16.539  18.521  0.00  0.00    +0.000 A 
ATOM     26  C   UNL     1       1.709  16.767  18.107  0.00  0.00    +0.000 A 
ATOM     27  C   UNL     1       1.980  17.750  17.153  0.00  0.00    +0.000 A 
ATOM     28  C   UNL     1       0.936  18.495  16.607  0.00  0.00    +0.000 A 
ATOM     29  C   UNL     1      -0.382  18.244  16.991  0.00  0.00    +0.000 A 
ATOM     30  C   UNL     1      -0.659  17.259  17.939  0.00  0.00    +0.000 A 
ENDBRANCH  22  25
ENDBRANCH  20  21
BRANCH  20  31
ATOM     31  C   UNL     1      -1.813  12.789  19.943  0.00  0.00    +0.000 C 
BRANCH  31  32
ATOM     32  C   UNL     1      -2.578  12.675  21.249  0.00  0.00    +0.000 A 
ATOM     33  C   UNL     1      -2.021  12.200  22.450  0.00  0.00    +0.000 A 
ATOM     34  C   UNL     1      -2.785  12.129  23.615  0.00  0.00    +0.000 A 
ATOM     35  C   UNL     1      -4.113  12.521  23.585  0.00  0.00    +0.000 A 
ATOM     36  F   UNL     1      -4.848  12.449  24.703  0.00  0.00    +0.000 F 
ATOM     37  C   UNL     1      -4.694  12.983  22.413  0.00  0.00    +0.000 A 
ATOM     38  C   UNL     1      -3.928  13.060  21.248  0.00  0.00    +0.000 A 
ENDBRANCH  31  32
ENDBRANCH  20  31
ENDBRANCH   2  20
TORSDOF 9
ENDMDL
MODEL 5
REMARK VINA RESULT:      -8.3      3.325      4.110
REMARK  Name = 
REMARK  12 active torsions:
REMARK  status: ('A' for Active; 'I' for Inactive)
REMARK    1  A    between atoms: C_1  and  C_2
REMARK    2  A    between atoms: C_2  and  C_3
REMARK    3  A    between atoms: C_2  and  C_4
REMARK    4  A    between atoms: C_2  and  N_5
REMARK    5  A    between atoms: N_5  and  S_6
REMARK    6  A    between atoms: S_6  and  C_9
REMARK    7  A    between atoms: C_12  and  N_13
REMARK    8  A    between atoms: C_14  and  C_16
REMARK    9  A    between atoms: C_16  and  C_17
REMARK   10  A    between atoms: C_16  and  N_25
REMARK   11  A    between atoms: C_17  and  C_18
REMARK   12  A    between atoms: C_26  and  C_28
REMARK                            x       y       z     vdW  Elec       q    Type
REMARK                         _______ _______ _______ _____ _____    ______ ____
ROOT
ATOM      1  N   UNL     1       0.045  10.833  19.706  0.00  0.00    +0.000 N 
ATOM      2  C   UNL     1       0.560  12.120  19.760  0.00  0.00    +0.000 C 
ATOM      3  O   UNL     1       1.744  12.407  19.556  0.00  0.00    +0.000 OA
ATOM      4  H   UNL     1      -0.958  10.727  19.622  0.00  0.00    +0.000 HD
ENDROOT
BRANCH   1   8
ATOM      5  C   UNL     1       2.322   7.396  18.841  0.00  0.00    +0.000 A 
ATOM      6  C   UNL     1       1.902   7.619  20.149  0.00  0.00    +0.000 A 
ATOM      7  C   UNL     1       1.129   8.743  20.444  0.00  0.00    +0.000 A 
ATOM      8  C   UNL     1       0.797   9.667  19.445  0.00  0.00    +0.000 A 
ATOM      9  C   UNL     1       1.234   9.436  18.134  0.00  0.00    +0.000 A 
ATOM     10  C   UNL     1       2.007   8.309  17.830  0.00  0.00    +0.000 A 
BRANCH   5  11
ATOM     11  S   UNL     1       3.294   5.962  18.455  0.00  0.00    +0.000 S 
ATOM     12  O   UNL     1       2.416   4.945  17.925  0.00  0.00    +0.000 OA
ATOM     13  O   UNL     1       4.126   5.720  19.615  0.00  0.00    +0.000 OA
BRANCH  11  14
ATOM     14  N   UNL     1       4.322   6.522  17.240  0.00  0.00    +0.000 NA
ATOM     15  H   UNL     1       3.813   7.095  16.568  0.00  0.00    +0.000 HD
BRANCH  14  17
ATOM     16  C   UNL     1       5.488   5.766  15.167  0.00  0.00    +0.000 C 
ATOM     17  C   UNL     1       5.479   5.770  16.693  0.00  0.00    +0.000 C 
ATOM     18  C   UNL     1       5.515   4.346  17.259  0.00  0.00    +0.000 C 
ATOM     19  C   UNL     1       6.750   6.494  17.181  0.00  0.00    +0.000 C 
ENDBRANCH  14  17
ENDBRANCH  11  14
ENDBRANCH   5  11
ENDBRANCH   1   8
BRANCH   2  20
ATOM     20  C   UNL     1      -0.435  13.270  20.077  0.00  0.00    +0.000 C 
BRANCH  20  21
ATOM     21  N   UNL     1      -0.048  14.380  19.193  0.00  0.00    +0.000 N 
ATOM     22  C   UNL     1      -0.048  15.697  19.571  0.00  0.00    +0.000 C 
ATOM     23  O   UNL     1      -0.290  16.080  20.708  0.00  0.00    +0.000 OA
ATOM     24  H   UNL     1       0.434  14.116  18.337  0.00  0.00    +0.000 HD
BRANCH  22  25
ATOM     25  C   UNL     1       0.303  16.660  18.495  0.00  0.00    +0.000 A 
ATOM     26  C   UNL     1       1.633  16.856  18.094  0.00  0.00    +0.000 A 
ATOM     27  C   UNL     1       1.931  17.803  17.112  0.00  0.00    +0.000 A 
ATOM     28  C   UNL     1       0.906  18.544  16.525  0.00  0.00    +0.000 A 
ATOM     29  C   UNL     1      -0.421  18.323  16.897  0.00  0.00    +0.000 A 
ATOM     30  C   UNL     1      -0.726  17.374  17.874  0.00  0.00    +0.000 A 
ENDBRANCH  22  25
ENDBRANCH  20  21
BRANCH  20  31
ATOM     31  C   UNL     1      -1.926  12.920  19.945  0.00  0.00    +0.000 C 
BRANCH  31  32
ATOM     32  C   UNL     1      -2.758  12.786  21.207  0.00  0.00    +0.000 A 
ATOM     33  C   UNL     1      -4.123  13.114  21.291  0.00  0.00    +0.000 A 
ATOM     34  C   UNL     1      -4.825  12.959  22.486  0.00  0.00    +0.000 A 
ATOM     35  C   UNL     1      -4.166  12.486  23.608  0.00  0.00    +0.000 A 
ATOM     36  F   UNL     1      -4.840  12.340  24.757  0.00  0.00    +0.000 F 
ATOM     37  C   UNL     1      -2.817  12.164  23.560  0.00  0.00    +0.000 A 
ATOM     38  C   UNL     1      -2.115  12.314  22.363  0.00  0.00    +0.000 A 
ENDBRANCH  31  32
ENDBRANCH  20  31
ENDBRANCH   2  20
TORSDOF 9
ENDMDL
MODEL 6
REMARK VINA RESULT:      -8.3      2.111      2.927
REMARK  Name = 
REMARK  12 active torsions:
REMARK  status: ('A' for Active; 'I' for Inactive)
REMARK    1  A    between atoms: C_1  and  C_2
REMARK    2  A    between atoms: C_2  and  C_3
REMARK    3  A    between atoms: C_2  and  C_4
REMARK    4  A    between atoms: C_2  and  N_5
REMARK    5  A    between atoms: N_5  and  S_6
REMARK    6  A    between atoms: S_6  and  C_9
REMARK    7  A    between atoms: C_12  and  N_13
REMARK    8  A    between atoms: C_14  and  C_16
REMARK    9  A    between atoms: C_16  and  C_17
REMARK   10  A    between atoms: C_16  and  N_25
REMARK   11  A    between atoms: C_17  and  C_18
REMARK   12  A    between atoms: C_26  and  C_28
REMARK                            x       y       z     vdW  Elec       q    Type
REMARK                         _______ _______ _______ _____ _____    ______ ____
ROOT
ATOM      1  N   UNL     1       0.648  10.370  19.641  0.00  0.00    +0.000 N 
ATOM      2  C   UNL     1       0.544  11.042  20.850  0.00  0.00    +0.000 C 
ATOM      3  O   UNL     1       1.057  10.659  21.907  0.00  0.00    +0.000 OA
ATOM      4  H   UNL     1       0.431  10.881  18.795  0.00  0.00    +0.000 HD
ENDROOT
BRANCH   1   8
ATOM      5  C   UNL     1       2.703   6.753  18.985  0.00  0.00    +0.000 A 
ATOM      6  C   UNL     1       2.119   6.984  20.227  0.00  0.00    +0.000 A 
ATOM      7  C   UNL     1       1.417   8.170  20.449  0.00  0.00    +0.000 A 
ATOM      8  C   UNL     1       1.320   9.144  19.447  0.00  0.00    +0.000 A 
ATOM      9  C   UNL     1       1.920   8.902  18.205  0.00  0.00    +0.000 A 
ATOM     10  C   UNL     1       2.622   7.714  17.973  0.00  0.00    +0.000 A 
BRANCH   5  11
ATOM     11  S   UNL     1       3.585   5.241  18.689  0.00  0.00    +0.000 S 
ATOM     12  O   UNL     1       4.997   5.540  18.635  0.00  0.00    +0.000 OA
ATOM     13  O   UNL     1       2.903   4.588  17.592  0.00  0.00    +0.000 OA
BRANCH  11  14
ATOM     14  N   UNL     1       3.245   4.332  20.070  0.00  0.00    +0.000 NA
ATOM     15  H   UNL     1       4.040   4.327  20.708  0.00  0.00    +0.000 HD
BRANCH  14  17
ATOM     16  C   UNL     1       2.920   2.029  19.167  0.00  0.00    +0.000 C 
ATOM     17  C   UNL     1       2.394   3.117  20.099  0.00  0.00    +0.000 C 
ATOM     18  C   UNL     1       0.935   3.470  19.785  0.00  0.00    +0.000 C 
ATOM     19  C   UNL     1       2.438   2.577  21.543  0.00  0.00    +0.000 C 
ENDBRANCH  14  17
ENDBRANCH  11  14
ENDBRANCH   5  11
ENDBRANCH   1   8
BRANCH   2  20
ATOM     20  C   UNL     1      -0.254  12.375  20.856  0.00  0.00    +0.000 C 
BRANCH  20  21
ATOM     21  N   UNL     1      -1.550  12.060  20.237  0.00  0.00    +0.000 N 
ATOM     22  C   UNL     1      -1.838  12.269  18.913  0.00  0.00    +0.000 C 
ATOM     23  O   UNL     1      -1.020  12.662  18.091  0.00  0.00    +0.000 OA
ATOM     24  H   UNL     1      -2.172  11.472  20.787  0.00  0.00    +0.000 HD
BRANCH  22  25
ATOM     25  C   UNL     1      -3.235  11.953  18.516  0.00  0.00    +0.000 A 
ATOM     26  C   UNL     1      -3.532  11.411  17.257  0.00  0.00    +0.000 A 
ATOM     27  C   UNL     1      -4.860  11.169  16.900  0.00  0.00    +0.000 A 
ATOM     28  C   UNL     1      -5.886  11.458  17.798  0.00  0.00    +0.000 A 
ATOM     29  C   UNL     1      -5.589  11.963  19.065  0.00  0.00    +0.000 A 
ATOM     30  C   UNL     1      -4.263  12.201  19.430  0.00  0.00    +0.000 A 
ENDBRANCH  22  25
ENDBRANCH  20  21
BRANCH  20  31
ATOM     31  C   UNL     1      -0.419  13.048  22.228  0.00  0.00    +0.000 C 
BRANCH  31  32
ATOM     32  C   UNL     1      -1.820  13.265  22.770  0.00  0.00    +0.000 A 
ATOM     33  C   UNL     1      -2.579  12.274  23.417  0.00  0.00    +0.000 A 
ATOM     34  C   UNL     1      -3.860  12.549  23.894  0.00  0.00    +0.000 A 
ATOM     35  C   UNL     1      -4.396  13.813  23.720  0.00  0.00    +0.000 A 
ATOM     36  F   UNL     1      -5.629  14.077  24.175  0.00  0.00    +0.000 F 
ATOM     37  C   UNL     1      -3.677  14.810  23.075  0.00  0.00    +0.000 A 
ATOM     38  C   UNL     1      -2.393  14.537  22.602  0.00  0.00    +0.000 A 
ENDBRANCH  31  32
ENDBRANCH  20  31
ENDBRANCH   2  20
TORSDOF 9
ENDMDL
MODEL 7
REMARK VINA RESULT:      -8.3      2.437      3.606
REMARK  Name = 
REMARK  12 active torsions:
REMARK  status: ('A' for Active; 'I' for Inactive)
REMARK    1  A    between atoms: C_1  and  C_2
REMARK    2  A    between atoms: C_2  and  C_3
REMARK    3  A    between atoms: C_2  and  C_4
REMARK    4  A    between atoms: C_2  and  N_5
REMARK    5  A    between atoms: N_5  and  S_6
REMARK    6  A    between atoms: S_6  and  C_9
REMARK    7  A    between atoms: C_12  and  N_13
REMARK    8  A    between atoms: C_14  and  C_16
REMARK    9  A    between atoms: C_16  and  C_17
REMARK   10  A    between atoms: C_16  and  N_25
REMARK   11  A    between atoms: C_17  and  C_18
REMARK   12  A    between atoms: C_26  and  C_28
REMARK                            x       y       z     vdW  Elec       q    Type
REMARK                         _______ _______ _______ _____ _____    ______ ____
ROOT
ATOM      1  N   UNL     1       0.580  10.394  18.985  0.00  0.00    +0.000 N 
ATOM      2  C   UNL     1      -0.592  10.603  18.271  0.00  0.00    +0.000 C 
ATOM      3  O   UNL     1      -1.156   9.741  17.589  0.00  0.00    +0.000 OA
ATOM      4  H   UNL     1       0.816  11.058  19.712  0.00  0.00    +0.000 HD
ENDROOT
BRANCH   1   8
ATOM      5  C   UNL     1       2.820   6.828  18.983  0.00  0.00    +0.000 A 
ATOM      6  C   UNL     1       2.099   7.174  20.122  0.00  0.00    +0.000 A 
ATOM      7  C   UNL     1       1.336   8.342  20.127  0.00  0.00    +0.000 A 
ATOM      8  C   UNL     1       1.312   9.188  19.010  0.00  0.00    +0.000 A 
ATOM      9  C   UNL     1       2.050   8.833  17.874  0.00  0.00    +0.000 A 
ATOM     10  C   UNL     1       2.815   7.661  17.861  0.00  0.00    +0.000 A 
BRANCH   5  11
ATOM     11  S   UNL     1       3.783   5.336  18.964  0.00  0.00    +0.000 S 
ATOM     12  O   UNL     1       5.162   5.680  19.222  0.00  0.00    +0.000 OA
ATOM     13  O   UNL     1       3.387   4.622  17.769  0.00  0.00    +0.000 OA
BRANCH  11  14
ATOM     14  N   UNL     1       3.155   4.468  20.268  0.00  0.00    +0.000 NA
ATOM     15  H   UNL     1       3.808   4.463  21.050  0.00  0.00    +0.000 HD
BRANCH  14  17
ATOM     16  C   UNL     1       2.959   2.150  19.366  0.00  0.00    +0.000 C 
ATOM     17  C   UNL     1       2.285   3.271  20.151  0.00  0.00    +0.000 C 
ATOM     18  C   UNL     1       0.927   3.646  19.544  0.00  0.00    +0.000 C 
ATOM     19  C   UNL     1       2.027   2.768  21.586  0.00  0.00    +0.000 C 
ENDBRANCH  14  17
ENDBRANCH  11  14
ENDBRANCH   5  11
ENDBRANCH   1   8
BRANCH   2  20
ATOM     20  C   UNL     1      -1.239  12.012  18.363  0.00  0.00    +0.000 C 
BRANCH  20  21
ATOM     21  N   UNL     1      -2.583  11.792  18.915  0.00  0.00    +0.000 N 
ATOM     22  C   UNL     1      -3.720  11.703  18.154  0.00  0.00    +0.000 C 
ATOM     23  O   UNL     1      -3.723  11.715  16.930  0.00  0.00    +0.000 OA
ATOM     24  H   UNL     1      -2.619  11.489  19.886  0.00  0.00    +0.000 HD
BRANCH  22  25
ATOM     25  C   UNL     1      -4.983  11.557  18.924  0.00  0.00    +0.000 A 
ATOM     26  C   UNL     1      -5.951  10.608  18.566  0.00  0.00    +0.000 A 
ATOM     27  C   UNL     1      -7.147  10.530  19.283  0.00  0.00    +0.000 A 
ATOM     28  C   UNL     1      -7.371  11.388  20.359  0.00  0.00    +0.000 A 
ATOM     29  C   UNL     1      -6.392  12.308  20.738  0.00  0.00    +0.000 A 
ATOM     30  C   UNL     1      -5.193  12.387  20.029  0.00  0.00    +0.000 A 
ENDBRANCH  22  25
ENDBRANCH  20  21
BRANCH  20  31
ATOM     31  C   UNL     1      -0.449  13.058  19.167  0.00  0.00    +0.000 C 
BRANCH  31  32
ATOM     32  C   UNL     1      -0.895  13.378  20.583  0.00  0.00    +0.000 A 
ATOM     33  C   UNL     1      -0.590  12.586  21.703  0.00  0.00    +0.000 A 
ATOM     34  C   UNL     1      -1.029  12.947  22.977  0.00  0.00    +0.000 A 
ATOM     35  C   UNL     1      -1.785  14.096  23.138  0.00  0.00    +0.000 A 
ATOM     36  F   UNL     1      -2.211  14.441  24.361  0.00  0.00    +0.000 F 
ATOM     37  C   UNL     1      -2.113  14.892  22.050  0.00  0.00    +0.000 A 
ATOM     38  C   UNL     1      -1.669  14.534  20.775  0.00  0.00    +0.000 A 
ENDBRANCH  31  32
ENDBRANCH  20  31
ENDBRANCH   2  20
TORSDOF 9
ENDMDL
MODEL 8
REMARK VINA RESULT:      -8.3      3.165      4.556
REMARK  Name = 
REMARK  12 active torsions:
REMARK  status: ('A' for Active; 'I' for Inactive)
REMARK    1  A    between atoms: C_1  and  C_2
REMARK    2  A    between atoms: C_2  and  C_3
REMARK    3  A    between atoms: C_2  and  C_4
REMARK    4  A    between atoms: C_2  and  N_5
REMARK    5  A    between atoms: N_5  and  S_6
REMARK    6  A    between atoms: S_6  and  C_9
REMARK    7  A    between atoms: C_12  and  N_13
REMARK    8  A    between atoms: C_14  and  C_16
REMARK    9  A    between atoms: C_16  and  C_17
REMARK   10  A    between atoms: C_16  and  N_25
REMARK   11  A    between atoms: C_17  and  C_18
REMARK   12  A    between atoms: C_26  and  C_28
REMARK                            x       y       z     vdW  Elec       q    Type
REMARK                         _______ _______ _______ _____ _____    ______ ____
ROOT
ATOM      1  N   UNL     1       0.813  10.499  19.979  0.00  0.00    +0.000 N 
ATOM      2  C   UNL     1      -0.500  10.858  19.706  0.00  0.00    +0.000 C 
ATOM      3  O   UNL     1      -1.331  10.113  19.175  0.00  0.00    +0.000 OA
ATOM      4  H   UNL     1       1.329  11.062  20.642  0.00  0.00    +0.000 HD
ENDROOT
BRANCH   1   8
ATOM      5  C   UNL     1       2.605   6.828  18.957  0.00  0.00    +0.000 A 
ATOM      6  C   UNL     1       2.086   6.994  20.237  0.00  0.00    +0.000 A 
ATOM      7  C   UNL     1       1.471   8.199  20.581  0.00  0.00    +0.000 A 
ATOM      8  C   UNL     1       1.397   9.254  19.662  0.00  0.00    +0.000 A 
ATOM      9  C   UNL     1       1.932   9.076  18.380  0.00  0.00    +0.000 A 
ATOM     10  C   UNL     1       2.548   7.870  18.027  0.00  0.00    +0.000 A 
BRANCH   5  11
ATOM     11  S   UNL     1       3.378   5.294  18.508  0.00  0.00    +0.000 S 
ATOM     12  O   UNL     1       4.276   4.906  19.570  0.00  0.00    +0.000 OA
ATOM     13  O   UNL     1       3.837   5.462  17.145  0.00  0.00    +0.000 OA
BRANCH  11  14
ATOM     14  N   UNL     1       2.075   4.223  18.441  0.00  0.00    +0.000 NA
ATOM     15  H   UNL     1       1.203   4.721  18.265  0.00  0.00    +0.000 HD
BRANCH  14  17
ATOM     16  C   UNL     1       1.774   3.282  20.733  0.00  0.00    +0.000 C 
ATOM     17  C   UNL     1       1.952   2.983  19.247  0.00  0.00    +0.000 C 
ATOM     18  C   UNL     1       3.149   2.057  19.000  0.00  0.00    +0.000 C 
ATOM     19  C   UNL     1       0.690   2.251  18.748  0.00  0.00    +0.000 C 
ENDBRANCH  14  17
ENDBRANCH  11  14
ENDBRANCH   5  11
ENDBRANCH   1   8
BRANCH   2  20
ATOM     20  C   UNL     1      -0.948  12.286  20.123  0.00  0.00    +0.000 C 
BRANCH  20  21
ATOM     21  N   UNL     1      -0.047  13.204  19.411  0.00  0.00    +0.000 N 
ATOM     22  C   UNL     1       1.113  13.706  19.940  0.00  0.00    +0.000 C 
ATOM     23  O   UNL     1       1.562  13.377  21.031  0.00  0.00    +0.000 OA
ATOM     24  H   UNL     1      -0.206  13.291  18.409  0.00  0.00    +0.000 HD
BRANCH  22  25
ATOM     25  C   UNL     1       1.830  14.679  19.076  0.00  0.00    +0.000 A 
ATOM     26  C   UNL     1       3.051  14.355  18.467  0.00  0.00    +0.000 A 
ATOM     27  C   UNL     1       3.721  15.309  17.699  0.00  0.00    +0.000 A 
ATOM     28  C   UNL     1       3.169  16.578  17.530  0.00  0.00    +0.000 A 
ATOM     29  C   UNL     1       1.936  16.890  18.105  0.00  0.00    +0.000 A 
ATOM     30  C   UNL     1       1.260  15.938  18.869  0.00  0.00    +0.000 A 
ENDBRANCH  22  25
ENDBRANCH  20  21
BRANCH  20  31
ATOM     31  C   UNL     1      -2.427  12.621  19.875  0.00  0.00    +0.000 C 
BRANCH  31  32
ATOM     32  C   UNL     1      -3.363  12.712  21.067  0.00  0.00    +0.000 A 
ATOM     33  C   UNL     1      -4.758  12.859  20.965  0.00  0.00    +0.000 A 
ATOM     34  C   UNL     1      -5.556  12.930  22.106  0.00  0.00    +0.000 A 
ATOM     35  C   UNL     1      -4.966  12.866  23.357  0.00  0.00    +0.000 A 
ATOM     36  F   UNL     1      -5.732  12.938  24.454  0.00  0.00    +0.000 F 
ATOM     37  C   UNL     1      -3.591  12.732  23.491  0.00  0.00    +0.000 A 
ATOM     38  C   UNL     1      -2.792  12.655  22.349  0.00  0.00    +0.000 A 
ENDBRANCH  31  32
ENDBRANCH  20  31
ENDBRANCH   2  20
TORSDOF 9
ENDMDL
MODEL 9
REMARK VINA RESULT:      -8.3      3.103      4.927
REMARK  Name = 
REMARK  12 active torsions:
REMARK  status: ('A' for Active; 'I' for Inactive)
REMARK    1  A    between atoms: C_1  and  C_2
REMARK    2  A    between atoms: C_2  and  C_3
REMARK    3  A    between atoms: C_2  and  C_4
REMARK    4  A    between atoms: C_2  and  N_5
REMARK    5  A    between atoms: N_5  and  S_6
REMARK    6  A    between atoms: S_6  and  C_9
REMARK    7  A    between atoms: C_12  and  N_13
REMARK    8  A    between atoms: C_14  and  C_16
REMARK    9  A    between atoms: C_16  and  C_17
REMARK   10  A    between atoms: C_16  and  N_25
REMARK   11  A    between atoms: C_17  and  C_18
REMARK   12  A    between atoms: C_26  and  C_28
REMARK                            x       y       z     vdW  Elec       q    Type
REMARK                         _______ _______ _______ _____ _____    ______ ____
ROOT
ATOM      1  N   UNL     1       0.709  10.018  19.145  0.00  0.00    +0.000 N 
ATOM      2  C   UNL     1      -0.422  10.265  18.381  0.00  0.00    +0.000 C 
ATOM      3  O   UNL     1      -0.889   9.477  17.551  0.00  0.00    +0.000 OA
ATOM      4  H   UNL     1       0.858  10.587  19.968  0.00  0.00    +0.000 HD
ENDROOT
BRANCH   1   8
ATOM      5  C   UNL     1       3.142   6.595  18.831  0.00  0.00    +0.000 A 
ATOM      6  C   UNL     1       2.407   6.798  19.995  0.00  0.00    +0.000 A 
ATOM      7  C   UNL     1       1.580   7.917  20.102  0.00  0.00    +0.000 A 
ATOM      8  C   UNL     1       1.507   8.857  19.065  0.00  0.00    +0.000 A 
ATOM      9  C   UNL     1       2.260   8.645  17.903  0.00  0.00    +0.000 A 
ATOM     10  C   UNL     1       3.088   7.522  17.787  0.00  0.00    +0.000 A 
BRANCH   5  11
ATOM     11  S   UNL     1       4.185   5.166  18.681  0.00  0.00    +0.000 S 
ATOM     12  O   UNL     1       5.401   5.409  19.423  0.00  0.00    +0.000 OA
ATOM     13  O   UNL     1       4.206   4.833  17.273  0.00  0.00    +0.000 OA
BRANCH  11  14
ATOM     14  N   UNL     1       3.282   3.961  19.442  0.00  0.00    +0.000 NA
ATOM     15  H   UNL     1       3.886   3.324  19.959  0.00  0.00    +0.000 HD
BRANCH  14  17
ATOM     16  C   UNL     1       1.519   4.126  17.684  0.00  0.00    +0.000 C 
ATOM     17  C   UNL     1       2.036   3.363  18.901  0.00  0.00    +0.000 C 
ATOM     18  C   UNL     1       0.966   3.258  19.995  0.00  0.00    +0.000 C 
ATOM     19  C   UNL     1       2.387   1.929  18.458  0.00  0.00    +0.000 C 
ENDBRANCH  14  17
ENDBRANCH  11  14
ENDBRANCH   5  11
ENDBRANCH   1   8
BRANCH   2  20
ATOM     20  C   UNL     1      -1.155  11.615  18.610  0.00  0.00    +0.000 C 
BRANCH  20  21
ATOM     21  N   UNL     1      -0.139  12.655  18.394  0.00  0.00    +0.000 N 
ATOM     22  C   UNL     1      -0.035  13.797  19.146  0.00  0.00    +0.000 C 
ATOM     23  O   UNL     1      -0.727  14.029  20.130  0.00  0.00    +0.000 OA
ATOM     24  H   UNL     1       0.637  12.397  17.788  0.00  0.00    +0.000 HD
BRANCH  22  25
ATOM     25  C   UNL     1       1.015  14.749  18.704  0.00  0.00    +0.000 A 
ATOM     26  C   UNL     1       0.794  16.134  18.705  0.00  0.00    +0.000 A 
ATOM     27  C   UNL     1       1.787  16.998  18.239  0.00  0.00    +0.000 A 
ATOM     28  C   UNL     1       3.000  16.483  17.783  0.00  0.00    +0.000 A 
ATOM     29  C   UNL     1       3.234  15.107  17.816  0.00  0.00    +0.000 A 
ATOM     30  C   UNL     1       2.248  14.240  18.286  0.00  0.00    +0.000 A 
ENDBRANCH  22  25
ENDBRANCH  20  21
BRANCH  20  31
ATOM     31  C   UNL     1      -2.410  11.848  17.755  0.00  0.00    +0.000 C 
BRANCH  31  32
ATOM     32  C   UNL     1      -3.772  11.766  18.422  0.00  0.00    +0.000 A 
ATOM     33  C   UNL     1      -4.090  12.383  19.645  0.00  0.00    +0.000 A 
ATOM     34  C   UNL     1      -5.366  12.269  20.194  0.00  0.00    +0.000 A 
ATOM     35  C   UNL     1      -6.331  11.529  19.531  0.00  0.00    +0.000 A 
ATOM     36  F   UNL     1      -7.557  11.416  20.061  0.00  0.00    +0.000 F 
ATOM     37  C   UNL     1      -6.045  10.899  18.329  0.00  0.00    +0.000 A 
ATOM     38  C   UNL     1      -4.769  11.017  17.775  0.00  0.00    +0.000 A 
ENDBRANCH  31  32
ENDBRANCH  20  31
ENDBRANCH   2  20
TORSDOF 9
ENDMDL
