MODEL 1
REMARK VINA RESULT:      -7.9      0.000      0.000
REMARK  Name = 
REMARK  10 active torsions:
REMARK  status: ('A' for Active; 'I' for Inactive)
REMARK    1  A    between atoms: C_1  and  C_2
REMARK    2  A    between atoms: C_2  and  C_3
REMARK    3  A    between atoms: C_2  and  C_4
REMARK    4  A    between atoms: C_4  and  C_5
REMARK    5  A    between atoms: C_8  and  C_10
REMARK    6  A    between atoms: C_12  and  C_13
REMARK    7  A    between atoms: C_19  and  C_20
REMARK    8  A    between atoms: C_20  and  C_21
REMARK    9  A    between atoms: C_21  and  C_22
REMARK   10  A    between atoms: C_21  and  C_23
REMARK                            x       y       z     vdW  Elec       q    Type
REMARK                         _______ _______ _______ _____ _____    ______ ____
ROOT
ATOM      1  C   UNL     1       1.037   3.063  18.373  0.00  0.00    +0.000 C 
ATOM      2  C   UNL     1       1.397   4.241  17.440  0.00  0.00    +0.000 C 
ATOM      3  N   UNL     1       2.767   4.724  17.665  0.00  0.00    +0.000 N 
ATOM      4  C   UNL     1       3.088   6.030  18.056  0.00  0.00    +0.000 C 
ATOM      5  O   UNL     1       4.239   6.402  18.250  0.00  0.00    +0.000 OA
ATOM      6  C   UNL     1       3.783   3.629  17.455  0.00  0.00    +0.000 C 
ATOM      7  C   UNL     1       3.390   2.389  18.316  0.00  0.00    +0.000 C 
ATOM      8  N   UNL     1       1.991   1.954  18.190  0.00  0.00    +0.000 NA
ATOM      9  H   UNL     1       1.805   1.220  18.872  0.00  0.00    +0.000 HD
ENDROOT
BRANCH   4  10
ATOM     10  C   UNL     1       1.985   7.049  18.272  0.00  0.00    +0.000 C 
ATOM     11  C   UNL     1       2.203   8.460  17.769  0.00  0.00    +0.000 C 
ATOM     12  C   UNL     1       2.214   8.188  19.256  0.00  0.00    +0.000 C 
BRANCH  12  13
ATOM     13  C   UNL     1       1.150   8.914  20.069  0.00  0.00    +0.000 A 
ATOM     14  C   UNL     1       0.393  10.000  19.597  0.00  0.00    +0.000 A 
ATOM     15  C   UNL     1      -0.520  10.672  20.421  0.00  0.00    +0.000 A 
ATOM     16  C   UNL     1      -0.701  10.273  21.741  0.00  0.00    +0.000 A 
ATOM     17  C   UNL     1       0.020   9.192  22.234  0.00  0.00    +0.000 A 
ATOM     18  C   UNL     1       0.931   8.528  21.407  0.00  0.00    +0.000 A 
ENDBRANCH  12  13
ENDBRANCH   4  10
BRANCH   1  19
ATOM     19  C   UNL     1       0.896   3.452  19.868  0.00  0.00    +0.000 C 
BRANCH  19  21
ATOM     20  C   UNL     1       2.494   4.890  21.252  0.00  0.00    +0.000 C 
ATOM     21  C   UNL     1       2.222   3.507  20.659  0.00  0.00    +0.000 C 
ATOM     22  C   UNL     1       2.242   2.471  21.790  0.00  0.00    +0.000 C 
ENDBRANCH  19  21
ENDBRANCH   1  19
BRANCH   6  23
ATOM     23  C   UNL     1       5.280   3.977  17.661  0.00  0.00    +0.000 C 
BRANCH  23  24
ATOM     24  C   UNL     1       6.147   4.163  16.389  0.00  0.00    +0.000 C 
ATOM     25  C   UNL     1       5.338   4.410  15.115  0.00  0.00    +0.000 C 
ATOM     26  C   UNL     1       7.137   5.315  16.597  0.00  0.00    +0.000 C 
ENDBRANCH  23  24
ENDBRANCH   6  23
TORSDOF 6
ENDMDL
MODEL 2
REMARK VINA RESULT:      -7.4      3.849      8.293
REMARK  Name = 
REMARK  10 active torsions:
REMARK  status: ('A' for Active; 'I' for Inactive)
REMARK    1  A    between atoms: C_1  and  C_2
REMARK    2  A    between atoms: C_2  and  C_3
REMARK    3  A    between atoms: C_2  and  C_4
REMARK    4  A    between atoms: C_4  and  C_5
REMARK    5  A    between atoms: C_8  and  C_10
REMARK    6  A    between atoms: C_12  and  C_13
REMARK    7  A    between atoms: C_19  and  C_20
REMARK    8  A    between atoms: C_20  and  C_21
REMARK    9  A    between atoms: C_21  and  C_22
REMARK   10  A    between atoms: C_21  and  C_23
REMARK                            x       y       z     vdW  Elec       q    Type
REMARK                         _______ _______ _______ _____ _____    ______ ____
ROOT
ATOM      1  C   UNL     1      -1.799  10.925  18.593  0.00  0.00    +0.000 C 
ATOM      2  C   UNL     1      -0.534  10.431  19.334  0.00  0.00    +0.000 C 
ATOM      3  N   UNL     1       0.698  10.958  18.732  0.00  0.00    +0.000 N 
ATOM      4  C   UNL     1       1.719  10.160  18.199  0.00  0.00    +0.000 C 
ATOM      5  O   UNL     1       2.730  10.626  17.690  0.00  0.00    +0.000 OA
ATOM      6  C   UNL     1       0.714  12.466  18.728  0.00  0.00    +0.000 C 
ATOM      7  C   UNL     1      -0.598  12.994  18.069  0.00  0.00    +0.000 C 
ATOM      8  N   UNL     1      -1.841  12.400  18.581  0.00  0.00    +0.000 NA
ATOM      9  H   UNL     1      -2.625  12.719  18.013  0.00  0.00    +0.000 HD
ENDROOT
BRANCH   4  10
ATOM     10  C   UNL     1       1.589   8.649  18.224  0.00  0.00    +0.000 C 
ATOM     11  C   UNL     1       1.823   7.929  19.535  0.00  0.00    +0.000 C 
ATOM     12  C   UNL     1       2.839   7.803  18.424  0.00  0.00    +0.000 C 
BRANCH  12  13
ATOM     13  C   UNL     1       3.076   6.393  17.900  0.00  0.00    +0.000 A 
ATOM     14  C   UNL     1       2.200   5.312  18.105  0.00  0.00    +0.000 A 
ATOM     15  C   UNL     1       2.511   4.021  17.659  0.00  0.00    +0.000 A 
ATOM     16  C   UNL     1       3.707   3.776  16.995  0.00  0.00    +0.000 A 
ATOM     17  C   UNL     1       4.588   4.825  16.761  0.00  0.00    +0.000 A 
ATOM     18  C   UNL     1       4.272   6.111  17.210  0.00  0.00    +0.000 A 
ENDBRANCH  12  13
ENDBRANCH   4  10
BRANCH   1  19
ATOM     19  C   UNL     1      -1.974  10.339  17.168  0.00  0.00    +0.000 C 
BRANCH  19  21
ATOM     20  C   UNL     1      -3.137  10.440  14.895  0.00  0.00    +0.000 C 
ATOM     21  C   UNL     1      -3.042  11.037  16.298  0.00  0.00    +0.000 C 
ATOM     22  C   UNL     1      -4.426  10.978  16.957  0.00  0.00    +0.000 C 
ENDBRANCH  19  21
ENDBRANCH   1  19
BRANCH   6  23
ATOM     23  C   UNL     1       1.949  13.180  18.118  0.00  0.00    +0.000 C 
BRANCH  23  24
ATOM     24  C   UNL     1       2.718  14.171  19.031  0.00  0.00    +0.000 C 
ATOM     25  C   UNL     1       2.175  15.600  18.992  0.00  0.00    +0.000 C 
ATOM     26  C   UNL     1       2.710  13.661  20.476  0.00  0.00    +0.000 C 
ENDBRANCH  23  24
ENDBRANCH   6  23
TORSDOF 6
ENDMDL
MODEL 3
REMARK VINA RESULT:      -7.2      1.245      1.827
REMARK  Name = 
REMARK  10 active torsions:
REMARK  status: ('A' for Active; 'I' for Inactive)
REMARK    1  A    between atoms: C_1  and  C_2
REMARK    2  A    between atoms: C_2  and  C_3
REMARK    3  A    between atoms: C_2  and  C_4
REMARK    4  A    between atoms: C_4  and  C_5
REMARK    5  A    between atoms: C_8  and  C_10
REMARK    6  A    between atoms: C_12  and  C_13
REMARK    7  A    between atoms: C_19  and  C_20
REMARK    8  A    between atoms: C_20  and  C_21
REMARK    9  A    between atoms: C_21  and  C_22
REMARK   10  A    between atoms: C_21  and  C_23
REMARK                            x       y       z     vdW  Elec       q    Type
REMARK                         _______ _______ _______ _____ _____    ______ ____
ROOT
ATOM      1  C   UNL     1       2.997   3.643  18.653  0.00  0.00    +0.000 C 
ATOM      2  C   UNL     1       2.537   4.739  17.665  0.00  0.00    +0.000 C 
ATOM      3  N   UNL     1       3.568   5.766  17.461  0.00  0.00    +0.000 N 
ATOM      4  C   UNL     1       3.392   7.126  17.747  0.00  0.00    +0.000 C 
ATOM      5  O   UNL     1       4.275   7.960  17.581  0.00  0.00    +0.000 OA
ATOM      6  C   UNL     1       4.851   5.170  16.939  0.00  0.00    +0.000 C 
ATOM      7  C   UNL     1       5.290   3.996  17.868  0.00  0.00    +0.000 C 
ATOM      8  N   UNL     1       4.241   3.012  18.175  0.00  0.00    +0.000 NA
ATOM      9  H   UNL     1       4.589   2.357  18.874  0.00  0.00    +0.000 HD
ENDROOT
BRANCH   4  10
ATOM     10  C   UNL     1       2.070   7.620  18.301  0.00  0.00    +0.000 C 
ATOM     11  C   UNL     1       1.417   8.817  17.644  0.00  0.00    +0.000 C 
ATOM     12  C   UNL     1       2.024   8.961  19.021  0.00  0.00    +0.000 C 
BRANCH  12  13
ATOM     13  C   UNL     1       1.061   9.365  20.129  0.00  0.00    +0.000 A 
ATOM     14  C   UNL     1       0.092  10.376  20.010  0.00  0.00    +0.000 A 
ATOM     15  C   UNL     1      -0.716  10.750  21.092  0.00  0.00    +0.000 A 
ATOM     16  C   UNL     1      -0.577  10.120  22.324  0.00  0.00    +0.000 A 
ATOM     17  C   UNL     1       0.359   9.104  22.471  0.00  0.00    +0.000 A 
ATOM     18  C   UNL     1       1.164   8.737  21.387  0.00  0.00    +0.000 A 
ENDBRANCH  12  13
ENDBRANCH   4  10
BRANCH   1  19
ATOM     19  C   UNL     1       3.131   4.123  20.122  0.00  0.00    +0.000 C 
BRANCH  19  21
ATOM     20  C   UNL     1       0.600   3.771  20.186  0.00  0.00    +0.000 C 
ATOM     21  C   UNL     1       1.886   3.888  21.004  0.00  0.00    +0.000 C 
ATOM     22  C   UNL     1       2.040   2.628  21.866  0.00  0.00    +0.000 C 
ENDBRANCH  19  21
ENDBRANCH   1  19
BRANCH   6  23
ATOM     23  C   UNL     1       6.045   6.125  16.678  0.00  0.00    +0.000 C 
BRANCH  23  24
ATOM     24  C   UNL     1       6.931   6.502  17.894  0.00  0.00    +0.000 C 
ATOM     25  C   UNL     1       7.896   5.398  18.327  0.00  0.00    +0.000 C 
ATOM     26  C   UNL     1       7.722   7.778  17.584  0.00  0.00    +0.000 C 
ENDBRANCH  23  24
ENDBRANCH   6  23
TORSDOF 6
ENDMDL
MODEL 4
REMARK VINA RESULT:      -7.1      1.047      1.612
REMARK  Name = 
REMARK  10 active torsions:
REMARK  status: ('A' for Active; 'I' for Inactive)
REMARK    1  A    between atoms: C_1  and  C_2
REMARK    2  A    between atoms: C_2  and  C_3
REMARK    3  A    between atoms: C_2  and  C_4
REMARK    4  A    between atoms: C_4  and  C_5
REMARK    5  A    between atoms: C_8  and  C_10
REMARK    6  A    between atoms: C_12  and  C_13
REMARK    7  A    between atoms: C_19  and  C_20
REMARK    8  A    between atoms: C_20  and  C_21
REMARK    9  A    between atoms: C_21  and  C_22
REMARK   10  A    between atoms: C_21  and  C_23
REMARK                            x       y       z     vdW  Elec       q    Type
REMARK                         _______ _______ _______ _____ _____    ______ ____
ROOT
ATOM      1  C   UNL     1       2.870   3.114  18.863  0.00  0.00    +0.000 C 
ATOM      2  C   UNL     1       2.404   4.090  17.759  0.00  0.00    +0.000 C 
ATOM      3  N   UNL     1       3.486   4.979  17.315  0.00  0.00    +0.000 N 
ATOM      4  C   UNL     1       3.444   6.377  17.402  0.00  0.00    +0.000 C 
ATOM      5  O   UNL     1       4.367   7.094  17.037  0.00  0.00    +0.000 OA
ATOM      6  C   UNL     1       4.664   4.199  16.787  0.00  0.00    +0.000 C 
ATOM      7  C   UNL     1       5.098   3.139  17.846  0.00  0.00    +0.000 C 
ATOM      8  N   UNL     1       4.011   2.309  18.386  0.00  0.00    +0.000 NA
ATOM      9  H   UNL     1       4.372   1.735  19.147  0.00  0.00    +0.000 HD
ENDROOT
BRANCH   4  10
ATOM     10  C   UNL     1       2.222   7.063  17.981  0.00  0.00    +0.000 C 
ATOM     11  C   UNL     1       1.855   8.437  17.460  0.00  0.00    +0.000 C 
ATOM     12  C   UNL     1       2.411   8.293  18.858  0.00  0.00    +0.000 C 
BRANCH  12  13
ATOM     13  C   UNL     1       1.496   8.756  19.985  0.00  0.00    +0.000 A 
ATOM     14  C   UNL     1       1.399   8.127  21.238  0.00  0.00    +0.000 A 
ATOM     15  C   UNL     1       0.484   8.558  22.207  0.00  0.00    +0.000 A 
ATOM     16  C   UNL     1      -0.360   9.633  21.948  0.00  0.00    +0.000 A 
ATOM     17  C   UNL     1      -0.278  10.288  20.725  0.00  0.00    +0.000 A 
ATOM     18  C   UNL     1       0.637   9.851  19.762  0.00  0.00    +0.000 A 
ENDBRANCH  12  13
ENDBRANCH   4  10
BRANCH   1  19
ATOM     19  C   UNL     1       3.179   3.789  20.224  0.00  0.00    +0.000 C 
BRANCH  19  21
ATOM     20  C   UNL     1       0.770   4.592  20.508  0.00  0.00    +0.000 C 
ATOM     21  C   UNL     1       1.972   3.927  21.177  0.00  0.00    +0.000 C 
ATOM     22  C   UNL     1       1.539   2.564  21.732  0.00  0.00    +0.000 C 
ENDBRANCH  19  21
ENDBRANCH   1  19
BRANCH   6  23
ATOM     23  C   UNL     1       5.897   4.995  16.284  0.00  0.00    +0.000 C 
BRANCH  23  24
ATOM     24  C   UNL     1       6.658   4.424  15.059  0.00  0.00    +0.000 C 
ATOM     25  C   UNL     1       5.748   3.835  13.980  0.00  0.00    +0.000 C 
ATOM     26  C   UNL     1       7.542   5.513  14.442  0.00  0.00    +0.000 C 
ENDBRANCH  23  24
ENDBRANCH   6  23
TORSDOF 6
ENDMDL
MODEL 5
REMARK VINA RESULT:      -7.1      1.060      1.892
REMARK  Name = 
REMARK  10 active torsions:
REMARK  status: ('A' for Active; 'I' for Inactive)
REMARK    1  A    between atoms: C_1  and  C_2
REMARK    2  A    between atoms: C_2  and  C_3
REMARK    3  A    between atoms: C_2  and  C_4
REMARK    4  A    between atoms: C_4  and  C_5
REMARK    5  A    between atoms: C_8  and  C_10
REMARK    6  A    between atoms: C_12  and  C_13
REMARK    7  A    between atoms: C_19  and  C_20
REMARK    8  A    between atoms: C_20  and  C_21
REMARK    9  A    between atoms: C_21  and  C_22
REMARK   10  A    between atoms: C_21  and  C_23
REMARK                            x       y       z     vdW  Elec       q    Type
REMARK                         _______ _______ _______ _____ _____    ______ ____
ROOT
ATOM      1  C   UNL     1       2.728   3.192  18.237  0.00  0.00    +0.000 C 
ATOM      2  C   UNL     1       2.373   4.429  17.381  0.00  0.00    +0.000 C 
ATOM      3  N   UNL     1       3.490   5.379  17.295  0.00  0.00    +0.000 N 
ATOM      4  C   UNL     1       3.430   6.708  17.733  0.00  0.00    +0.000 C 
ATOM      5  O   UNL     1       4.382   7.476  17.663  0.00  0.00    +0.000 OA
ATOM      6  C   UNL     1       4.722   4.737  16.707  0.00  0.00    +0.000 C 
ATOM      7  C   UNL     1       5.049   3.432  17.496  0.00  0.00    +0.000 C 
ATOM      8  N   UNL     1       3.917   2.513  17.689  0.00  0.00    +0.000 NA
ATOM      9  H   UNL     1       4.201   1.756  18.310  0.00  0.00    +0.000 HD
ENDROOT
BRANCH   4  10
ATOM     10  C   UNL     1       2.149   7.248  18.341  0.00  0.00    +0.000 C 
ATOM     11  C   UNL     1       1.469   8.418  17.662  0.00  0.00    +0.000 C 
ATOM     12  C   UNL     1       2.162   8.626  18.989  0.00  0.00    +0.000 C 
BRANCH  12  13
ATOM     13  C   UNL     1       1.274   9.101  20.132  0.00  0.00    +0.000 A 
ATOM     14  C   UNL     1       1.389   8.663  21.463  0.00  0.00    +0.000 A 
ATOM     15  C   UNL     1       0.493   9.083  22.454  0.00  0.00    +0.000 A 
ATOM     16  C   UNL     1      -0.543   9.956  22.141  0.00  0.00    +0.000 A 
ATOM     17  C   UNL     1      -0.675  10.422  20.838  0.00  0.00    +0.000 A 
ATOM     18  C   UNL     1       0.222   9.996  19.853  0.00  0.00    +0.000 A 
ENDBRANCH  12  13
ENDBRANCH   4  10
BRANCH   1  19
ATOM     19  C   UNL     1       2.889   3.488  19.751  0.00  0.00    +0.000 C 
BRANCH  19  21
ATOM     20  C   UNL     1       1.531   2.787  21.800  0.00  0.00    +0.000 C 
ATOM     21  C   UNL     1       1.566   3.642  20.534  0.00  0.00    +0.000 C 
ATOM     22  C   UNL     1       1.310   5.105  20.917  0.00  0.00    +0.000 C 
ENDBRANCH  19  21
ENDBRANCH   1  19
BRANCH   6  23
ATOM     23  C   UNL     1       5.996   5.609  16.556  0.00  0.00    +0.000 C 
BRANCH  23  24
ATOM     24  C   UNL     1       6.967   5.663  17.764  0.00  0.00    +0.000 C 
ATOM     25  C   UNL     1       7.991   4.528  17.790  0.00  0.00    +0.000 C 
ATOM     26  C   UNL     1       7.697   7.011  17.785  0.00  0.00    +0.000 C 
ENDBRANCH  23  24
ENDBRANCH   6  23
TORSDOF 6
ENDMDL
MODEL 6
REMARK VINA RESULT:      -7.0      3.819      8.171
REMARK  Name = 
REMARK  10 active torsions:
REMARK  status: ('A' for Active; 'I' for Inactive)
REMARK    1  A    between atoms: C_1  and  C_2
REMARK    2  A    between atoms: C_2  and  C_3
REMARK    3  A    between atoms: C_2  and  C_4
REMARK    4  A    between atoms: C_4  and  C_5
REMARK    5  A    between atoms: C_8  and  C_10
REMARK    6  A    between atoms: C_12  and  C_13
REMARK    7  A    between atoms: C_19  and  C_20
REMARK    8  A    between atoms: C_20  and  C_21
REMARK    9  A    between atoms: C_21  and  C_22
REMARK   10  A    between atoms: C_21  and  C_23
REMARK                            x       y       z     vdW  Elec       q    Type
REMARK                         _______ _______ _______ _____ _____    ______ ____
ROOT
ATOM      1  C   UNL     1      -1.673  10.976  18.617  0.00  0.00    +0.000 C 
ATOM      2  C   UNL     1      -0.405  10.464  19.338  0.00  0.00    +0.000 C 
ATOM      3  N   UNL     1       0.826  10.966  18.712  0.00  0.00    +0.000 N 
ATOM      4  C   UNL     1       1.823  10.146  18.167  0.00  0.00    +0.000 C 
ATOM      5  O   UNL     1       2.834  10.592  17.638  0.00  0.00    +0.000 OA
ATOM      6  C   UNL     1       0.868  12.473  18.699  0.00  0.00    +0.000 C 
ATOM      7  C   UNL     1      -0.445  13.020  18.060  0.00  0.00    +0.000 C 
ATOM      8  N   UNL     1      -1.690  12.451  18.596  0.00  0.00    +0.000 NA
ATOM      9  H   UNL     1      -2.477  12.781  18.040  0.00  0.00    +0.000 HD
ENDROOT
BRANCH   4  10
ATOM     10  C   UNL     1       1.668   8.638  18.202  0.00  0.00    +0.000 C 
ATOM     11  C   UNL     1       1.814   7.932  19.534  0.00  0.00    +0.000 C 
ATOM     12  C   UNL     1       2.890   7.776  18.484  0.00  0.00    +0.000 C 
BRANCH  12  13
ATOM     13  C   UNL     1       3.133   6.355  17.992  0.00  0.00    +0.000 A 
ATOM     14  C   UNL     1       4.280   5.941  17.291  0.00  0.00    +0.000 A 
ATOM     15  C   UNL     1       4.409   4.635  16.802  0.00  0.00    +0.000 A 
ATOM     16  C   UNL     1       3.395   3.706  17.001  0.00  0.00    +0.000 A 
ATOM     17  C   UNL     1       2.256   4.076  17.705  0.00  0.00    +0.000 A 
ATOM     18  C   UNL     1       2.131   5.383  18.189  0.00  0.00    +0.000 A 
ENDBRANCH  12  13
ENDBRANCH   4  10
BRANCH   1  19
ATOM     19  C   UNL     1      -1.883  10.385  17.198  0.00  0.00    +0.000 C 
BRANCH  19  21
ATOM     20  C   UNL     1      -4.370  10.878  17.524  0.00  0.00    +0.000 C 
ATOM     21  C   UNL     1      -3.333   9.964  16.872  0.00  0.00    +0.000 C 
ATOM     22  C   UNL     1      -3.580   9.937  15.358  0.00  0.00    +0.000 C 
ENDBRANCH  19  21
ENDBRANCH   1  19
BRANCH   6  23
ATOM     23  C   UNL     1       2.105  13.161  18.064  0.00  0.00    +0.000 C 
BRANCH  23  24
ATOM     24  C   UNL     1       2.886  14.170  18.946  0.00  0.00    +0.000 C 
ATOM     25  C   UNL     1       2.457  15.626  18.756  0.00  0.00    +0.000 C 
ATOM     26  C   UNL     1       2.749  13.786  20.423  0.00  0.00    +0.000 C 
ENDBRANCH  23  24
ENDBRANCH   6  23
TORSDOF 6
ENDMDL
MODEL 7
REMARK VINA RESULT:      -7.0      0.767      1.479
REMARK  Name = 
REMARK  10 active torsions:
REMARK  status: ('A' for Active; 'I' for Inactive)
REMARK    1  A    between atoms: C_1  and  C_2
REMARK    2  A    between atoms: C_2  and  C_3
REMARK    3  A    between atoms: C_2  and  C_4
REMARK    4  A    between atoms: C_4  and  C_5
REMARK    5  A    between atoms: C_8  and  C_10
REMARK    6  A    between atoms: C_12  and  C_13
REMARK    7  A    between atoms: C_19  and  C_20
REMARK    8  A    between atoms: C_20  and  C_21
REMARK    9  A    between atoms: C_21  and  C_22
REMARK   10  A    between atoms: C_21  and  C_23
REMARK                            x       y       z     vdW  Elec       q    Type
REMARK                         _______ _______ _______ _____ _____    ______ ____
ROOT
ATOM      1  C   UNL     1       1.500   3.232  18.480  0.00  0.00    +0.000 C 
ATOM      2  C   UNL     1       1.496   4.452  17.530  0.00  0.00    +0.000 C 
ATOM      3  N   UNL     1       2.810   5.109  17.472  0.00  0.00    +0.000 N 
ATOM      4  C   UNL     1       3.039   6.444  17.828  0.00  0.00    +0.000 C 
ATOM      5  O   UNL     1       4.148   6.963  17.783  0.00  0.00    +0.000 OA
ATOM      6  C   UNL     1       3.886   4.158  17.012  0.00  0.00    +0.000 C 
ATOM      7  C   UNL     1       3.851   2.873  17.896  0.00  0.00    +0.000 C 
ATOM      8  N   UNL     1       2.525   2.259  18.058  0.00  0.00    +0.000 NA
ATOM      9  H   UNL     1       2.586   1.503  18.740  0.00  0.00    +0.000 HD
ENDROOT
BRANCH   4  10
ATOM     10  C   UNL     1       1.890   7.308  18.311  0.00  0.00    +0.000 C 
ATOM     11  C   UNL     1       1.779   8.720  17.775  0.00  0.00    +0.000 C 
ATOM     12  C   UNL     1       2.188   8.498  19.213  0.00  0.00    +0.000 C 
BRANCH  12  13
ATOM     13  C   UNL     1       1.261   9.095  20.264  0.00  0.00    +0.000 A 
ATOM     14  C   UNL     1       1.156   8.631  21.587  0.00  0.00    +0.000 A 
ATOM     15  C   UNL     1       0.230   9.178  22.485  0.00  0.00    +0.000 A 
ATOM     16  C   UNL     1      -0.615  10.206  22.084  0.00  0.00    +0.000 A 
ATOM     17  C   UNL     1      -0.526  10.700  20.789  0.00  0.00    +0.000 A 
ATOM     18  C   UNL     1       0.399  10.148  19.896  0.00  0.00    +0.000 A 
ENDBRANCH  12  13
ENDBRANCH   4  10
BRANCH   1  19
ATOM     19  C   UNL     1       1.640   3.592  19.982  0.00  0.00    +0.000 C 
BRANCH  19  21
ATOM     20  C   UNL     1       3.426   2.315  21.291  0.00  0.00    +0.000 C 
ATOM     21  C   UNL     1       1.947   2.401  20.916  0.00  0.00    +0.000 C 
ATOM     22  C   UNL     1       1.113   2.469  22.201  0.00  0.00    +0.000 C 
ENDBRANCH  19  21
ENDBRANCH   1  19
BRANCH   6  23
ATOM     23  C   UNL     1       5.336   4.698  16.903  0.00  0.00    +0.000 C 
BRANCH  23  24
ATOM     24  C   UNL     1       5.860   5.043  15.485  0.00  0.00    +0.000 C 
ATOM     25  C   UNL     1       7.382   4.973  15.350  0.00  0.00    +0.000 C 
ATOM     26  C   UNL     1       5.213   4.114  14.451  0.00  0.00    +0.000 C 
ENDBRANCH  23  24
ENDBRANCH   6  23
TORSDOF 6
ENDMDL
MODEL 8
REMARK VINA RESULT:      -7.0      3.900      8.142
REMARK  Name = 
REMARK  10 active torsions:
REMARK  status: ('A' for Active; 'I' for Inactive)
REMARK    1  A    between atoms: C_1  and  C_2
REMARK    2  A    between atoms: C_2  and  C_3
REMARK    3  A    between atoms: C_2  and  C_4
REMARK    4  A    between atoms: C_4  and  C_5
REMARK    5  A    between atoms: C_8  and  C_10
REMARK    6  A    between atoms: C_12  and  C_13
REMARK    7  A    between atoms: C_19  and  C_20
REMARK    8  A    between atoms: C_20  and  C_21
REMARK    9  A    between atoms: C_21  and  C_22
REMARK   10  A    between atoms: C_21  and  C_23
REMARK                            x       y       z     vdW  Elec       q    Type
REMARK                         _______ _______ _______ _____ _____    ______ ____
ROOT
ATOM      1  C   UNL     1      -1.905  11.517  19.186  0.00  0.00    +0.000 C 
ATOM      2  C   UNL     1      -0.698  11.011  20.009  0.00  0.00    +0.000 C 
ATOM      3  N   UNL     1       0.572  11.190  19.292  0.00  0.00    +0.000 N 
ATOM      4  C   UNL     1       1.437  10.142  18.948  0.00  0.00    +0.000 C 
ATOM      5  O   UNL     1       2.484  10.319  18.337  0.00  0.00    +0.000 OA
ATOM      6  C   UNL     1       0.814  12.637  18.944  0.00  0.00    +0.000 C 
ATOM      7  C   UNL     1      -0.431  13.201  18.192  0.00  0.00    +0.000 C 
ATOM      8  N   UNL     1      -1.726  12.939  18.837  0.00  0.00    +0.000 NA
ATOM      9  H   UNL     1      -2.477  13.241  18.217  0.00  0.00    +0.000 HD
ENDROOT
BRANCH   4  10
ATOM     10  C   UNL     1       1.083   8.715  19.318  0.00  0.00    +0.000 C 
ATOM     11  C   UNL     1       1.411   8.233  20.715  0.00  0.00    +0.000 C 
ATOM     12  C   UNL     1       2.205   7.709  19.540  0.00  0.00    +0.000 C 
BRANCH  12  13
ATOM     13  C   UNL     1       2.135   6.205  19.312  0.00  0.00    +0.000 A 
ATOM     14  C   UNL     1       2.317   5.581  18.066  0.00  0.00    +0.000 A 
ATOM     15  C   UNL     1       2.168   4.197  17.909  0.00  0.00    +0.000 A 
ATOM     16  C   UNL     1       1.832   3.399  18.996  0.00  0.00    +0.000 A 
ATOM     17  C   UNL     1       1.661   3.981  20.246  0.00  0.00    +0.000 A 
ATOM     18  C   UNL     1       1.810   5.364  20.395  0.00  0.00    +0.000 A 
ENDBRANCH  12  13
ENDBRANCH   4  10
BRANCH   1  19
ATOM     19  C   UNL     1      -2.229  10.660  17.934  0.00  0.00    +0.000 C 
BRANCH  19  21
ATOM     20  C   UNL     1      -3.056  10.761  15.518  0.00  0.00    +0.000 C 
ATOM     21  C   UNL     1      -3.218  11.303  16.937  0.00  0.00    +0.000 C 
ATOM     22  C   UNL     1      -4.672  11.099  17.382  0.00  0.00    +0.000 C 
ENDBRANCH  19  21
ENDBRANCH   1  19
BRANCH   6  23
ATOM     23  C   UNL     1       2.114  12.993  18.177  0.00  0.00    +0.000 C 
BRANCH  23  24
ATOM     24  C   UNL     1       2.635  14.449  18.300  0.00  0.00    +0.000 C 
ATOM     25  C   UNL     1       2.343  15.102  19.652  0.00  0.00    +0.000 C 
ATOM     26  C   UNL     1       4.143  14.487  18.031  0.00  0.00    +0.000 C 
ENDBRANCH  23  24
ENDBRANCH   6  23
TORSDOF 6
ENDMDL
MODEL 9
REMARK VINA RESULT:      -6.9      1.463      1.925
REMARK  Name = 
REMARK  10 active torsions:
REMARK  status: ('A' for Active; 'I' for Inactive)
REMARK    1  A    between atoms: C_1  and  C_2
REMARK    2  A    between atoms: C_2  and  C_3
REMARK    3  A    between atoms: C_2  and  C_4
REMARK    4  A    between atoms: C_4  and  C_5
REMARK    5  A    between atoms: C_8  and  C_10
REMARK    6  A    between atoms: C_12  and  C_13
REMARK    7  A    between atoms: C_19  and  C_20
REMARK    8  A    between atoms: C_20  and  C_21
REMARK    9  A    between atoms: C_21  and  C_22
REMARK   10  A    between atoms: C_21  and  C_23
REMARK                            x       y       z     vdW  Elec       q    Type
REMARK                         _______ _______ _______ _____ _____    ______ ____
ROOT
ATOM      1  C   UNL     1       2.843   3.244  18.659  0.00  0.00    +0.000 C 
ATOM      2  C   UNL     1       2.474   4.417  17.721  0.00  0.00    +0.000 C 
ATOM      3  N   UNL     1       3.664   5.137  17.245  0.00  0.00    +0.000 N 
ATOM      4  C   UNL     1       3.906   6.497  17.476  0.00  0.00    +0.000 C 
ATOM      5  O   UNL     1       4.914   7.069  17.079  0.00  0.00    +0.000 OA
ATOM      6  C   UNL     1       4.608   4.222  16.507  0.00  0.00    +0.000 C 
ATOM      7  C   UNL     1       4.924   2.980  17.396  0.00  0.00    +0.000 C 
ATOM      8  N   UNL     1       3.751   2.306  17.973  0.00  0.00    +0.000 NA
ATOM      9  H   UNL     1       4.064   1.588  18.625  0.00  0.00    +0.000 HD
ENDROOT
BRANCH   4  10
ATOM     10  C   UNL     1       2.905   7.323  18.260  0.00  0.00    +0.000 C 
ATOM     11  C   UNL     1       1.466   7.346  17.788  0.00  0.00    +0.000 C 
ATOM     12  C   UNL     1       2.325   8.580  17.626  0.00  0.00    +0.000 C 
BRANCH  12  13
ATOM     13  C   UNL     1       1.839   9.825  18.357  0.00  0.00    +0.000 A 
ATOM     14  C   UNL     1       2.253  11.134  18.057  0.00  0.00    +0.000 A 
ATOM     15  C   UNL     1       1.824  12.231  18.816  0.00  0.00    +0.000 A 
ATOM     16  C   UNL     1       0.966  12.048  19.895  0.00  0.00    +0.000 A 
ATOM     17  C   UNL     1       0.524  10.768  20.208  0.00  0.00    +0.000 A 
ATOM     18  C   UNL     1       0.958   9.677  19.448  0.00  0.00    +0.000 A 
ENDBRANCH  12  13
ENDBRANCH   4  10
BRANCH   1  19
ATOM     19  C   UNL     1       3.408   3.681  20.036  0.00  0.00    +0.000 C 
BRANCH  19  21
ATOM     20  C   UNL     1       1.477   5.160  20.821  0.00  0.00    +0.000 C 
ATOM     21  C   UNL     1       2.348   3.942  21.128  0.00  0.00    +0.000 C 
ATOM     22  C   UNL     1       1.439   2.722  21.327  0.00  0.00    +0.000 C 
ENDBRANCH  19  21
ENDBRANCH   1  19
BRANCH   6  23
ATOM     23  C   UNL     1       5.920   4.830  15.945  0.00  0.00    +0.000 C 
BRANCH  23  24
ATOM     24  C   UNL     1       6.478   4.222  14.631  0.00  0.00    +0.000 C 
ATOM     25  C   UNL     1       5.399   3.816  13.626  0.00  0.00    +0.000 C 
ATOM     26  C   UNL     1       7.445   5.211  13.971  0.00  0.00    +0.000 C 
ENDBRANCH  23  24
ENDBRANCH   6  23
TORSDOF 6
ENDMDL
