MODEL 1
REMARK VINA RESULT:      -6.5      0.000      0.000
REMARK  Name = 
REMARK  7 active torsions:
REMARK  status: ('A' for Active; 'I' for Inactive)
REMARK    1  A    between atoms: C_2  and  C_3
REMARK    2  A    between atoms: C_3  and  N_4
REMARK    3  A    between atoms: C_5  and  C_7
REMARK    4  A    between atoms: C_9  and  C_10
REMARK    5  A    between atoms: C_18  and  C_20
REMARK    6  A    between atoms: C_23  and  O_24
REMARK    7  A    between atoms: O_24  and  C_25
REMARK                            x       y       z     vdW  Elec       q    Type
REMARK                         _______ _______ _______ _____ _____    ______ ____
ROOT
ATOM      1  C   UNL     1      -3.997  15.014  22.670  0.00  0.00    +0.000 C 
ATOM      2  C   UNL     1      -4.946  14.227  21.738  0.00  0.00    +0.000 C 
ATOM      3  C   UNL     1      -4.315  12.923  21.194  0.00  0.00    +0.000 C 
ATOM      4  C   UNL     1      -2.905  13.180  20.621  0.00  0.00    +0.000 C 
ATOM      5  N   UNL     1      -2.090  13.848  21.626  0.00  0.00    +0.000 N 
ATOM      6  C   UNL     1      -1.030  13.323  22.378  0.00  0.00    +0.000 C 
ATOM      7  O   UNL     1      -0.416  14.011  23.196  0.00  0.00    +0.000 OA
ATOM      8  C   UNL     1      -2.627  15.151  21.986  0.00  0.00    +0.000 C 
ENDROOT
BRANCH   3   9
ATOM      9  C   UNL     1      -5.210  12.262  20.168  0.00  0.00    +0.000 A 
ATOM     10  C   UNL     1      -4.777  12.063  18.850  0.00  0.00    +0.000 A 
ATOM     11  C   UNL     1      -5.615  11.464  17.912  0.00  0.00    +0.000 A 
ATOM     12  C   UNL     1      -6.892  11.055  18.282  0.00  0.00    +0.000 A 
ATOM     13  C   UNL     1      -7.335  11.244  19.592  0.00  0.00    +0.000 A 
ATOM     14  C   UNL     1      -6.501  11.848  20.528  0.00  0.00    +0.000 A 
ENDBRANCH   3   9
BRANCH   6  15
ATOM     15  C   UNL     1      -0.568  11.913  22.197  0.00  0.00    +0.000 A 
ATOM     16  C   UNL     1       0.329  11.627  21.158  0.00  0.00    +0.000 A 
ATOM     17  C   UNL     1       0.760  10.315  20.935  0.00  0.00    +0.000 A 
ATOM     18  C   UNL     1       0.305   9.274  21.746  0.00  0.00    +0.000 A 
ATOM     19  C   UNL     1      -0.561   9.559  22.798  0.00  0.00    +0.000 A 
ATOM     20  C   UNL     1      -0.945  10.875  23.052  0.00  0.00    +0.000 A 
BRANCH  18  21
ATOM     21  O   UNL     1       0.751   8.022  21.425  0.00  0.00    +0.000 OA
ATOM     22  C   UNL     1       1.726   7.975  20.386  0.00  0.00    +0.000 C 
ENDBRANCH  18  21
ENDBRANCH   6  15
BRANCH   1  24
ATOM     23  N   UNL     1      -3.824  15.250  25.156  0.00  0.00    +0.000 N 
ATOM     24  C   UNL     1      -3.931  14.404  24.080  0.00  0.00    +0.000 C 
ATOM     25  O   UNL     1      -4.031  13.193  24.284  0.00  0.00    +0.000 OA
ATOM     26  H   UNL     1      -3.665  14.755  26.027  0.00  0.00    +0.000 HD
BRANCH  23  27
ATOM     27  C   UNL     1      -3.413  16.626  25.081  0.00  0.00    +0.000 C 
BRANCH  27  29
ATOM     28  C   UNL     1      -1.329  15.844  26.139  0.00  0.00    +0.000 C 
ATOM     29  C   UNL     1      -1.990  16.798  25.469  0.00  0.00    +0.000 C 
ENDBRANCH  27  29
ENDBRANCH  23  27
ENDBRANCH   1  24
TORSDOF 6
ENDMDL
MODEL 2
REMARK VINA RESULT:      -6.3      0.378      1.352
REMARK  Name = 
REMARK  7 active torsions:
REMARK  status: ('A' for Active; 'I' for Inactive)
REMARK    1  A    between atoms: C_2  and  C_3
REMARK    2  A    between atoms: C_3  and  N_4
REMARK    3  A    between atoms: C_5  and  C_7
REMARK    4  A    between atoms: C_9  and  C_10
REMARK    5  A    between atoms: C_18  and  C_20
REMARK    6  A    between atoms: C_23  and  O_24
REMARK    7  A    between atoms: O_24  and  C_25
REMARK                            x       y       z     vdW  Elec       q    Type
REMARK                         _______ _______ _______ _____ _____    ______ ____
ROOT
ATOM      1  C   UNL     1      -4.057  14.830  22.971  0.00  0.00    +0.000 C 
ATOM      2  C   UNL     1      -5.003  14.068  22.015  0.00  0.00    +0.000 C 
ATOM      3  C   UNL     1      -4.331  12.846  21.345  0.00  0.00    +0.000 C 
ATOM      4  C   UNL     1      -2.960  13.221  20.742  0.00  0.00    +0.000 C 
ATOM      5  N   UNL     1      -2.138  13.851  21.767  0.00  0.00    +0.000 N 
ATOM      6  C   UNL     1      -1.023  13.327  22.434  0.00  0.00    +0.000 C 
ATOM      7  O   UNL     1      -0.412  13.980  23.281  0.00  0.00    +0.000 OA
ATOM      8  C   UNL     1      -2.725  15.092  22.249  0.00  0.00    +0.000 C 
ENDROOT
BRANCH   3   9
ATOM      9  C   UNL     1      -5.233  12.221  20.304  0.00  0.00    +0.000 A 
ATOM     10  C   UNL     1      -6.541  11.827  20.621  0.00  0.00    +0.000 A 
ATOM     11  C   UNL     1      -7.357  11.242  19.656  0.00  0.00    +0.000 A 
ATOM     12  C   UNL     1      -6.878  11.047  18.364  0.00  0.00    +0.000 A 
ATOM     13  C   UNL     1      -5.579  11.437  18.034  0.00  0.00    +0.000 A 
ATOM     14  C   UNL     1      -4.760  12.016  18.999  0.00  0.00    +0.000 A 
ENDBRANCH   3   9
BRANCH   6  15
ATOM     15  C   UNL     1      -0.499  11.962  22.123  0.00  0.00    +0.000 A 
ATOM     16  C   UNL     1      -0.928  10.882  22.907  0.00  0.00    +0.000 A 
ATOM     17  C   UNL     1      -0.436   9.593  22.669  0.00  0.00    +0.000 A 
ATOM     18  C   UNL     1       0.486   9.368  21.645  0.00  0.00    +0.000 A 
ATOM     19  C   UNL     1       0.890  10.432  20.845  0.00  0.00    +0.000 A 
ATOM     20  C   UNL     1       0.356  11.704  21.049  0.00  0.00    +0.000 A 
BRANCH  18  21
ATOM     21  O   UNL     1       0.939   8.083  21.516  0.00  0.00    +0.000 OA
ATOM     22  C   UNL     1       1.718   7.832  20.349  0.00  0.00    +0.000 C 
ENDBRANCH  18  21
ENDBRANCH   6  15
BRANCH   1  24
ATOM     23  N   UNL     1      -3.508  14.853  25.413  0.00  0.00    +0.000 N 
ATOM     24  C   UNL     1      -3.902  14.116  24.324  0.00  0.00    +0.000 C 
ATOM     25  O   UNL     1      -4.176  12.924  24.481  0.00  0.00    +0.000 OA
ATOM     26  H   UNL     1      -3.317  14.277  26.226  0.00  0.00    +0.000 HD
BRANCH  23  27
ATOM     27  C   UNL     1      -2.885  16.147  25.347  0.00  0.00    +0.000 C 
BRANCH  27  29
ATOM     28  C   UNL     1      -0.485  16.696  25.447  0.00  0.00    +0.000 C 
ATOM     29  C   UNL     1      -1.567  16.160  26.029  0.00  0.00    +0.000 C 
ENDBRANCH  27  29
ENDBRANCH  23  27
ENDBRANCH   1  24
TORSDOF 6
ENDMDL
MODEL 3
REMARK VINA RESULT:      -6.1      3.351      6.482
REMARK  Name = 
REMARK  7 active torsions:
REMARK  status: ('A' for Active; 'I' for Inactive)
REMARK    1  A    between atoms: C_2  and  C_3
REMARK    2  A    between atoms: C_3  and  N_4
REMARK    3  A    between atoms: C_5  and  C_7
REMARK    4  A    between atoms: C_9  and  C_10
REMARK    5  A    between atoms: C_18  and  C_20
REMARK    6  A    between atoms: C_23  and  O_24
REMARK    7  A    between atoms: O_24  and  C_25
REMARK                            x       y       z     vdW  Elec       q    Type
REMARK                         _______ _______ _______ _____ _____    ______ ____
ROOT
ATOM      1  C   UNL     1      -1.523  13.050  20.415  0.00  0.00    +0.000 C 
ATOM      2  C   UNL     1      -0.458  13.958  19.759  0.00  0.00    +0.000 C 
ATOM      3  C   UNL     1       0.768  13.173  19.235  0.00  0.00    +0.000 C 
ATOM      4  C   UNL     1       1.311  12.204  20.307  0.00  0.00    +0.000 C 
ATOM      5  N   UNL     1       0.228  11.350  20.779  0.00  0.00    +0.000 N 
ATOM      6  C   UNL     1       0.016   9.989  20.522  0.00  0.00    +0.000 C 
ATOM      7  O   UNL     1      -0.947   9.385  20.999  0.00  0.00    +0.000 OA
ATOM      8  C   UNL     1      -0.829  12.117  21.421  0.00  0.00    +0.000 C 
ENDROOT
BRANCH   3   9
ATOM      9  C   UNL     1       1.852  14.105  18.742  0.00  0.00    +0.000 A 
ATOM     10  C   UNL     1       1.620  15.482  18.612  0.00  0.00    +0.000 A 
ATOM     11  C   UNL     1       2.623  16.328  18.146  0.00  0.00    +0.000 A 
ATOM     12  C   UNL     1       3.870  15.809  17.808  0.00  0.00    +0.000 A 
ATOM     13  C   UNL     1       4.116  14.441  17.936  0.00  0.00    +0.000 A 
ATOM     14  C   UNL     1       3.111  13.594  18.396  0.00  0.00    +0.000 A 
ENDBRANCH   3   9
BRANCH   6  15
ATOM     15  C   UNL     1       0.969   9.195  19.689  0.00  0.00    +0.000 A 
ATOM     16  C   UNL     1       1.566   8.057  20.249  0.00  0.00    +0.000 A 
ATOM     17  C   UNL     1       2.489   7.305  19.512  0.00  0.00    +0.000 A 
ATOM     18  C   UNL     1       2.823   7.677  18.209  0.00  0.00    +0.000 A 
ATOM     19  C   UNL     1       2.208   8.788  17.639  0.00  0.00    +0.000 A 
ATOM     20  C   UNL     1       1.249   9.503  18.354  0.00  0.00    +0.000 A 
BRANCH  18  21
ATOM     21  O   UNL     1       3.763   6.904  17.585  0.00  0.00    +0.000 OA
ATOM     22  C   UNL     1       3.605   5.498  17.765  0.00  0.00    +0.000 C 
ENDBRANCH  18  21
ENDBRANCH   6  15
BRANCH   1  24
ATOM     23  N   UNL     1      -3.748  12.389  19.480  0.00  0.00    +0.000 N 
ATOM     24  C   UNL     1      -2.381  12.316  19.373  0.00  0.00    +0.000 C 
ATOM     25  O   UNL     1      -1.892  11.716  18.413  0.00  0.00    +0.000 OA
ATOM     26  H   UNL     1      -4.224  11.777  18.825  0.00  0.00    +0.000 HD
BRANCH  23  27
ATOM     27  C   UNL     1      -4.459  12.786  20.665  0.00  0.00    +0.000 C 
BRANCH  27  29
ATOM     28  C   UNL     1      -6.755  12.297  21.415  0.00  0.00    +0.000 C 
ATOM     29  C   UNL     1      -5.929  12.753  20.464  0.00  0.00    +0.000 C 
ENDBRANCH  27  29
ENDBRANCH  23  27
ENDBRANCH   1  24
TORSDOF 6
ENDMDL
MODEL 4
REMARK VINA RESULT:      -6.1      3.666      6.498
REMARK  Name = 
REMARK  7 active torsions:
REMARK  status: ('A' for Active; 'I' for Inactive)
REMARK    1  A    between atoms: C_2  and  C_3
REMARK    2  A    between atoms: C_3  and  N_4
REMARK    3  A    between atoms: C_5  and  C_7
REMARK    4  A    between atoms: C_9  and  C_10
REMARK    5  A    between atoms: C_18  and  C_20
REMARK    6  A    between atoms: C_23  and  O_24
REMARK    7  A    between atoms: O_24  and  C_25
REMARK                            x       y       z     vdW  Elec       q    Type
REMARK                         _______ _______ _______ _____ _____    ______ ____
ROOT
ATOM      1  C   UNL     1      -1.519  11.961  20.586  0.00  0.00    +0.000 C 
ATOM      2  C   UNL     1      -0.766  10.634  20.336  0.00  0.00    +0.000 C 
ATOM      3  C   UNL     1       0.668  10.846  19.796  0.00  0.00    +0.000 C 
ATOM      4  C   UNL     1       0.681  11.834  18.611  0.00  0.00    +0.000 C 
ATOM      5  N   UNL     1       0.017  13.070  19.006  0.00  0.00    +0.000 N 
ATOM      6  C   UNL     1       0.591  14.321  19.272  0.00  0.00    +0.000 C 
ATOM      7  O   UNL     1      -0.098  15.292  19.591  0.00  0.00    +0.000 OA
ATOM      8  C   UNL     1      -1.382  12.854  19.342  0.00  0.00    +0.000 C 
ENDROOT
BRANCH   3   9
ATOM      9  C   UNL     1       1.316   9.531  19.418  0.00  0.00    +0.000 A 
ATOM     10  C   UNL     1       1.444   8.492  20.350  0.00  0.00    +0.000 A 
ATOM     11  C   UNL     1       2.053   7.292  19.993  0.00  0.00    +0.000 A 
ATOM     12  C   UNL     1       2.537   7.115  18.700  0.00  0.00    +0.000 A 
ATOM     13  C   UNL     1       2.412   8.139  17.761  0.00  0.00    +0.000 A 
ATOM     14  C   UNL     1       1.810   9.342  18.119  0.00  0.00    +0.000 A 
ENDBRANCH   3   9
BRANCH   6  15
ATOM     15  C   UNL     1       2.063  14.547  19.144  0.00  0.00    +0.000 A 
ATOM     16  C   UNL     1       2.871  14.373  20.276  0.00  0.00    +0.000 A 
ATOM     17  C   UNL     1       4.249  14.607  20.205  0.00  0.00    +0.000 A 
ATOM     18  C   UNL     1       4.836  15.012  19.006  0.00  0.00    +0.000 A 
ATOM     19  C   UNL     1       4.042  15.155  17.872  0.00  0.00    +0.000 A 
ATOM     20  C   UNL     1       2.679  14.868  17.931  0.00  0.00    +0.000 A 
BRANCH  18  21
ATOM     21  O   UNL     1       6.182  15.254  19.046  0.00  0.00    +0.000 OA
ATOM     22  C   UNL     1       6.898  14.885  17.870  0.00  0.00    +0.000 C 
ENDBRANCH  18  21
ENDBRANCH   6  15
BRANCH   1  24
ATOM     23  N   UNL     1      -2.044  13.168  22.715  0.00  0.00    +0.000 N 
ATOM     24  C   UNL     1      -1.079  12.640  21.893  0.00  0.00    +0.000 C 
ATOM     25  O   UNL     1       0.098  12.676  22.259  0.00  0.00    +0.000 OA
ATOM     26  H   UNL     1      -1.652  13.698  23.486  0.00  0.00    +0.000 HD
BRANCH  23  27
ATOM     27  C   UNL     1      -3.392  13.464  22.314  0.00  0.00    +0.000 C 
BRANCH  27  29
ATOM     28  C   UNL     1      -4.159  12.558  24.473  0.00  0.00    +0.000 C 
ATOM     29  C   UNL     1      -4.387  12.771  23.170  0.00  0.00    +0.000 C 
ENDBRANCH  27  29
ENDBRANCH  23  27
ENDBRANCH   1  24
TORSDOF 6
ENDMDL
MODEL 5
REMARK VINA RESULT:      -6.1      3.291      6.280
REMARK  Name = 
REMARK  7 active torsions:
REMARK  status: ('A' for Active; 'I' for Inactive)
REMARK    1  A    between atoms: C_2  and  C_3
REMARK    2  A    between atoms: C_3  and  N_4
REMARK    3  A    between atoms: C_5  and  C_7
REMARK    4  A    between atoms: C_9  and  C_10
REMARK    5  A    between atoms: C_18  and  C_20
REMARK    6  A    between atoms: C_23  and  O_24
REMARK    7  A    between atoms: O_24  and  C_25
REMARK                            x       y       z     vdW  Elec       q    Type
REMARK                         _______ _______ _______ _____ _____    ______ ____
ROOT
ATOM      1  C   UNL     1      -1.443  13.071  20.723  0.00  0.00    +0.000 C 
ATOM      2  C   UNL     1      -0.426  13.981  19.997  0.00  0.00    +0.000 C 
ATOM      3  C   UNL     1       0.764  13.199  19.393  0.00  0.00    +0.000 C 
ATOM      4  C   UNL     1       1.379  12.230  20.426  0.00  0.00    +0.000 C 
ATOM      5  N   UNL     1       0.332  11.374  20.968  0.00  0.00    +0.000 N 
ATOM      6  C   UNL     1       0.106  10.013  20.725  0.00  0.00    +0.000 C 
ATOM      7  O   UNL     1      -0.822   9.406  21.264  0.00  0.00    +0.000 OA
ATOM      8  C   UNL     1      -0.682  12.138  21.679  0.00  0.00    +0.000 C 
ENDROOT
BRANCH   3   9
ATOM      9  C   UNL     1       1.812  14.134  18.830  0.00  0.00    +0.000 A 
ATOM     10  C   UNL     1       3.068  13.657  18.429  0.00  0.00    +0.000 A 
ATOM     11  C   UNL     1       4.027  14.530  17.922  0.00  0.00    +0.000 A 
ATOM     12  C   UNL     1       3.742  15.888  17.808  0.00  0.00    +0.000 A 
ATOM     13  C   UNL     1       2.495  16.375  18.201  0.00  0.00    +0.000 A 
ATOM     14  C   UNL     1       1.537  15.504  18.713  0.00  0.00    +0.000 A 
ENDBRANCH   3   9
BRANCH   6  15
ATOM     15  C   UNL     1       1.003   9.221  19.829  0.00  0.00    +0.000 A 
ATOM     16  C   UNL     1       1.585   8.046  20.327  0.00  0.00    +0.000 A 
ATOM     17  C   UNL     1       2.456   7.294  19.531  0.00  0.00    +0.000 A 
ATOM     18  C   UNL     1       2.754   7.703  18.230  0.00  0.00    +0.000 A 
ATOM     19  C   UNL     1       2.154   8.851  17.722  0.00  0.00    +0.000 A 
ATOM     20  C   UNL     1       1.244   9.568  18.497  0.00  0.00    +0.000 A 
BRANCH  18  21
ATOM     21  O   UNL     1       3.646   6.925  17.545  0.00  0.00    +0.000 OA
ATOM     22  C   UNL     1       4.155   5.808  18.270  0.00  0.00    +0.000 C 
ENDBRANCH  18  21
ENDBRANCH   6  15
BRANCH   1  24
ATOM     23  N   UNL     1      -3.692  12.693  19.690  0.00  0.00    +0.000 N 
ATOM     24  C   UNL     1      -2.367  12.335  19.739  0.00  0.00    +0.000 C 
ATOM     25  O   UNL     1      -1.954  11.481  18.952  0.00  0.00    +0.000 OA
ATOM     26  H   UNL     1      -4.242  12.074  19.105  0.00  0.00    +0.000 HD
BRANCH  23  27
ATOM     27  C   UNL     1      -4.378  13.439  20.711  0.00  0.00    +0.000 C 
BRANCH  27  29
ATOM     28  C   UNL     1      -6.425  13.084  22.036  0.00  0.00    +0.000 C 
ATOM     29  C   UNL     1      -5.312  12.583  21.485  0.00  0.00    +0.000 C 
ENDBRANCH  27  29
ENDBRANCH  23  27
ENDBRANCH   1  24
TORSDOF 6
ENDMDL
MODEL 6
REMARK VINA RESULT:      -6.0      3.455      6.472
REMARK  Name = 
REMARK  7 active torsions:
REMARK  status: ('A' for Active; 'I' for Inactive)
REMARK    1  A    between atoms: C_2  and  C_3
REMARK    2  A    between atoms: C_3  and  N_4
REMARK    3  A    between atoms: C_5  and  C_7
REMARK    4  A    between atoms: C_9  and  C_10
REMARK    5  A    between atoms: C_18  and  C_20
REMARK    6  A    between atoms: C_23  and  O_24
REMARK    7  A    between atoms: O_24  and  C_25
REMARK                            x       y       z     vdW  Elec       q    Type
REMARK                         _______ _______ _______ _____ _____    ______ ____
ROOT
ATOM      1  C   UNL     1      -1.661  12.913  20.153  0.00  0.00    +0.000 C 
ATOM      2  C   UNL     1      -0.574  13.823  19.536  0.00  0.00    +0.000 C 
ATOM      3  C   UNL     1       0.704  13.050  19.130  0.00  0.00    +0.000 C 
ATOM      4  C   UNL     1       1.193  12.137  20.275  0.00  0.00    +0.000 C 
ATOM      5  N   UNL     1       0.100  11.274  20.705  0.00  0.00    +0.000 N 
ATOM      6  C   UNL     1      -0.062   9.899  20.488  0.00  0.00    +0.000 C 
ATOM      7  O   UNL     1      -1.041   9.289  20.920  0.00  0.00    +0.000 OA
ATOM      8  C   UNL     1      -1.018  12.037  21.241  0.00  0.00    +0.000 C 
ENDROOT
BRANCH   3   9
ATOM      9  C   UNL     1       1.798  13.991  18.677  0.00  0.00    +0.000 A 
ATOM     10  C   UNL     1       3.076  13.514  18.354  0.00  0.00    +0.000 A 
ATOM     11  C   UNL     1       4.078  14.392  17.949  0.00  0.00    +0.000 A 
ATOM     12  C   UNL     1       3.814  15.755  17.858  0.00  0.00    +0.000 A 
ATOM     13  C   UNL     1       2.545  16.244  18.173  0.00  0.00    +0.000 A 
ATOM     14  C   UNL     1       1.545  15.367  18.584  0.00  0.00    +0.000 A 
ENDBRANCH   3   9
BRANCH   6  15
ATOM     15  C   UNL     1       0.966   9.099  19.755  0.00  0.00    +0.000 A 
ATOM     16  C   UNL     1       1.261   9.439  18.427  0.00  0.00    +0.000 A 
ATOM     17  C   UNL     1       2.193   8.694  17.696  0.00  0.00    +0.000 A 
ATOM     18  C   UNL     1       2.843   7.606  18.280  0.00  0.00    +0.000 A 
ATOM     19  C   UNL     1       2.575   7.285  19.608  0.00  0.00    +0.000 A 
ATOM     20  C   UNL     1       1.688   8.062  20.351  0.00  0.00    +0.000 A 
BRANCH  18  21
ATOM     21  O   UNL     1       3.706   6.916  17.474  0.00  0.00    +0.000 OA
ATOM     22  C   UNL     1       3.691   5.501  17.643  0.00  0.00    +0.000 C 
ENDBRANCH  18  21
ENDBRANCH   6  15
BRANCH   1  24
ATOM     23  N   UNL     1      -3.789  12.266  19.005  0.00  0.00    +0.000 N 
ATOM     24  C   UNL     1      -2.426  12.117  19.084  0.00  0.00    +0.000 C 
ATOM     25  O   UNL     1      -1.859  11.399  18.257  0.00  0.00    +0.000 OA
ATOM     26  H   UNL     1      -4.216  11.614  18.357  0.00  0.00    +0.000 HD
BRANCH  23  27
ATOM     27  C   UNL     1      -4.616  12.817  20.046  0.00  0.00    +0.000 C 
BRANCH  27  29
ATOM     28  C   UNL     1      -6.738  12.316  21.194  0.00  0.00    +0.000 C 
ATOM     29  C   UNL     1      -5.902  12.087  20.172  0.00  0.00    +0.000 C 
ENDBRANCH  27  29
ENDBRANCH  23  27
ENDBRANCH   1  24
TORSDOF 6
ENDMDL
MODEL 7
REMARK VINA RESULT:      -6.0      2.645      4.524
REMARK  Name = 
REMARK  7 active torsions:
REMARK  status: ('A' for Active; 'I' for Inactive)
REMARK    1  A    between atoms: C_2  and  C_3
REMARK    2  A    between atoms: C_3  and  N_4
REMARK    3  A    between atoms: C_5  and  C_7
REMARK    4  A    between atoms: C_9  and  C_10
REMARK    5  A    between atoms: C_18  and  C_20
REMARK    6  A    between atoms: C_23  and  O_24
REMARK    7  A    between atoms: O_24  and  C_25
REMARK                            x       y       z     vdW  Elec       q    Type
REMARK                         _______ _______ _______ _____ _____    ______ ____
ROOT
ATOM      1  C   UNL     1      -1.044  12.210  21.432  0.00  0.00    +0.000 C 
ATOM      2  C   UNL     1      -1.926  12.023  20.176  0.00  0.00    +0.000 C 
ATOM      3  C   UNL     1      -1.511  10.801  19.322  0.00  0.00    +0.000 C 
ATOM      4  C   UNL     1       0.010  10.795  19.056  0.00  0.00    +0.000 C 
ATOM      5  N   UNL     1       0.722  10.890  20.324  0.00  0.00    +0.000 N 
ATOM      6  C   UNL     1       1.445   9.894  20.994  0.00  0.00    +0.000 C 
ATOM      7  O   UNL     1       2.010  10.119  22.066  0.00  0.00    +0.000 OA
ATOM      8  C   UNL     1       0.435  12.137  21.017  0.00  0.00    +0.000 C 
ENDROOT
BRANCH   3   9
ATOM      9  C   UNL     1      -2.292  10.741  18.027  0.00  0.00    +0.000 A 
ATOM     10  C   UNL     1      -3.461  11.494  17.850  0.00  0.00    +0.000 A 
ATOM     11  C   UNL     1      -4.177  11.421  16.659  0.00  0.00    +0.000 A 
ATOM     12  C   UNL     1      -3.732  10.597  15.629  0.00  0.00    +0.000 A 
ATOM     13  C   UNL     1      -2.568   9.844  15.790  0.00  0.00    +0.000 A 
ATOM     14  C   UNL     1      -1.855   9.912  16.984  0.00  0.00    +0.000 A 
ENDBRANCH   3   9
BRANCH   6  15
ATOM     15  C   UNL     1       1.598   8.522  20.422  0.00  0.00    +0.000 A 
ATOM     16  C   UNL     1       1.210   7.422  21.201  0.00  0.00    +0.000 A 
ATOM     17  C   UNL     1       1.368   6.119  20.714  0.00  0.00    +0.000 A 
ATOM     18  C   UNL     1       1.909   5.899  19.446  0.00  0.00    +0.000 A 
ATOM     19  C   UNL     1       2.264   6.990  18.658  0.00  0.00    +0.000 A 
ATOM     20  C   UNL     1       2.055   8.288  19.123  0.00  0.00    +0.000 A 
BRANCH  18  21
ATOM     21  O   UNL     1       2.059   4.591  19.075  0.00  0.00    +0.000 OA
ATOM     22  C   UNL     1       1.167   3.677  19.708  0.00  0.00    +0.000 C 
ENDBRANCH  18  21
ENDBRANCH   6  15
BRANCH   1  24
ATOM     23  N   UNL     1      -2.385  11.621  23.461  0.00  0.00    +0.000 N 
ATOM     24  C   UNL     1      -1.425  11.236  22.558  0.00  0.00    +0.000 C 
ATOM     25  O   UNL     1      -0.948  10.103  22.646  0.00  0.00    +0.000 OA
ATOM     26  H   UNL     1      -2.480  10.968  24.232  0.00  0.00    +0.000 HD
BRANCH  23  27
ATOM     27  C   UNL     1      -2.818  12.976  23.672  0.00  0.00    +0.000 C 
BRANCH  27  29
ATOM     28  C   UNL     1      -4.800  12.816  22.218  0.00  0.00    +0.000 C 
ATOM     29  C   UNL     1      -4.268  13.141  23.404  0.00  0.00    +0.000 C 
ENDBRANCH  27  29
ENDBRANCH  23  27
ENDBRANCH   1  24
TORSDOF 6
ENDMDL
MODEL 8
REMARK VINA RESULT:      -6.0      3.064      5.747
REMARK  Name = 
REMARK  7 active torsions:
REMARK  status: ('A' for Active; 'I' for Inactive)
REMARK    1  A    between atoms: C_2  and  C_3
REMARK    2  A    between atoms: C_3  and  N_4
REMARK    3  A    between atoms: C_5  and  C_7
REMARK    4  A    between atoms: C_9  and  C_10
REMARK    5  A    between atoms: C_18  and  C_20
REMARK    6  A    between atoms: C_23  and  O_24
REMARK    7  A    between atoms: O_24  and  C_25
REMARK                            x       y       z     vdW  Elec       q    Type
REMARK                         _______ _______ _______ _____ _____    ______ ____
ROOT
ATOM      1  C   UNL     1       0.552  14.062  19.910  0.00  0.00    +0.000 C 
ATOM      2  C   UNL     1      -0.195  13.175  18.887  0.00  0.00    +0.000 C 
ATOM      3  C   UNL     1      -1.543  12.637  19.423  0.00  0.00    +0.000 C 
ATOM      4  C   UNL     1      -1.379  12.015  20.826  0.00  0.00    +0.000 C 
ATOM      5  N   UNL     1      -0.742  12.981  21.712  0.00  0.00    +0.000 N 
ATOM      6  C   UNL     1      -1.314  13.709  22.764  0.00  0.00    +0.000 C 
ATOM      7  O   UNL     1      -0.649  14.494  23.442  0.00  0.00    +0.000 OA
ATOM      8  C   UNL     1       0.597  13.332  21.262  0.00  0.00    +0.000 C 
ENDROOT
BRANCH   3   9
ATOM      9  C   UNL     1      -2.168  11.653  18.459  0.00  0.00    +0.000 A 
ATOM     10  C   UNL     1      -1.394  10.677  17.816  0.00  0.00    +0.000 A 
ATOM     11  C   UNL     1      -1.980   9.785  16.922  0.00  0.00    +0.000 A 
ATOM     12  C   UNL     1      -3.345   9.855  16.662  0.00  0.00    +0.000 A 
ATOM     13  C   UNL     1      -4.128  10.820  17.298  0.00  0.00    +0.000 A 
ATOM     14  C   UNL     1      -3.543  11.717  18.188  0.00  0.00    +0.000 A 
ENDBRANCH   3   9
BRANCH   6  15
ATOM     15  C   UNL     1      -2.751  13.540  23.137  0.00  0.00    +0.000 A 
ATOM     16  C   UNL     1      -3.074  12.682  24.198  0.00  0.00    +0.000 A 
ATOM     17  C   UNL     1      -4.411  12.472  24.557  0.00  0.00    +0.000 A 
ATOM     18  C   UNL     1      -5.438  13.117  23.867  0.00  0.00    +0.000 A 
ATOM     19  C   UNL     1      -5.119  13.995  22.835  0.00  0.00    +0.000 A 
ATOM     20  C   UNL     1      -3.785  14.245  22.515  0.00  0.00    +0.000 A 
BRANCH  18  21
ATOM     21  O   UNL     1      -6.711  12.818  24.266  0.00  0.00    +0.000 OA
ATOM     22  C   UNL     1      -7.546  12.260  23.254  0.00  0.00    +0.000 C 
ENDBRANCH  18  21
ENDBRANCH   6  15
BRANCH   1  24
ATOM     23  N   UNL     1       0.742  16.536  19.577  0.00  0.00    +0.000 N 
ATOM     24  C   UNL     1      -0.036  15.480  19.986  0.00  0.00    +0.000 C 
ATOM     25  O   UNL     1      -1.196  15.700  20.342  0.00  0.00    +0.000 OA
ATOM     26  H   UNL     1       0.317  17.434  19.779  0.00  0.00    +0.000 HD
BRANCH  23  27
ATOM     27  C   UNL     1       2.170  16.489  19.418  0.00  0.00    +0.000 C 
BRANCH  27  29
ATOM     28  C   UNL     1       3.527  15.684  17.525  0.00  0.00    +0.000 C 
ATOM     29  C   UNL     1       2.566  16.495  17.987  0.00  0.00    +0.000 C 
ENDBRANCH  27  29
ENDBRANCH  23  27
ENDBRANCH   1  24
TORSDOF 6
ENDMDL
MODEL 9
REMARK VINA RESULT:      -6.0      3.736      6.369
REMARK  Name = 
REMARK  7 active torsions:
REMARK  status: ('A' for Active; 'I' for Inactive)
REMARK    1  A    between atoms: C_2  and  C_3
REMARK    2  A    between atoms: C_3  and  N_4
REMARK    3  A    between atoms: C_5  and  C_7
REMARK    4  A    between atoms: C_9  and  C_10
REMARK    5  A    between atoms: C_18  and  C_20
REMARK    6  A    between atoms: C_23  and  O_24
REMARK    7  A    between atoms: O_24  and  C_25
REMARK                            x       y       z     vdW  Elec       q    Type
REMARK                         _______ _______ _______ _____ _____    ______ ____
ROOT
ATOM      1  C   UNL     1      -1.374  12.333  20.884  0.00  0.00    +0.000 C 
ATOM      2  C   UNL     1      -0.681  10.992  20.546  0.00  0.00    +0.000 C 
ATOM      3  C   UNL     1       0.723  11.177  19.924  0.00  0.00    +0.000 C 
ATOM      4  C   UNL     1       0.695  12.203  18.771  0.00  0.00    +0.000 C 
ATOM      5  N   UNL     1       0.098  13.445  19.245  0.00  0.00    +0.000 N 
ATOM      6  C   UNL     1       0.728  14.668  19.513  0.00  0.00    +0.000 C 
ATOM      7  O   UNL     1       0.093  15.649  19.905  0.00  0.00    +0.000 OA
ATOM      8  C   UNL     1      -1.284  13.261  19.662  0.00  0.00    +0.000 C 
ENDROOT
BRANCH   3   9
ATOM      9  C   UNL     1       1.302   9.856  19.465  0.00  0.00    +0.000 A 
ATOM     10  C   UNL     1       1.410   8.769  20.343  0.00  0.00    +0.000 A 
ATOM     11  C   UNL     1       1.956   7.562  19.912  0.00  0.00    +0.000 A 
ATOM     12  C   UNL     1       2.397   7.428  18.599  0.00  0.00    +0.000 A 
ATOM     13  C   UNL     1       2.293   8.501  17.713  0.00  0.00    +0.000 A 
ATOM     14  C   UNL     1       1.753   9.710  18.145  0.00  0.00    +0.000 A 
ENDBRANCH   3   9
BRANCH   6  15
ATOM     15  C   UNL     1       2.196  14.853  19.299  0.00  0.00    +0.000 A 
ATOM     16  C   UNL     1       2.650  15.214  18.023  0.00  0.00    +0.000 A 
ATOM     17  C   UNL     1       4.019  15.365  17.774  0.00  0.00    +0.000 A 
ATOM     18  C   UNL     1       4.949  15.160  18.795  0.00  0.00    +0.000 A 
ATOM     19  C   UNL     1       4.500  14.833  20.071  0.00  0.00    +0.000 A 
ATOM     20  C   UNL     1       3.133  14.738  20.330  0.00  0.00    +0.000 A 
BRANCH  18  21
ATOM     21  O   UNL     1       6.264  15.292  18.445  0.00  0.00    +0.000 OA
ATOM     22  C   UNL     1       6.774  14.257  17.608  0.00  0.00    +0.000 C 
ENDBRANCH  18  21
ENDBRANCH   6  15
BRANCH   1  24
ATOM     23  N   UNL     1      -1.719  13.263  23.182  0.00  0.00    +0.000 N 
ATOM     24  C   UNL     1      -0.831  12.955  22.181  0.00  0.00    +0.000 C 
ATOM     25  O   UNL     1       0.373  13.131  22.380  0.00  0.00    +0.000 OA
ATOM     26  H   UNL     1      -1.287  13.777  23.942  0.00  0.00    +0.000 HD
BRANCH  23  27
ATOM     27  C   UNL     1      -3.140  13.392  23.008  0.00  0.00    +0.000 C 
BRANCH  27  29
ATOM     28  C   UNL     1      -4.518  12.347  24.764  0.00  0.00    +0.000 C 
ATOM     29  C   UNL     1      -3.855  13.419  24.308  0.00  0.00    +0.000 C 
ENDBRANCH  27  29
ENDBRANCH  23  27
ENDBRANCH   1  24
TORSDOF 6
ENDMDL
