MODEL 1
REMARK VINA RESULT:      -7.9      0.000      0.000
REMARK  Name = 
REMARK  8 active torsions:
REMARK  status: ('A' for Active; 'I' for Inactive)
REMARK    1  A    between atoms: C_1  and  C_2
REMARK    2  A    between atoms: C_2  and  N_3
REMARK    3  A    between atoms: C_2  and  C_11
REMARK    4  A    between atoms: C_4  and  C_6
REMARK    5  A    between atoms: C_11  and  C_12
REMARK    6  A    between atoms: C_11  and  N_17
REMARK    7  A    between atoms: N_20  and  C_21
REMARK    8  A    between atoms: C_21  and  C_22
REMARK                            x       y       z     vdW  Elec       q    Type
REMARK                         _______ _______ _______ _____ _____    ______ ____
ROOT
ATOM      1  C   UNL     1       3.872   5.497  19.214  0.00  0.00    +0.000 C 
ENDROOT
BRANCH   1   2
ATOM      2  N   UNL     1       4.947   4.729  18.516  0.00  0.00    +0.000 NA
ATOM      3  C   UNL     1       4.730   4.265  17.144  0.00  0.00    +0.000 C 
ATOM      4  C   UNL     1       5.026   5.329  16.072  0.00  0.00    +0.000 C 
ATOM      5  N   UNL     1       6.348   5.977  16.184  0.00  0.00    +0.000 NA
ATOM      6  C   UNL     1       6.659   6.289  17.588  0.00  0.00    +0.000 C 
ATOM      7  C   UNL     1       6.307   5.245  18.657  0.00  0.00    +0.000 C 
BRANCH   5   8
ATOM      8  C   UNL     1       7.428   5.190  15.606  0.00  0.00    +0.000 C 
BRANCH   8   9
ATOM      9  C   UNL     1       7.176   4.805  14.164  0.00  0.00    +0.000 A 
ATOM     10  C   UNL     1       7.851   5.438  13.107  0.00  0.00    +0.000 A 
ATOM     11  C   UNL     1       7.680   4.993  11.796  0.00  0.00    +0.000 A 
ATOM     12  C   UNL     1       6.857   3.898  11.535  0.00  0.00    +0.000 A 
ATOM     13  C   UNL     1       6.158   3.288  12.579  0.00  0.00    +0.000 A 
ATOM     14  C   UNL     1       6.298   3.753  13.880  0.00  0.00    +0.000 A 
ENDBRANCH   8   9
ENDBRANCH   5   8
ENDBRANCH   1   2
BRANCH   1  15
ATOM     15  C   UNL     1       3.187   4.479  20.162  0.00  0.00    +0.000 A 
ATOM     16  C   UNL     1       2.170   4.672  21.085  0.00  0.00    +0.000 A 
ATOM     17  C   UNL     1       1.713   3.456  21.671  0.00  0.00    +0.000 A 
ATOM     18  C   UNL     1       2.408   2.366  21.201  0.00  0.00    +0.000 A 
ATOM     19  S   UNL     1       3.617   2.811  20.079  0.00  0.00    +0.000 S 
ENDBRANCH   1  15
BRANCH   1  21
ATOM     20  C   UNL     1       1.598   5.555  17.904  0.00  0.00    +0.000 C 
ATOM     21  C   UNL     1       2.763   6.390  18.454  0.00  0.00    +0.000 C 
BRANCH  21  22
ATOM     22  N   UNL     1       2.124   7.514  19.183  0.00  0.00    +0.000 N 
ATOM     23  C   UNL     1       1.811   8.729  18.624  0.00  0.00    +0.000 C 
ATOM     24  O   UNL     1       2.012   8.952  17.431  0.00  0.00    +0.000 OA
ATOM     25  H   UNL     1       1.886   7.374  20.157  0.00  0.00    +0.000 HD
BRANCH  23  26
ATOM     26  C   UNL     1       1.185   9.736  19.489  0.00  0.00    +0.000 A 
ATOM     27  C   UNL     1       0.593   9.493  20.708  0.00  0.00    +0.000 A 
ATOM     28  C   UNL     1       0.070  10.672  21.315  0.00  0.00    +0.000 A 
ATOM     29  C   UNL     1       0.336  11.791  20.562  0.00  0.00    +0.000 A 
ATOM     30  S   UNL     1       1.151  11.405  19.102  0.00  0.00    +0.000 S 
ENDBRANCH  23  26
ENDBRANCH  21  22
ENDBRANCH   1  21
TORSDOF 7
ENDMDL
MODEL 2
REMARK VINA RESULT:      -7.9      1.169      1.278
REMARK  Name = 
REMARK  8 active torsions:
REMARK  status: ('A' for Active; 'I' for Inactive)
REMARK    1  A    between atoms: C_1  and  C_2
REMARK    2  A    between atoms: C_2  and  N_3
REMARK    3  A    between atoms: C_2  and  C_11
REMARK    4  A    between atoms: C_4  and  C_6
REMARK    5  A    between atoms: C_11  and  C_12
REMARK    6  A    between atoms: C_11  and  N_17
REMARK    7  A    between atoms: N_20  and  C_21
REMARK    8  A    between atoms: C_21  and  C_22
REMARK                            x       y       z     vdW  Elec       q    Type
REMARK                         _______ _______ _______ _____ _____    ______ ____
ROOT
ATOM      1  C   UNL     1       3.553   5.479  19.925  0.00  0.00    +0.000 C 
ENDROOT
BRANCH   1   2
ATOM      2  N   UNL     1       4.714   4.744  19.339  0.00  0.00    +0.000 NA
ATOM      3  C   UNL     1       4.478   3.685  18.355  0.00  0.00    +0.000 C 
ATOM      4  C   UNL     1       4.294   4.201  16.917  0.00  0.00    +0.000 C 
ATOM      5  N   UNL     1       5.356   5.110  16.438  0.00  0.00    +0.000 NA
ATOM      6  C   UNL     1       5.732   6.071  17.487  0.00  0.00    +0.000 C 
ATOM      7  C   UNL     1       5.856   5.559  18.928  0.00  0.00    +0.000 C 
BRANCH   5   8
ATOM      8  C   UNL     1       6.543   4.413  15.965  0.00  0.00    +0.000 C 
BRANCH   8   9
ATOM      9  C   UNL     1       6.693   4.451  14.459  0.00  0.00    +0.000 A 
ATOM     10  C   UNL     1       7.617   5.305  13.835  0.00  0.00    +0.000 A 
ATOM     11  C   UNL     1       7.811   5.245  12.455  0.00  0.00    +0.000 A 
ATOM     12  C   UNL     1       7.103   4.316  11.693  0.00  0.00    +0.000 A 
ATOM     13  C   UNL     1       6.159   3.488  12.305  0.00  0.00    +0.000 A 
ATOM     14  C   UNL     1       5.938   3.572  13.674  0.00  0.00    +0.000 A 
ENDBRANCH   8   9
ENDBRANCH   5   8
ENDBRANCH   1   2
BRANCH   1  15
ATOM     15  C   UNL     1       2.451   4.410  20.135  0.00  0.00    +0.000 A 
ATOM     16  C   UNL     1       1.429   4.009  19.287  0.00  0.00    +0.000 A 
ATOM     17  C   UNL     1       0.696   2.894  19.787  0.00  0.00    +0.000 A 
ATOM     18  C   UNL     1       1.159   2.484  21.015  0.00  0.00    +0.000 A 
ATOM     19  S   UNL     1       2.452   3.453  21.571  0.00  0.00    +0.000 S 
ENDBRANCH   1  15
BRANCH   1  21
ATOM     20  C   UNL     1       2.160   6.557  17.980  0.00  0.00    +0.000 C 
ATOM     21  C   UNL     1       2.920   6.820  19.288  0.00  0.00    +0.000 C 
BRANCH  21  22
ATOM     22  N   UNL     1       2.000   7.641  20.113  0.00  0.00    +0.000 N 
ATOM     23  C   UNL     1       1.547   8.891  19.767  0.00  0.00    +0.000 C 
ATOM     24  O   UNL     1       1.857   9.406  18.693  0.00  0.00    +0.000 OA
ATOM     25  H   UNL     1       1.667   7.250  20.986  0.00  0.00    +0.000 HD
BRANCH  23  26
ATOM     26  C   UNL     1       0.643   9.572  20.702  0.00  0.00    +0.000 A 
ATOM     27  C   UNL     1       0.365   9.168  21.988  0.00  0.00    +0.000 A 
ATOM     28  C   UNL     1      -0.553  10.032  22.654  0.00  0.00    +0.000 A 
ATOM     29  C   UNL     1      -0.900  11.105  21.868  0.00  0.00    +0.000 A 
ATOM     30  S   UNL     1      -0.172  11.029  20.316  0.00  0.00    +0.000 S 
ENDBRANCH  23  26
ENDBRANCH  21  22
ENDBRANCH   1  21
TORSDOF 7
ENDMDL
MODEL 3
REMARK VINA RESULT:      -7.6      0.801      1.252
REMARK  Name = 
REMARK  8 active torsions:
REMARK  status: ('A' for Active; 'I' for Inactive)
REMARK    1  A    between atoms: C_1  and  C_2
REMARK    2  A    between atoms: C_2  and  N_3
REMARK    3  A    between atoms: C_2  and  C_11
REMARK    4  A    between atoms: C_4  and  C_6
REMARK    5  A    between atoms: C_11  and  C_12
REMARK    6  A    between atoms: C_11  and  N_17
REMARK    7  A    between atoms: N_20  and  C_21
REMARK    8  A    between atoms: C_21  and  C_22
REMARK                            x       y       z     vdW  Elec       q    Type
REMARK                         _______ _______ _______ _____ _____    ______ ____
ROOT
ATOM      1  C   UNL     1       3.853   5.265  19.726  0.00  0.00    +0.000 C 
ENDROOT
BRANCH   1   2
ATOM      2  N   UNL     1       5.015   4.612  19.051  0.00  0.00    +0.000 NA
ATOM      3  C   UNL     1       4.830   3.976  17.745  0.00  0.00    +0.000 C 
ATOM      4  C   UNL     1       4.905   4.953  16.559  0.00  0.00    +0.000 C 
ATOM      5  N   UNL     1       6.104   5.816  16.536  0.00  0.00    +0.000 NA
ATOM      6  C   UNL     1       6.408   6.322  17.885  0.00  0.00    +0.000 C 
ATOM      7  C   UNL     1       6.274   5.354  19.068  0.00  0.00    +0.000 C 
BRANCH   5   8
ATOM      8  C   UNL     1       7.279   5.159  15.983  0.00  0.00    +0.000 C 
BRANCH   8   9
ATOM      9  C   UNL     1       7.093   4.724  14.545  0.00  0.00    +0.000 A 
ATOM     10  C   UNL     1       6.143   3.753  14.188  0.00  0.00    +0.000 A 
ATOM     11  C   UNL     1       5.918   3.447  12.846  0.00  0.00    +0.000 A 
ATOM     12  C   UNL     1       6.622   4.125  11.852  0.00  0.00    +0.000 A 
ATOM     13  C   UNL     1       7.592   5.066  12.202  0.00  0.00    +0.000 A 
ATOM     14  C   UNL     1       7.842   5.346  13.540  0.00  0.00    +0.000 A 
ENDBRANCH   8   9
ENDBRANCH   5   8
ENDBRANCH   1   2
BRANCH   1  15
ATOM     15  C   UNL     1       2.945   4.101  20.202  0.00  0.00    +0.000 A 
ATOM     16  C   UNL     1       2.207   3.971  21.368  0.00  0.00    +0.000 A 
ATOM     17  C   UNL     1       1.386   2.807  21.380  0.00  0.00    +0.000 A 
ATOM     18  C   UNL     1       1.533   2.062  20.234  0.00  0.00    +0.000 A 
ATOM     19  S   UNL     1       2.673   2.751  19.162  0.00  0.00    +0.000 S 
ENDBRANCH   1  15
BRANCH   1  21
ATOM     20  C   UNL     1       1.974   5.905  18.009  0.00  0.00    +0.000 C 
ATOM     21  C   UNL     1       2.962   6.434  19.058  0.00  0.00    +0.000 C 
BRANCH  21  22
ATOM     22  N   UNL     1       2.158   7.315  19.940  0.00  0.00    +0.000 N 
ATOM     23  C   UNL     1       1.710   8.566  19.594  0.00  0.00    +0.000 C 
ATOM     24  O   UNL     1       1.922   9.031  18.474  0.00  0.00    +0.000 OA
ATOM     25  H   UNL     1       1.906   6.967  20.857  0.00  0.00    +0.000 HD
BRANCH  23  26
ATOM     26  C   UNL     1       0.929   9.311  20.588  0.00  0.00    +0.000 A 
ATOM     27  C   UNL     1       0.430   8.799  21.766  0.00  0.00    +0.000 A 
ATOM     28  C   UNL     1      -0.290   9.763  22.528  0.00  0.00    +0.000 A 
ATOM     29  C   UNL     1      -0.266  11.002  21.932  0.00  0.00    +0.000 A 
ATOM     30  S   UNL     1       0.564  10.978  20.431  0.00  0.00    +0.000 S 
ENDBRANCH  23  26
ENDBRANCH  21  22
ENDBRANCH   1  21
TORSDOF 7
ENDMDL
MODEL 4
REMARK VINA RESULT:      -7.5      1.265      1.624
REMARK  Name = 
REMARK  8 active torsions:
REMARK  status: ('A' for Active; 'I' for Inactive)
REMARK    1  A    between atoms: C_1  and  C_2
REMARK    2  A    between atoms: C_2  and  N_3
REMARK    3  A    between atoms: C_2  and  C_11
REMARK    4  A    between atoms: C_4  and  C_6
REMARK    5  A    between atoms: C_11  and  C_12
REMARK    6  A    between atoms: C_11  and  N_17
REMARK    7  A    between atoms: N_20  and  C_21
REMARK    8  A    between atoms: C_21  and  C_22
REMARK                            x       y       z     vdW  Elec       q    Type
REMARK                         _______ _______ _______ _____ _____    ______ ____
ROOT
ATOM      1  C   UNL     1       3.405   5.748  19.667  0.00  0.00    +0.000 C 
ENDROOT
BRANCH   1   2
ATOM      2  N   UNL     1       4.625   5.021  19.202  0.00  0.00    +0.000 NA
ATOM      3  C   UNL     1       4.480   3.791  18.420  0.00  0.00    +0.000 C 
ATOM      4  C   UNL     1       4.256   4.031  16.917  0.00  0.00    +0.000 C 
ATOM      5  N   UNL     1       5.239   4.927  16.274  0.00  0.00    +0.000 NA
ATOM      6  C   UNL     1       5.530   6.085  17.135  0.00  0.00    +0.000 C 
ATOM      7  C   UNL     1       5.695   5.843  18.642  0.00  0.00    +0.000 C 
BRANCH   5   8
ATOM      8  C   UNL     1       6.481   4.259  15.914  0.00  0.00    +0.000 C 
BRANCH   8   9
ATOM      9  C   UNL     1       6.756   4.281  14.426  0.00  0.00    +0.000 A 
ATOM     10  C   UNL     1       6.081   3.422  13.542  0.00  0.00    +0.000 A 
ATOM     11  C   UNL     1       6.276   3.535  12.165  0.00  0.00    +0.000 A 
ATOM     12  C   UNL     1       7.124   4.519  11.661  0.00  0.00    +0.000 A 
ATOM     13  C   UNL     1       7.824   5.352  12.538  0.00  0.00    +0.000 A 
ATOM     14  C   UNL     1       7.659   5.218  13.911  0.00  0.00    +0.000 A 
ENDBRANCH   8   9
ENDBRANCH   5   8
ENDBRANCH   1   2
BRANCH   1  15
ATOM     15  C   UNL     1       2.359   4.646  19.976  0.00  0.00    +0.000 A 
ATOM     16  C   UNL     1       1.380   4.098  19.162  0.00  0.00    +0.000 A 
ATOM     17  C   UNL     1       0.700   3.003  19.769  0.00  0.00    +0.000 A 
ATOM     18  C   UNL     1       1.159   2.755  21.042  0.00  0.00    +0.000 A 
ATOM     19  S   UNL     1       2.384   3.852  21.508  0.00  0.00    +0.000 S 
ENDBRANCH   1  15
BRANCH   1  21
ATOM     20  C   UNL     1       1.905   6.487  17.643  0.00  0.00    +0.000 C 
ATOM     21  C   UNL     1       2.716   6.963  18.857  0.00  0.00    +0.000 C 
BRANCH  21  22
ATOM     22  N   UNL     1       1.817   7.891  19.585  0.00  0.00    +0.000 N 
ATOM     23  C   UNL     1       1.530   9.174  19.186  0.00  0.00    +0.000 C 
ATOM     24  O   UNL     1       1.988   9.632  18.139  0.00  0.00    +0.000 OA
ATOM     25  H   UNL     1       1.367   7.554  20.428  0.00  0.00    +0.000 HD
BRANCH  23  26
ATOM     26  C   UNL     1       0.621   9.963  20.026  0.00  0.00    +0.000 A 
ATOM     27  C   UNL     1      -0.307  10.873  19.570  0.00  0.00    +0.000 A 
ATOM     28  C   UNL     1      -1.045  11.486  20.625  0.00  0.00    +0.000 A 
ATOM     29  C   UNL     1      -0.695  10.975  21.853  0.00  0.00    +0.000 A 
ATOM     30  S   UNL     1       0.563   9.814  21.732  0.00  0.00    +0.000 S 
ENDBRANCH  23  26
ENDBRANCH  21  22
ENDBRANCH   1  21
TORSDOF 7
ENDMDL
MODEL 5
REMARK VINA RESULT:      -7.1      0.934      1.474
REMARK  Name = 
REMARK  8 active torsions:
REMARK  status: ('A' for Active; 'I' for Inactive)
REMARK    1  A    between atoms: C_1  and  C_2
REMARK    2  A    between atoms: C_2  and  N_3
REMARK    3  A    between atoms: C_2  and  C_11
REMARK    4  A    between atoms: C_4  and  C_6
REMARK    5  A    between atoms: C_11  and  C_12
REMARK    6  A    between atoms: C_11  and  N_17
REMARK    7  A    between atoms: N_20  and  C_21
REMARK    8  A    between atoms: C_21  and  C_22
REMARK                            x       y       z     vdW  Elec       q    Type
REMARK                         _______ _______ _______ _____ _____    ______ ____
ROOT
ATOM      1  C   UNL     1       3.730   5.196  18.924  0.00  0.00    +0.000 C 
ENDROOT
BRANCH   1   2
ATOM      2  N   UNL     1       4.887   4.509  18.275  0.00  0.00    +0.000 NA
ATOM      3  C   UNL     1       4.762   4.025  16.898  0.00  0.00    +0.000 C 
ATOM      4  C   UNL     1       5.020   5.104  15.832  0.00  0.00    +0.000 C 
ATOM      5  N   UNL     1       6.285   5.851  15.994  0.00  0.00    +0.000 NA
ATOM      6  C   UNL     1       6.514   6.190  17.408  0.00  0.00    +0.000 C 
ATOM      7  C   UNL     1       6.197   5.126  18.468  0.00  0.00    +0.000 C 
BRANCH   5   8
ATOM      8  C   UNL     1       7.443   5.146  15.465  0.00  0.00    +0.000 C 
BRANCH   8   9
ATOM      9  C   UNL     1       7.270   4.715  14.024  0.00  0.00    +0.000 A 
ATOM     10  C   UNL     1       6.400   3.670  13.671  0.00  0.00    +0.000 A 
ATOM     11  C   UNL     1       6.178   3.362  12.329  0.00  0.00    +0.000 A 
ATOM     12  C   UNL     1       6.802   4.111  11.332  0.00  0.00    +0.000 A 
ATOM     13  C   UNL     1       7.694   5.128  11.679  0.00  0.00    +0.000 A 
ATOM     14  C   UNL     1       7.944   5.412  13.016  0.00  0.00    +0.000 A 
ENDBRANCH   8   9
ENDBRANCH   5   8
ENDBRANCH   1   2
BRANCH   1  15
ATOM     15  C   UNL     1       3.177   4.183  19.960  0.00  0.00    +0.000 A 
ATOM     16  C   UNL     1       3.538   2.865  20.194  0.00  0.00    +0.000 A 
ATOM     17  C   UNL     1       2.890   2.304  21.332  0.00  0.00    +0.000 A 
ATOM     18  C   UNL     1       2.031   3.198  21.927  0.00  0.00    +0.000 A 
ATOM     19  S   UNL     1       1.990   4.694  21.104  0.00  0.00    +0.000 S 
ENDBRANCH   1  15
BRANCH   1  21
ATOM     20  C   UNL     1       1.406   4.890  17.742  0.00  0.00    +0.000 C 
ATOM     21  C   UNL     1       2.517   5.884  18.111  0.00  0.00    +0.000 C 
BRANCH  21  22
ATOM     22  N   UNL     1       1.815   7.044  18.713  0.00  0.00    +0.000 N 
ATOM     23  C   UNL     1       1.985   8.348  18.320  0.00  0.00    +0.000 C 
ATOM     24  O   UNL     1       2.725   8.640  17.382  0.00  0.00    +0.000 OA
ATOM     25  H   UNL     1       1.152   6.863  19.457  0.00  0.00    +0.000 HD
BRANCH  23  26
ATOM     26  C   UNL     1       1.215   9.379  19.027  0.00  0.00    +0.000 A 
ATOM     27  C   UNL     1       0.635  10.487  18.449  0.00  0.00    +0.000 A 
ATOM     28  C   UNL     1      -0.048  11.309  19.391  0.00  0.00    +0.000 A 
ATOM     29  C   UNL     1      -0.017  10.767  20.654  0.00  0.00    +0.000 A 
ATOM     30  S   UNL     1       0.888   9.311  20.707  0.00  0.00    +0.000 S 
ENDBRANCH  23  26
ENDBRANCH  21  22
ENDBRANCH   1  21
TORSDOF 7
ENDMDL
MODEL 6
REMARK VINA RESULT:      -6.8      1.075      1.422
REMARK  Name = 
REMARK  8 active torsions:
REMARK  status: ('A' for Active; 'I' for Inactive)
REMARK    1  A    between atoms: C_1  and  C_2
REMARK    2  A    between atoms: C_2  and  N_3
REMARK    3  A    between atoms: C_2  and  C_11
REMARK    4  A    between atoms: C_4  and  C_6
REMARK    5  A    between atoms: C_11  and  C_12
REMARK    6  A    between atoms: C_11  and  N_17
REMARK    7  A    between atoms: N_20  and  C_21
REMARK    8  A    between atoms: C_21  and  C_22
REMARK                            x       y       z     vdW  Elec       q    Type
REMARK                         _______ _______ _______ _____ _____    ______ ____
ROOT
ATOM      1  C   UNL     1       3.606   5.846  19.551  0.00  0.00    +0.000 C 
ENDROOT
BRANCH   1   2
ATOM      2  N   UNL     1       4.854   5.171  19.082  0.00  0.00    +0.000 NA
ATOM      3  C   UNL     1       4.769   3.855  18.445  0.00  0.00    +0.000 C 
ATOM      4  C   UNL     1       4.434   3.910  16.944  0.00  0.00    +0.000 C 
ATOM      5  N   UNL     1       5.295   4.805  16.144  0.00  0.00    +0.000 NA
ATOM      6  C   UNL     1       5.537   6.070  16.857  0.00  0.00    +0.000 C 
ATOM      7  C   UNL     1       5.813   6.010  18.366  0.00  0.00    +0.000 C 
BRANCH   5   8
ATOM      8  C   UNL     1       6.566   4.203  15.771  0.00  0.00    +0.000 C 
BRANCH   8   9
ATOM      9  C   UNL     1       6.825   4.239  14.280  0.00  0.00    +0.000 A 
ATOM     10  C   UNL     1       6.152   3.378  13.397  0.00  0.00    +0.000 A 
ATOM     11  C   UNL     1       6.330   3.504  12.019  0.00  0.00    +0.000 A 
ATOM     12  C   UNL     1       7.159   4.505  11.513  0.00  0.00    +0.000 A 
ATOM     13  C   UNL     1       7.856   5.340  12.389  0.00  0.00    +0.000 A 
ATOM     14  C   UNL     1       7.709   5.193  13.762  0.00  0.00    +0.000 A 
ENDBRANCH   8   9
ENDBRANCH   5   8
ENDBRANCH   1   2
BRANCH   1  15
ATOM     15  C   UNL     1       2.702   4.710  20.096  0.00  0.00    +0.000 A 
ATOM     16  C   UNL     1       2.622   4.173  21.372  0.00  0.00    +0.000 A 
ATOM     17  C   UNL     1       1.565   3.229  21.513  0.00  0.00    +0.000 A 
ATOM     18  C   UNL     1       0.876   3.048  20.336  0.00  0.00    +0.000 A 
ATOM     19  S   UNL     1       1.517   3.994  19.065  0.00  0.00    +0.000 S 
ENDBRANCH   1  15
BRANCH   1  21
ATOM     20  C   UNL     1       1.829   6.153  17.644  0.00  0.00    +0.000 C 
ATOM     21  C   UNL     1       2.740   6.869  18.651  0.00  0.00    +0.000 C 
BRANCH  21  22
ATOM     22  N   UNL     1       1.867   7.859  19.329  0.00  0.00    +0.000 N 
ATOM     23  C   UNL     1       1.608   9.123  18.858  0.00  0.00    +0.000 C 
ATOM     24  O   UNL     1       2.070   9.509  17.785  0.00  0.00    +0.000 OA
ATOM     25  H   UNL     1       1.415   7.581  20.192  0.00  0.00    +0.000 HD
BRANCH  23  26
ATOM     26  C   UNL     1       0.723   9.980  19.656  0.00  0.00    +0.000 A 
ATOM     27  C   UNL     1       1.044  10.566  20.860  0.00  0.00    +0.000 A 
ATOM     28  C   UNL     1      -0.022  11.344  21.398  0.00  0.00    +0.000 A 
ATOM     29  C   UNL     1      -1.105  11.375  20.552  0.00  0.00    +0.000 A 
ATOM     30  S   UNL     1      -0.856  10.415  19.152  0.00  0.00    +0.000 S 
ENDBRANCH  23  26
ENDBRANCH  21  22
ENDBRANCH   1  21
TORSDOF 7
ENDMDL
MODEL 7
REMARK VINA RESULT:      -6.8      1.014      1.297
REMARK  Name = 
REMARK  8 active torsions:
REMARK  status: ('A' for Active; 'I' for Inactive)
REMARK    1  A    between atoms: C_1  and  C_2
REMARK    2  A    between atoms: C_2  and  N_3
REMARK    3  A    between atoms: C_2  and  C_11
REMARK    4  A    between atoms: C_4  and  C_6
REMARK    5  A    between atoms: C_11  and  C_12
REMARK    6  A    between atoms: C_11  and  N_17
REMARK    7  A    between atoms: N_20  and  C_21
REMARK    8  A    between atoms: C_21  and  C_22
REMARK                            x       y       z     vdW  Elec       q    Type
REMARK                         _______ _______ _______ _____ _____    ______ ____
ROOT
ATOM      1  C   UNL     1       4.013   5.685  19.067  0.00  0.00    +0.000 C 
ENDROOT
BRANCH   1   2
ATOM      2  N   UNL     1       5.196   5.115  18.354  0.00  0.00    +0.000 NA
ATOM      3  C   UNL     1       5.032   3.924  17.518  0.00  0.00    +0.000 C 
ATOM      4  C   UNL     1       4.530   4.226  16.095  0.00  0.00    +0.000 C 
ATOM      5  N   UNL     1       5.301   5.254  15.366  0.00  0.00    +0.000 NA
ATOM      6  C   UNL     1       5.629   6.384  16.250  0.00  0.00    +0.000 C 
ATOM      7  C   UNL     1       6.073   6.075  17.686  0.00  0.00    +0.000 C 
BRANCH   5   8
ATOM      8  C   UNL     1       6.518   4.739  14.756  0.00  0.00    +0.000 C 
BRANCH   8   9
ATOM      9  C   UNL     1       6.270   4.028  13.443  0.00  0.00    +0.000 A 
ATOM     10  C   UNL     1       7.327   3.507  12.679  0.00  0.00    +0.000 A 
ATOM     11  C   UNL     1       7.065   2.765  11.528  0.00  0.00    +0.000 A 
ATOM     12  C   UNL     1       5.747   2.516  11.146  0.00  0.00    +0.000 A 
ATOM     13  C   UNL     1       4.694   3.061  11.884  0.00  0.00    +0.000 A 
ATOM     14  C   UNL     1       4.954   3.832  13.010  0.00  0.00    +0.000 A 
ENDBRANCH   8   9
ENDBRANCH   5   8
ENDBRANCH   1   2
BRANCH   1  15
ATOM     15  C   UNL     1       3.417   4.509  19.884  0.00  0.00    +0.000 A 
ATOM     16  C   UNL     1       3.795   3.176  19.926  0.00  0.00    +0.000 A 
ATOM     17  C   UNL     1       3.086   2.427  20.909  0.00  0.00    +0.000 A 
ATOM     18  C   UNL     1       2.166   3.199  21.578  0.00  0.00    +0.000 A 
ATOM     19  S   UNL     1       2.143   4.810  21.007  0.00  0.00    +0.000 S 
ENDBRANCH   1  15
BRANCH   1  21
ATOM     20  C   UNL     1       1.701   5.618  17.826  0.00  0.00    +0.000 C 
ATOM     21  C   UNL     1       2.835   6.516  18.340  0.00  0.00    +0.000 C 
BRANCH  21  22
ATOM     22  N   UNL     1       2.159   7.605  19.086  0.00  0.00    +0.000 N 
ATOM     23  C   UNL     1       1.802   8.816  18.546  0.00  0.00    +0.000 C 
ATOM     24  O   UNL     1       1.992   9.063  17.356  0.00  0.00    +0.000 OA
ATOM     25  H   UNL     1       1.929   7.442  20.060  0.00  0.00    +0.000 HD
BRANCH  23  26
ATOM     26  C   UNL     1       1.143   9.788  19.427  0.00  0.00    +0.000 A 
ATOM     27  C   UNL     1       0.479   9.492  20.596  0.00  0.00    +0.000 A 
ATOM     28  C   UNL     1      -0.059  10.647  21.235  0.00  0.00    +0.000 A 
ATOM     29  C   UNL     1       0.266  11.799  20.558  0.00  0.00    +0.000 A 
ATOM     30  S   UNL     1       1.156  11.476  19.129  0.00  0.00    +0.000 S 
ENDBRANCH  23  26
ENDBRANCH  21  22
ENDBRANCH   1  21
TORSDOF 7
ENDMDL
MODEL 8
REMARK VINA RESULT:      -6.8      1.986      2.807
REMARK  Name = 
REMARK  8 active torsions:
REMARK  status: ('A' for Active; 'I' for Inactive)
REMARK    1  A    between atoms: C_1  and  C_2
REMARK    2  A    between atoms: C_2  and  N_3
REMARK    3  A    between atoms: C_2  and  C_11
REMARK    4  A    between atoms: C_4  and  C_6
REMARK    5  A    between atoms: C_11  and  C_12
REMARK    6  A    between atoms: C_11  and  N_17
REMARK    7  A    between atoms: N_20  and  C_21
REMARK    8  A    between atoms: C_21  and  C_22
REMARK                            x       y       z     vdW  Elec       q    Type
REMARK                         _______ _______ _______ _____ _____    ______ ____
ROOT
ATOM      1  C   UNL     1       4.613   4.215  18.009  0.00  0.00    +0.000 C 
ENDROOT
BRANCH   1   2
ATOM      2  N   UNL     1       4.508   4.691  16.597  0.00  0.00    +0.000 NA
ATOM      3  C   UNL     1       5.258   5.876  16.175  0.00  0.00    +0.000 C 
ATOM      4  C   UNL     1       6.720   5.585  15.791  0.00  0.00    +0.000 C 
ATOM      5  N   UNL     1       6.903   4.494  14.812  0.00  0.00    +0.000 NA
ATOM      6  C   UNL     1       6.018   3.360  15.123  0.00  0.00    +0.000 C 
ATOM      7  C   UNL     1       4.579   3.663  15.561  0.00  0.00    +0.000 C 
BRANCH   5   8
ATOM      8  C   UNL     1       6.695   4.914  13.434  0.00  0.00    +0.000 C 
BRANCH   8   9
ATOM      9  C   UNL     1       6.497   3.754  12.483  0.00  0.00    +0.000 A 
ATOM     10  C   UNL     1       7.585   3.015  11.989  0.00  0.00    +0.000 A 
ATOM     11  C   UNL     1       7.369   1.886  11.199  0.00  0.00    +0.000 A 
ATOM     12  C   UNL     1       6.067   1.472  10.919  0.00  0.00    +0.000 A 
ATOM     13  C   UNL     1       4.983   2.223  11.379  0.00  0.00    +0.000 A 
ATOM     14  C   UNL     1       5.197   3.369  12.135  0.00  0.00    +0.000 A 
ENDBRANCH   8   9
ENDBRANCH   5   8
ENDBRANCH   1   2
BRANCH   1  15
ATOM     15  C   UNL     1       3.403   3.267  18.217  0.00  0.00    +0.000 A 
ATOM     16  C   UNL     1       3.348   2.017  18.813  0.00  0.00    +0.000 A 
ATOM     17  C   UNL     1       2.018   1.518  18.936  0.00  0.00    +0.000 A 
ATOM     18  C   UNL     1       1.092   2.387  18.409  0.00  0.00    +0.000 A 
ATOM     19  S   UNL     1       1.824   3.783  17.750  0.00  0.00    +0.000 S 
ENDBRANCH   1  15
BRANCH   1  21
ATOM     20  C   UNL     1       6.212   5.732  19.434  0.00  0.00    +0.000 C 
ATOM     21  C   UNL     1       4.782   5.195  19.281  0.00  0.00    +0.000 C 
BRANCH  21  22
ATOM     22  N   UNL     1       3.905   6.387  19.390  0.00  0.00    +0.000 N 
ATOM     23  C   UNL     1       2.702   6.413  20.052  0.00  0.00    +0.000 C 
ATOM     24  O   UNL     1       2.284   5.424  20.651  0.00  0.00    +0.000 OA
ATOM     25  H   UNL     1       4.220   7.249  18.960  0.00  0.00    +0.000 HD
BRANCH  23  26
ATOM     26  C   UNL     1       1.956   7.677  20.060  0.00  0.00    +0.000 A 
ATOM     27  C   UNL     1       1.293   8.212  21.142  0.00  0.00    +0.000 A 
ATOM     28  C   UNL     1       0.657   9.452  20.845  0.00  0.00    +0.000 A 
ATOM     29  C   UNL     1       0.908   9.854  19.553  0.00  0.00    +0.000 A 
ATOM     30  S   UNL     1       1.848   8.705  18.694  0.00  0.00    +0.000 S 
ENDBRANCH  23  26
ENDBRANCH  21  22
ENDBRANCH   1  21
TORSDOF 7
ENDMDL
MODEL 9
REMARK VINA RESULT:      -6.7      4.937      8.915
REMARK  Name = 
REMARK  8 active torsions:
REMARK  status: ('A' for Active; 'I' for Inactive)
REMARK    1  A    between atoms: C_1  and  C_2
REMARK    2  A    between atoms: C_2  and  N_3
REMARK    3  A    between atoms: C_2  and  C_11
REMARK    4  A    between atoms: C_4  and  C_6
REMARK    5  A    between atoms: C_11  and  C_12
REMARK    6  A    between atoms: C_11  and  N_17
REMARK    7  A    between atoms: N_20  and  C_21
REMARK    8  A    between atoms: C_21  and  C_22
REMARK                            x       y       z     vdW  Elec       q    Type
REMARK                         _______ _______ _______ _____ _____    ______ ____
ROOT
ATOM      1  C   UNL     1      -0.869  13.095  21.326  0.00  0.00    +0.000 C 
ENDROOT
BRANCH   1   2
ATOM      2  N   UNL     1       0.140  12.120  21.842  0.00  0.00    +0.000 NA
ATOM      3  C   UNL     1      -0.310  10.866  22.450  0.00  0.00    +0.000 C 
ATOM      4  C   UNL     1      -0.615   9.754  21.431  0.00  0.00    +0.000 C 
ATOM      5  N   UNL     1       0.463   9.487  20.457  0.00  0.00    +0.000 NA
ATOM      6  C   UNL     1       1.050  10.746  19.970  0.00  0.00    +0.000 C 
ATOM      7  C   UNL     1       1.296  11.870  20.984  0.00  0.00    +0.000 C 
BRANCH   5   8
ATOM      8  C   UNL     1       1.514   8.627  20.981  0.00  0.00    +0.000 C 
BRANCH   8   9
ATOM      9  C   UNL     1       1.811   7.441  20.088  0.00  0.00    +0.000 A 
ATOM     10  C   UNL     1       2.321   7.609  18.790  0.00  0.00    +0.000 A 
ATOM     11  C   UNL     1       2.685   6.499  18.027  0.00  0.00    +0.000 A 
ATOM     12  C   UNL     1       2.568   5.218  18.564  0.00  0.00    +0.000 A 
ATOM     13  C   UNL     1       2.029   5.045  19.841  0.00  0.00    +0.000 A 
ATOM     14  C   UNL     1       1.632   6.147  20.588  0.00  0.00    +0.000 A 
ENDBRANCH   8   9
ENDBRANCH   5   8
ENDBRANCH   1   2
BRANCH   1  15
ATOM     15  C   UNL     1      -1.052  14.139  22.458  0.00  0.00    +0.000 A 
ATOM     16  C   UNL     1      -1.615  13.994  23.717  0.00  0.00    +0.000 A 
ATOM     17  C   UNL     1      -1.475  15.158  24.526  0.00  0.00    +0.000 A 
ATOM     18  C   UNL     1      -0.829  16.172  23.860  0.00  0.00    +0.000 A 
ATOM     19  S   UNL     1      -0.417  15.731  22.261  0.00  0.00    +0.000 S 
ENDBRANCH   1  15
BRANCH   1  21
ATOM     20  C   UNL     1      -3.297  13.839  20.666  0.00  0.00    +0.000 C 
ATOM     21  C   UNL     1      -2.302  12.671  20.718  0.00  0.00    +0.000 C 
BRANCH  21  22
ATOM     22  N   UNL     1      -2.356  12.056  19.369  0.00  0.00    +0.000 N 
ATOM     23  C   UNL     1      -3.509  11.657  18.738  0.00  0.00    +0.000 C 
ATOM     24  O   UNL     1      -4.611  11.830  19.257  0.00  0.00    +0.000 OA
ATOM     25  H   UNL     1      -1.484  11.935  18.867  0.00  0.00    +0.000 HD
BRANCH  23  26
ATOM     26  C   UNL     1      -3.385  11.060  17.403  0.00  0.00    +0.000 A 
ATOM     27  C   UNL     1      -4.243  11.269  16.347  0.00  0.00    +0.000 A 
ATOM     28  C   UNL     1      -3.864  10.552  15.174  0.00  0.00    +0.000 A 
ATOM     29  C   UNL     1      -2.688   9.863  15.360  0.00  0.00    +0.000 A 
ATOM     30  S   UNL     1      -2.089  10.031  16.958  0.00  0.00    +0.000 S 
ENDBRANCH  23  26
ENDBRANCH  21  22
ENDBRANCH   1  21
TORSDOF 7
ENDMDL
