MODEL 1
REMARK VINA RESULT:      -6.9      0.000      0.000
REMARK  Name = 
REMARK  10 active torsions:
REMARK  status: ('A' for Active; 'I' for Inactive)
REMARK    1  A    between atoms: CG1_1  and  CB_2
REMARK    2  A    between atoms: CB_2  and  CG2_3
REMARK    3  A    between atoms: CB_2  and  CA_4
REMARK    4  A    between atoms: CA_4  and  N_5
REMARK    5  A    between atoms: CA_4  and  C_15
REMARK    6  A    between atoms: N_5  and  C_6
REMARK    7  A    between atoms: C_6  and  C_7
REMARK    8  A    between atoms: C_11  and  C_12
REMARK    9  A    between atoms: C_11  and  C_13
REMARK   10  A    between atoms: C_15  and  OXT_17
REMARK                            x       y       z     vdW  Elec       q    Type
REMARK                         _______ _______ _______ _____ _____    ______ ____
ROOT
ATOM      1  N   VAL A   1       3.365   4.564  19.242  0.00  0.00    +0.000 NA
ATOM      2  H   VAL A   1       4.288   4.725  19.647  0.00  0.00    +0.000 HD
ENDROOT
BRANCH   1   3
ATOM      3  CA  VAL A   1       2.981   3.127  19.358  0.00  0.00    +0.000 C 
BRANCH   3   5
ATOM      4  CG1 VAL A   1       0.757   3.982  20.453  0.00  0.00    +0.000 C 
ATOM      5  CB  VAL A   1       1.532   2.802  19.844  0.00  0.00    +0.000 C 
ATOM      6  CG2 VAL A   1       0.665   2.259  18.692  0.00  0.00    +0.000 C 
ENDBRANCH   3   5
BRANCH   3   7
ATOM      7  C   VAL A   1       4.064   2.436  20.234  0.00  0.00    +0.000 C 
ATOM      8  O   VAL A   1       3.935   2.096  21.407  0.00  0.00    +0.000 OA
BRANCH   7   9
ATOM      9  OXT VAL A   1       5.245   2.274  19.587  0.00  0.00    +0.000 OA
ATOM     10  HXT VAL A   1       5.763   1.578  20.046  0.00  0.00    +0.000 HD
ENDBRANCH   7   9
ENDBRANCH   3   7
ENDBRANCH   1   3
BRANCH   1  11
ATOM     11  C   UNK A   0       3.349   5.057  17.858  0.00  0.00    +0.000 C 
BRANCH  11  12
ATOM     12  C   UNK A   0       4.771   5.309  17.329  0.00  0.00    +0.000 C 
ATOM     13  C   UNK A   0       5.273   4.137  16.467  0.00  0.00    +0.000 C 
ATOM     14  C   UNK A   0       6.716   4.340  16.013  0.00  0.00    +0.000 C 
ATOM     15  C   UNK A   0       7.652   4.597  17.192  0.00  0.00    +0.000 C 
ATOM     16  C   UNK A   0       7.189   5.755  18.102  0.00  0.00    +0.000 C 
ATOM     17  C   UNK A   0       7.337   7.111  17.387  0.00  0.00    +0.000 C 
ATOM     18  C   UNK A   0       8.068   5.782  19.365  0.00  0.00    +0.000 C 
ATOM     19  C   UNK A   0       5.721   5.529  18.520  0.00  0.00    +0.000 C 
ENDBRANCH  11  12
ENDBRANCH   1  11
TORSDOF 6
ENDMDL
MODEL 2
REMARK VINA RESULT:      -6.9      2.410      5.779
REMARK  Name = 
REMARK  10 active torsions:
REMARK  status: ('A' for Active; 'I' for Inactive)
REMARK    1  A    between atoms: CG1_1  and  CB_2
REMARK    2  A    between atoms: CB_2  and  CG2_3
REMARK    3  A    between atoms: CB_2  and  CA_4
REMARK    4  A    between atoms: CA_4  and  N_5
REMARK    5  A    between atoms: CA_4  and  C_15
REMARK    6  A    between atoms: N_5  and  C_6
REMARK    7  A    between atoms: C_6  and  C_7
REMARK    8  A    between atoms: C_11  and  C_12
REMARK    9  A    between atoms: C_11  and  C_13
REMARK   10  A    between atoms: C_15  and  OXT_17
REMARK                            x       y       z     vdW  Elec       q    Type
REMARK                         _______ _______ _______ _____ _____    ______ ____
ROOT
ATOM      1  N   VAL A   1       6.483   3.974  18.131  0.00  0.00    +0.000 NA
ATOM      2  H   VAL A   1       7.201   3.368  18.531  0.00  0.00    +0.000 HD
ENDROOT
BRANCH   1   3
ATOM      3  CA  VAL A   1       7.103   5.085  17.353  0.00  0.00    +0.000 C 
BRANCH   3   5
ATOM      4  CG1 VAL A   1       7.553   7.668  17.419  0.00  0.00    +0.000 C 
ATOM      5  CB  VAL A   1       6.535   6.524  17.569  0.00  0.00    +0.000 C 
ATOM      6  CG2 VAL A   1       5.390   6.827  16.585  0.00  0.00    +0.000 C 
ENDBRANCH   3   5
BRANCH   3   7
ATOM      7  C   VAL A   1       7.080   4.662  15.857  0.00  0.00    +0.000 C 
ATOM      8  O   VAL A   1       7.650   5.238  14.934  0.00  0.00    +0.000 OA
BRANCH   7   9
ATOM      9  OXT VAL A   1       6.296   3.579  15.625  0.00  0.00    +0.000 OA
ATOM     10  HXT VAL A   1       6.813   2.920  15.114  0.00  0.00    +0.000 HD
ENDBRANCH   7   9
ENDBRANCH   3   7
ENDBRANCH   1   3
BRANCH   1  11
ATOM     11  C   UNK A   0       5.594   4.444  19.202  0.00  0.00    +0.000 C 
BRANCH  11  12
ATOM     12  C   UNK A   0       4.334   3.569  19.319  0.00  0.00    +0.000 C 
ATOM     13  C   UNK A   0       3.923   2.980  17.958  0.00  0.00    +0.000 C 
ATOM     14  C   UNK A   0       2.624   2.186  18.049  0.00  0.00    +0.000 C 
ATOM     15  C   UNK A   0       1.492   3.013  18.655  0.00  0.00    +0.000 C 
ATOM     16  C   UNK A   0       1.854   3.642  20.018  0.00  0.00    +0.000 C 
ATOM     17  C   UNK A   0       1.965   2.563  21.112  0.00  0.00    +0.000 C 
ATOM     18  C   UNK A   0       0.743   4.625  20.427  0.00  0.00    +0.000 C 
ATOM     19  C   UNK A   0       3.183   4.416  19.893  0.00  0.00    +0.000 C 
ENDBRANCH  11  12
ENDBRANCH   1  11
TORSDOF 6
ENDMDL
MODEL 3
REMARK VINA RESULT:      -6.8      2.752      5.909
REMARK  Name = 
REMARK  10 active torsions:
REMARK  status: ('A' for Active; 'I' for Inactive)
REMARK    1  A    between atoms: CG1_1  and  CB_2
REMARK    2  A    between atoms: CB_2  and  CG2_3
REMARK    3  A    between atoms: CB_2  and  CA_4
REMARK    4  A    between atoms: CA_4  and  N_5
REMARK    5  A    between atoms: CA_4  and  C_15
REMARK    6  A    between atoms: N_5  and  C_6
REMARK    7  A    between atoms: C_6  and  C_7
REMARK    8  A    between atoms: C_11  and  C_12
REMARK    9  A    between atoms: C_11  and  C_13
REMARK   10  A    between atoms: C_15  and  OXT_17
REMARK                            x       y       z     vdW  Elec       q    Type
REMARK                         _______ _______ _______ _____ _____    ______ ____
ROOT
ATOM      1  N   VAL A   1       4.940   4.730  16.362  0.00  0.00    +0.000 NA
ATOM      2  H   VAL A   1       4.551   4.757  15.418  0.00  0.00    +0.000 HD
ENDROOT
BRANCH   1   3
ATOM      3  CA  VAL A   1       6.430   4.706  16.319  0.00  0.00    +0.000 C 
BRANCH   3   5
ATOM      4  CG1 VAL A   1       6.413   7.162  17.239  0.00  0.00    +0.000 C 
ATOM      5  CB  VAL A   1       7.193   5.849  17.063  0.00  0.00    +0.000 C 
ATOM      6  CG2 VAL A   1       7.626   5.406  18.473  0.00  0.00    +0.000 C 
ENDBRANCH   3   5
BRANCH   3   7
ATOM      7  C   VAL A   1       6.841   4.600  14.824  0.00  0.00    +0.000 C 
ATOM      8  O   VAL A   1       6.395   3.800  14.006  0.00  0.00    +0.000 OA
BRANCH   7   9
ATOM      9  OXT VAL A   1       7.822   5.473  14.481  0.00  0.00    +0.000 OA
ATOM     10  HXT VAL A   1       7.450   6.140  13.865  0.00  0.00    +0.000 HD
ENDBRANCH   7   9
ENDBRANCH   3   7
ENDBRANCH   1   3
BRANCH   1  11
ATOM     11  C   UNK A   0       4.364   3.590  17.089  0.00  0.00    +0.000 C 
BRANCH  11  12
ATOM     12  C   UNK A   0       3.226   4.031  18.026  0.00  0.00    +0.000 C 
ATOM     13  C   UNK A   0       3.351   5.516  18.412  0.00  0.00    +0.000 C 
ATOM     14  C   UNK A   0       2.278   5.937  19.411  0.00  0.00    +0.000 C 
ATOM     15  C   UNK A   0       2.272   5.045  20.651  0.00  0.00    +0.000 C 
ATOM     16  C   UNK A   0       2.164   3.540  20.322  0.00  0.00    +0.000 C 
ATOM     17  C   UNK A   0       0.764   3.193  19.780  0.00  0.00    +0.000 C 
ATOM     18  C   UNK A   0       2.392   2.729  21.610  0.00  0.00    +0.000 C 
ATOM     19  C   UNK A   0       3.247   3.156  19.293  0.00  0.00    +0.000 C 
ENDBRANCH  11  12
ENDBRANCH   1  11
TORSDOF 6
ENDMDL
MODEL 4
REMARK VINA RESULT:      -6.8      0.827      1.108
REMARK  Name = 
REMARK  10 active torsions:
REMARK  status: ('A' for Active; 'I' for Inactive)
REMARK    1  A    between atoms: CG1_1  and  CB_2
REMARK    2  A    between atoms: CB_2  and  CG2_3
REMARK    3  A    between atoms: CB_2  and  CA_4
REMARK    4  A    between atoms: CA_4  and  N_5
REMARK    5  A    between atoms: CA_4  and  C_15
REMARK    6  A    between atoms: N_5  and  C_6
REMARK    7  A    between atoms: C_6  and  C_7
REMARK    8  A    between atoms: C_11  and  C_12
REMARK    9  A    between atoms: C_11  and  C_13
REMARK   10  A    between atoms: C_15  and  OXT_17
REMARK                            x       y       z     vdW  Elec       q    Type
REMARK                         _______ _______ _______ _____ _____    ______ ____
ROOT
ATOM      1  N   VAL A   1       3.381   4.385  19.233  0.00  0.00    +0.000 NA
ATOM      2  H   VAL A   1       4.351   4.315  19.543  0.00  0.00    +0.000 HD
ENDROOT
BRANCH   1   3
ATOM      3  CA  VAL A   1       2.757   3.033  19.146  0.00  0.00    +0.000 C 
BRANCH   3   5
ATOM      4  CG1 VAL A   1       2.216   2.814  21.703  0.00  0.00    +0.000 C 
ATOM      5  CB  VAL A   1       1.729   2.638  20.254  0.00  0.00    +0.000 C 
ATOM      6  CG2 VAL A   1       0.430   3.454  20.128  0.00  0.00    +0.000 C 
ENDBRANCH   3   5
BRANCH   3   7
ATOM      7  C   VAL A   1       3.916   2.003  19.024  0.00  0.00    +0.000 C 
ATOM      8  O   VAL A   1       3.860   0.915  18.458  0.00  0.00    +0.000 OA
BRANCH   7   9
ATOM      9  OXT VAL A   1       5.042   2.395  19.671  0.00  0.00    +0.000 OA
ATOM     10  HXT VAL A   1       5.794   1.850  19.352  0.00  0.00    +0.000 HD
ENDBRANCH   7   9
ENDBRANCH   3   7
ENDBRANCH   1   3
BRANCH   1  11
ATOM     11  C   UNK A   0       3.329   5.128  17.966  0.00  0.00    +0.000 C 
BRANCH  11  12
ATOM     12  C   UNK A   0       4.736   5.368  17.391  0.00  0.00    +0.000 C 
ATOM     13  C   UNK A   0       5.186   4.206  16.487  0.00  0.00    +0.000 C 
ATOM     14  C   UNK A   0       6.614   4.394  15.986  0.00  0.00    +0.000 C 
ATOM     15  C   UNK A   0       7.597   4.610  17.135  0.00  0.00    +0.000 C 
ATOM     16  C   UNK A   0       7.187   5.756  18.085  0.00  0.00    +0.000 C 
ATOM     17  C   UNK A   0       7.334   7.125  17.393  0.00  0.00    +0.000 C 
ATOM     18  C   UNK A   0       8.112   5.740  19.316  0.00  0.00    +0.000 C 
ATOM     19  C   UNK A   0       5.732   5.545  18.551  0.00  0.00    +0.000 C 
ENDBRANCH  11  12
ENDBRANCH   1  11
TORSDOF 6
ENDMDL
MODEL 5
REMARK VINA RESULT:      -6.7      2.619      6.096
REMARK  Name = 
REMARK  10 active torsions:
REMARK  status: ('A' for Active; 'I' for Inactive)
REMARK    1  A    between atoms: CG1_1  and  CB_2
REMARK    2  A    between atoms: CB_2  and  CG2_3
REMARK    3  A    between atoms: CB_2  and  CA_4
REMARK    4  A    between atoms: CA_4  and  N_5
REMARK    5  A    between atoms: CA_4  and  C_15
REMARK    6  A    between atoms: N_5  and  C_6
REMARK    7  A    between atoms: C_6  and  C_7
REMARK    8  A    between atoms: C_11  and  C_12
REMARK    9  A    between atoms: C_11  and  C_13
REMARK   10  A    between atoms: C_15  and  OXT_17
REMARK                            x       y       z     vdW  Elec       q    Type
REMARK                         _______ _______ _______ _____ _____    ______ ____
ROOT
ATOM      1  N   VAL A   1       5.670   4.020  17.306  0.00  0.00    +0.000 NA
ATOM      2  H   VAL A   1       5.835   3.106  16.881  0.00  0.00    +0.000 HD
ENDROOT
BRANCH   1   3
ATOM      3  CA  VAL A   1       6.848   4.913  17.110  0.00  0.00    +0.000 C 
BRANCH   3   5
ATOM      4  CG1 VAL A   1       7.980   5.808  19.301  0.00  0.00    +0.000 C 
ATOM      5  CB  VAL A   1       7.038   6.092  18.119  0.00  0.00    +0.000 C 
ATOM      6  CG2 VAL A   1       7.588   7.347  17.414  0.00  0.00    +0.000 C 
ENDBRANCH   3   5
BRANCH   3   7
ATOM      7  C   VAL A   1       6.809   5.402  15.635  0.00  0.00    +0.000 C 
ATOM      8  O   VAL A   1       7.733   5.338  14.828  0.00  0.00    +0.000 OA
BRANCH   7   9
ATOM      9  OXT VAL A   1       5.630   5.985  15.301  0.00  0.00    +0.000 OA
ATOM     10  HXT VAL A   1       4.939   5.679  15.928  0.00  0.00    +0.000 HD
ENDBRANCH   7   9
ENDBRANCH   3   7
ENDBRANCH   1   3
BRANCH   1  11
ATOM     11  C   UNK A   0       5.310   3.840  18.720  0.00  0.00    +0.000 C 
BRANCH  11  12
ATOM     12  C   UNK A   0       3.823   4.146  18.970  0.00  0.00    +0.000 C 
ATOM     13  C   UNK A   0       3.605   5.615  19.375  0.00  0.00    +0.000 C 
ATOM     14  C   UNK A   0       2.146   5.903  19.712  0.00  0.00    +0.000 C 
ATOM     15  C   UNK A   0       1.609   4.952  20.781  0.00  0.00    +0.000 C 
ATOM     16  C   UNK A   0       1.815   3.461  20.433  0.00  0.00    +0.000 C 
ATOM     17  C   UNK A   0       0.904   3.037  19.265  0.00  0.00    +0.000 C 
ATOM     18  C   UNK A   0       1.449   2.607  21.660  0.00  0.00    +0.000 C 
ATOM     19  C   UNK A   0       3.295   3.213  20.075  0.00  0.00    +0.000 C 
ENDBRANCH  11  12
ENDBRANCH   1  11
TORSDOF 6
ENDMDL
MODEL 6
REMARK VINA RESULT:      -6.7      1.552      2.015
REMARK  Name = 
REMARK  10 active torsions:
REMARK  status: ('A' for Active; 'I' for Inactive)
REMARK    1  A    between atoms: CG1_1  and  CB_2
REMARK    2  A    between atoms: CB_2  and  CG2_3
REMARK    3  A    between atoms: CB_2  and  CA_4
REMARK    4  A    between atoms: CA_4  and  N_5
REMARK    5  A    between atoms: CA_4  and  C_15
REMARK    6  A    between atoms: N_5  and  C_6
REMARK    7  A    between atoms: C_6  and  C_7
REMARK    8  A    between atoms: C_11  and  C_12
REMARK    9  A    between atoms: C_11  and  C_13
REMARK   10  A    between atoms: C_15  and  OXT_17
REMARK                            x       y       z     vdW  Elec       q    Type
REMARK                         _______ _______ _______ _____ _____    ______ ____
ROOT
ATOM      1  N   VAL A   1       3.159   4.209  18.672  0.00  0.00    +0.000 NA
ATOM      2  H   VAL A   1       3.773   3.393  18.632  0.00  0.00    +0.000 HD
ENDROOT
BRANCH   1   3
ATOM      3  CA  VAL A   1       1.760   3.802  18.993  0.00  0.00    +0.000 C 
BRANCH   3   5
ATOM      4  CG1 VAL A   1       1.719   3.181  21.541  0.00  0.00    +0.000 C 
ATOM      5  CB  VAL A   1       1.226   4.119  20.426  0.00  0.00    +0.000 C 
ATOM      6  CG2 VAL A   1       1.604   5.548  20.860  0.00  0.00    +0.000 C 
ENDBRANCH   3   5
BRANCH   3   7
ATOM      7  C   VAL A   1       1.632   2.294  18.638  0.00  0.00    +0.000 C 
ATOM      8  O   VAL A   1       2.560   1.498  18.517  0.00  0.00    +0.000 OA
BRANCH   7   9
ATOM      9  OXT VAL A   1       0.351   1.910  18.408  0.00  0.00    +0.000 OA
ATOM     10  HXT VAL A   1       0.251   1.704  17.454  0.00  0.00    +0.000 HD
ENDBRANCH   7   9
ENDBRANCH   3   7
ENDBRANCH   1   3
BRANCH   1  11
ATOM     11  C   UNK A   0       3.268   4.959  17.413  0.00  0.00    +0.000 C 
BRANCH  11  12
ATOM     12  C   UNK A   0       4.735   5.250  17.051  0.00  0.00    +0.000 C 
ATOM     13  C   UNK A   0       5.354   4.106  16.227  0.00  0.00    +0.000 C 
ATOM     14  C   UNK A   0       6.833   4.346  15.942  0.00  0.00    +0.000 C 
ATOM     15  C   UNK A   0       7.628   4.595  17.222  0.00  0.00    +0.000 C 
ATOM     16  C   UNK A   0       7.041   5.724  18.097  0.00  0.00    +0.000 C 
ATOM     17  C   UNK A   0       7.239   7.099  17.430  0.00  0.00    +0.000 C 
ATOM     18  C   UNK A   0       7.774   5.740  19.451  0.00  0.00    +0.000 C 
ATOM     19  C   UNK A   0       5.541   5.461  18.345  0.00  0.00    +0.000 C 
ENDBRANCH  11  12
ENDBRANCH   1  11
TORSDOF 6
ENDMDL
MODEL 7
REMARK VINA RESULT:      -6.6      2.504      5.642
REMARK  Name = 
REMARK  10 active torsions:
REMARK  status: ('A' for Active; 'I' for Inactive)
REMARK    1  A    between atoms: CG1_1  and  CB_2
REMARK    2  A    between atoms: CB_2  and  CG2_3
REMARK    3  A    between atoms: CB_2  and  CA_4
REMARK    4  A    between atoms: CA_4  and  N_5
REMARK    5  A    between atoms: CA_4  and  C_15
REMARK    6  A    between atoms: N_5  and  C_6
REMARK    7  A    between atoms: C_6  and  C_7
REMARK    8  A    between atoms: C_11  and  C_12
REMARK    9  A    between atoms: C_11  and  C_13
REMARK   10  A    between atoms: C_15  and  OXT_17
REMARK                            x       y       z     vdW  Elec       q    Type
REMARK                         _______ _______ _______ _____ _____    ______ ____
ROOT
ATOM      1  N   VAL A   1       4.662   6.087  16.783  0.00  0.00    +0.000 NA
ATOM      2  H   VAL A   1       4.377   5.634  15.913  0.00  0.00    +0.000 HD
ENDROOT
BRANCH   1   3
ATOM      3  CA  VAL A   1       5.989   5.576  17.234  0.00  0.00    +0.000 C 
BRANCH   3   5
ATOM      4  CG1 VAL A   1       7.804   5.698  19.123  0.00  0.00    +0.000 C 
ATOM      5  CB  VAL A   1       6.798   6.456  18.241  0.00  0.00    +0.000 C 
ATOM      6  CG2 VAL A   1       7.597   7.551  17.510  0.00  0.00    +0.000 C 
ENDBRANCH   3   5
BRANCH   3   7
ATOM      7  C   VAL A   1       6.807   5.242  15.956  0.00  0.00    +0.000 C 
ATOM      8  O   VAL A   1       7.834   4.569  15.909  0.00  0.00    +0.000 OA
BRANCH   7   9
ATOM      9  OXT VAL A   1       6.305   5.825  14.838  0.00  0.00    +0.000 OA
ATOM     10  HXT VAL A   1       5.465   6.277  15.069  0.00  0.00    +0.000 HD
ENDBRANCH   7   9
ENDBRANCH   3   7
ENDBRANCH   1   3
BRANCH   1  11
ATOM     11  C   UNK A   0       3.604   5.915  17.788  0.00  0.00    +0.000 C 
BRANCH  11  12
ATOM     12  C   UNK A   0       3.477   4.447  18.233  0.00  0.00    +0.000 C 
ATOM     13  C   UNK A   0       2.478   3.672  17.355  0.00  0.00    +0.000 C 
ATOM     14  C   UNK A   0       2.279   2.242  17.846  0.00  0.00    +0.000 C 
ATOM     15  C   UNK A   0       1.870   2.195  19.317  0.00  0.00    +0.000 C 
ATOM     16  C   UNK A   0       2.831   2.972  20.244  0.00  0.00    +0.000 C 
ATOM     17  C   UNK A   0       4.189   2.253  20.357  0.00  0.00    +0.000 C 
ATOM     18  C   UNK A   0       2.212   3.050  21.652  0.00  0.00    +0.000 C 
ATOM     19  C   UNK A   0       3.026   4.404  19.704  0.00  0.00    +0.000 C 
ENDBRANCH  11  12
ENDBRANCH   1  11
TORSDOF 6
ENDMDL
MODEL 8
REMARK VINA RESULT:      -6.6      2.217      5.593
REMARK  Name = 
REMARK  10 active torsions:
REMARK  status: ('A' for Active; 'I' for Inactive)
REMARK    1  A    between atoms: CG1_1  and  CB_2
REMARK    2  A    between atoms: CB_2  and  CG2_3
REMARK    3  A    between atoms: CB_2  and  CA_4
REMARK    4  A    between atoms: CA_4  and  N_5
REMARK    5  A    between atoms: CA_4  and  C_15
REMARK    6  A    between atoms: N_5  and  C_6
REMARK    7  A    between atoms: C_6  and  C_7
REMARK    8  A    between atoms: C_11  and  C_12
REMARK    9  A    between atoms: C_11  and  C_13
REMARK   10  A    between atoms: C_15  and  OXT_17
REMARK                            x       y       z     vdW  Elec       q    Type
REMARK                         _______ _______ _______ _____ _____    ______ ____
ROOT
ATOM      1  N   VAL A   1       5.621   3.625  18.306  0.00  0.00    +0.000 NA
ATOM      2  H   VAL A   1       5.430   3.801  19.294  0.00  0.00    +0.000 HD
ENDROOT
BRANCH   1   3
ATOM      3  CA  VAL A   1       5.992   4.889  17.608  0.00  0.00    +0.000 C 
BRANCH   3   5
ATOM      4  CG1 VAL A   1       5.081   6.525  15.771  0.00  0.00    +0.000 C 
ATOM      5  CB  VAL A   1       5.475   5.086  16.146  0.00  0.00    +0.000 C 
ATOM      6  CG2 VAL A   1       6.529   4.640  15.116  0.00  0.00    +0.000 C 
ENDBRANCH   3   5
BRANCH   3   7
ATOM      7  C   VAL A   1       7.537   5.028  17.708  0.00  0.00    +0.000 C 
ATOM      8  O   VAL A   1       8.345   4.104  17.762  0.00  0.00    +0.000 OA
BRANCH   7   9
ATOM      9  OXT VAL A   1       7.949   6.318  17.789  0.00  0.00    +0.000 OA
ATOM     10  HXT VAL A   1       7.250   6.845  18.234  0.00  0.00    +0.000 HD
ENDBRANCH   7   9
ENDBRANCH   3   7
ENDBRANCH   1   3
BRANCH   1  11
ATOM     11  C   UNK A   0       4.465   2.948  17.702  0.00  0.00    +0.000 C 
BRANCH  11  12
ATOM     12  C   UNK A   0       3.313   2.785  18.708  0.00  0.00    +0.000 C 
ATOM     13  C   UNK A   0       2.030   2.278  18.025  0.00  0.00    +0.000 C 
ATOM     14  C   UNK A   0       0.859   2.199  18.999  0.00  0.00    +0.000 C 
ATOM     15  C   UNK A   0       0.616   3.531  19.707  0.00  0.00    +0.000 C 
ATOM     16  C   UNK A   0       1.876   4.096  20.399  0.00  0.00    +0.000 C 
ATOM     17  C   UNK A   0       2.259   3.247  21.626  0.00  0.00    +0.000 C 
ATOM     18  C   UNK A   0       1.583   5.528  20.881  0.00  0.00    +0.000 C 
ATOM     19  C   UNK A   0       3.044   4.138  19.391  0.00  0.00    +0.000 C 
ENDBRANCH  11  12
ENDBRANCH   1  11
TORSDOF 6
ENDMDL
MODEL 9
REMARK VINA RESULT:      -6.6      1.733      2.347
REMARK  Name = 
REMARK  10 active torsions:
REMARK  status: ('A' for Active; 'I' for Inactive)
REMARK    1  A    between atoms: CG1_1  and  CB_2
REMARK    2  A    between atoms: CB_2  and  CG2_3
REMARK    3  A    between atoms: CB_2  and  CA_4
REMARK    4  A    between atoms: CA_4  and  N_5
REMARK    5  A    between atoms: CA_4  and  C_15
REMARK    6  A    between atoms: N_5  and  C_6
REMARK    7  A    between atoms: C_6  and  C_7
REMARK    8  A    between atoms: C_11  and  C_12
REMARK    9  A    between atoms: C_11  and  C_13
REMARK   10  A    between atoms: C_15  and  OXT_17
REMARK                            x       y       z     vdW  Elec       q    Type
REMARK                         _______ _______ _______ _____ _____    ______ ____
ROOT
ATOM      1  N   VAL A   1       2.572   4.517  17.976  0.00  0.00    +0.000 NA
ATOM      2  H   VAL A   1       1.592   4.547  17.690  0.00  0.00    +0.000 HD
ENDROOT
BRANCH   1   3
ATOM      3  CA  VAL A   1       2.709   3.895  19.325  0.00  0.00    +0.000 C 
BRANCH   3   5
ATOM      4  CG1 VAL A   1       3.317   1.697  18.030  0.00  0.00    +0.000 C 
ATOM      5  CB  VAL A   1       3.151   2.398  19.389  0.00  0.00    +0.000 C 
ATOM      6  CG2 VAL A   1       4.495   2.243  20.126  0.00  0.00    +0.000 C 
ENDBRANCH   3   5
BRANCH   3   7
ATOM      7  C   VAL A   1       1.373   4.146  20.080  0.00  0.00    +0.000 C 
ATOM      8  O   VAL A   1       1.078   5.158  20.709  0.00  0.00    +0.000 OA
BRANCH   7   9
ATOM      9  OXT VAL A   1       0.530   3.084  20.033  0.00  0.00    +0.000 OA
ATOM     10  HXT VAL A   1       0.592   2.671  19.145  0.00  0.00    +0.000 HD
ENDBRANCH   7   9
ENDBRANCH   3   7
ENDBRANCH   1   3
BRANCH   1  11
ATOM     11  C   UNK A   0       3.139   5.871  17.904  0.00  0.00    +0.000 C 
BRANCH  11  12
ATOM     12  C   UNK A   0       4.580   5.855  17.365  0.00  0.00    +0.000 C 
ATOM     13  C   UNK A   0       4.841   4.622  16.481  0.00  0.00    +0.000 C 
ATOM     14  C   UNK A   0       6.292   4.552  16.015  0.00  0.00    +0.000 C 
ATOM     15  C   UNK A   0       7.270   4.605  17.188  0.00  0.00    +0.000 C 
ATOM     16  C   UNK A   0       7.043   5.816  18.120  0.00  0.00    +0.000 C 
ATOM     17  C   UNK A   0       7.444   7.130  17.423  0.00  0.00    +0.000 C 
ATOM     18  C   UNK A   0       7.920   5.653  19.374  0.00  0.00    +0.000 C 
ATOM     19  C   UNK A   0       5.563   5.869  18.549  0.00  0.00    +0.000 C 
ENDBRANCH  11  12
ENDBRANCH   1  11
TORSDOF 6
ENDMDL
