MODEL 1
REMARK VINA RESULT:      -8.5      0.000      0.000
REMARK  Name = 
REMARK  11 active torsions:
REMARK  status: ('A' for Active; 'I' for Inactive)
REMARK    1  A    between atoms: C_1  and  C_2
REMARK    2  A    between atoms: C_3  and  C_4
REMARK    3  A    between atoms: N_6  and  C_7
REMARK    4  A    between atoms: C_13  and  C_14
REMARK    5  A    between atoms: C_20  and  C_21
REMARK    6  A    between atoms: C_23  and  S_24
REMARK    7  A    between atoms: S_24  and  C_25
REMARK    8  A    between atoms: C_25  and  C_26
REMARK    9  A    between atoms: N_28  and  C_29
REMARK   10  A    between atoms: C_29  and  C_30
REMARK   11  A    between atoms: C_29  and  C_31
REMARK                            x       y       z     vdW  Elec       q    Type
REMARK                         _______ _______ _______ _____ _____    ______ ____
ROOT
ATOM      1  C   UNL     1       1.765   9.031  17.484  0.00  0.00    +0.000 C 
ATOM      2  C   UNL     1       2.590   7.893  18.033  0.00  0.00    +0.000 C 
ATOM      3  C   UNL     1       2.512   7.346  19.277  0.00  0.00    +0.000 C 
ATOM      4  C   UNL     1       3.359   6.119  19.596  0.00  0.00    +0.000 C 
ATOM      5  C   UNL     1       4.526   5.941  18.636  0.00  0.00    +0.000 C 
ATOM      6  C   UNL     1       4.545   6.530  17.421  0.00  0.00    +0.000 C 
ATOM      7  N   UNL     1       3.503   7.382  17.115  0.00  0.00    +0.000 N 
ATOM      8  H   UNL     1       3.598   7.864  16.211  0.00  0.00    +0.000 HD
ENDROOT
BRANCH   4   9
ATOM      9  C   UNL     1       2.498   4.854  19.627  0.00  0.00    +0.000 A 
ATOM     10  C   UNL     1       1.832   4.405  18.475  0.00  0.00    +0.000 A 
ATOM     11  C   UNL     1       1.065   3.256  18.546  0.00  0.00    +0.000 A 
ATOM     12  N   UNL     1       0.920   2.522  19.665  0.00  0.00    +0.000 NA
ATOM     13  C   UNL     1       1.566   2.964  20.767  0.00  0.00    +0.000 A 
ATOM     14  C   UNL     1       2.355   4.106  20.799  0.00  0.00    +0.000 A 
ENDBRANCH   4   9
BRANCH   3  15
ATOM     15  C   UNL     1       1.513   7.809  20.296  0.00  0.00    +0.000 C 
ATOM     16  O   UNL     1       0.930   6.973  20.976  0.00  0.00    +0.000 OA
ATOM     17  N   UNL     1       1.325   9.181  20.394  0.00  0.00    +0.000 N 
ATOM     18  H   UNL     1       1.764   9.791  19.722  0.00  0.00    +0.000 HD
BRANCH  17  19
ATOM     19  C   UNL     1       0.448   9.837  21.307  0.00  0.00    +0.000 A 
ATOM     20  C   UNL     1       0.287   9.433  22.636  0.00  0.00    +0.000 A 
ATOM     21  C   UNL     1      -0.623  10.075  23.480  0.00  0.00    +0.000 A 
ATOM     22  C   UNL     1      -1.379  11.142  23.010  0.00  0.00    +0.000 A 
ATOM     23  C   UNL     1      -1.207  11.577  21.698  0.00  0.00    +0.000 A 
ATOM     24  C   UNL     1      -0.294  10.933  20.852  0.00  0.00    +0.000 A 
ENDBRANCH  17  19
ENDBRANCH   3  15
BRANCH   5  25
ATOM     25  C   UNL     1       5.683   5.075  19.108  0.00  0.00    +0.000 C 
ATOM     26  N   UNL     1       6.642   4.356  19.500  0.00  0.00    +0.000 NA
ENDBRANCH   5  25
BRANCH   6  27
ATOM     27  S   UNL     1       5.908   6.294  16.335  0.00  0.00    +0.000 S 
BRANCH  27  28
ATOM     28  C   UNL     1       5.630   4.615  15.690  0.00  0.00    +0.000 C 
BRANCH  28  29
ATOM     29  C   UNL     1       6.067   4.465  14.240  0.00  0.00    +0.000 C 
ATOM     30  O   UNL     1       7.029   5.054  13.746  0.00  0.00    +0.000 OA
ATOM     31  N   UNL     1       5.280   3.614  13.484  0.00  0.00    +0.000 N 
ATOM     32  H   UNL     1       4.403   3.277  13.863  0.00  0.00    +0.000 HD
BRANCH  31  33
ATOM     33  C   UNL     1       5.530   3.470  12.056  0.00  0.00    +0.000 C 
ATOM     34  C   UNL     1       6.506   2.334  11.784  0.00  0.00    +0.000 C 
ATOM     35  C   UNL     1       4.220   3.268  11.297  0.00  0.00    +0.000 C 
ENDBRANCH  31  33
ENDBRANCH  28  29
ENDBRANCH  27  28
ENDBRANCH   6  27
TORSDOF 8
ENDMDL
MODEL 2
REMARK VINA RESULT:      -8.3      0.248      1.212
REMARK  Name = 
REMARK  11 active torsions:
REMARK  status: ('A' for Active; 'I' for Inactive)
REMARK    1  A    between atoms: C_1  and  C_2
REMARK    2  A    between atoms: C_3  and  C_4
REMARK    3  A    between atoms: N_6  and  C_7
REMARK    4  A    between atoms: C_13  and  C_14
REMARK    5  A    between atoms: C_20  and  C_21
REMARK    6  A    between atoms: C_23  and  S_24
REMARK    7  A    between atoms: S_24  and  C_25
REMARK    8  A    between atoms: C_25  and  C_26
REMARK    9  A    between atoms: N_28  and  C_29
REMARK   10  A    between atoms: C_29  and  C_30
REMARK   11  A    between atoms: C_29  and  C_31
REMARK                            x       y       z     vdW  Elec       q    Type
REMARK                         _______ _______ _______ _____ _____    ______ ____
ROOT
ATOM      1  C   UNL     1       2.033   8.972  17.452  0.00  0.00    +0.000 C 
ATOM      2  C   UNL     1       2.820   7.815  18.015  0.00  0.00    +0.000 C 
ATOM      3  C   UNL     1       2.675   7.240  19.241  0.00  0.00    +0.000 C 
ATOM      4  C   UNL     1       3.496   6.000  19.574  0.00  0.00    +0.000 C 
ATOM      5  C   UNL     1       4.708   5.833  18.670  0.00  0.00    +0.000 C 
ATOM      6  C   UNL     1       4.793   6.449  17.471  0.00  0.00    +0.000 C 
ATOM      7  N   UNL     1       3.775   7.316  17.133  0.00  0.00    +0.000 N 
ATOM      8  H   UNL     1       3.919   7.818  16.246  0.00  0.00    +0.000 HD
ENDROOT
BRANCH   4   9
ATOM      9  C   UNL     1       2.625   4.742  19.532  0.00  0.00    +0.000 A 
ATOM     10  C   UNL     1       2.442   3.952  20.679  0.00  0.00    +0.000 A 
ATOM     11  C   UNL     1       1.646   2.823  20.598  0.00  0.00    +0.000 A 
ATOM     12  N   UNL     1       1.017   2.430  19.475  0.00  0.00    +0.000 NA
ATOM     13  C   UNL     1       1.201   3.198  18.378  0.00  0.00    +0.000 A 
ATOM     14  C   UNL     1       1.983   4.345  18.355  0.00  0.00    +0.000 A 
ENDBRANCH   4   9
BRANCH   3  15
ATOM     15  C   UNL     1       1.630   7.689  20.219  0.00  0.00    +0.000 C 
ATOM     16  O   UNL     1       1.006   6.843  20.849  0.00  0.00    +0.000 OA
ATOM     17  N   UNL     1       1.449   9.061  20.341  0.00  0.00    +0.000 N 
ATOM     18  H   UNL     1       1.927   9.681  19.706  0.00  0.00    +0.000 HD
BRANCH  17  19
ATOM     19  C   UNL     1       0.533   9.703  21.223  0.00  0.00    +0.000 A 
ATOM     20  C   UNL     1      -0.294  10.761  20.829  0.00  0.00    +0.000 A 
ATOM     21  C   UNL     1      -1.140  11.394  21.743  0.00  0.00    +0.000 A 
ATOM     22  C   UNL     1      -1.182  10.969  23.066  0.00  0.00    +0.000 A 
ATOM     23  C   UNL     1      -0.389   9.897  23.467  0.00  0.00    +0.000 A 
ATOM     24  C   UNL     1       0.460   9.262  22.550  0.00  0.00    +0.000 A 
ENDBRANCH  17  19
ENDBRANCH   3  15
BRANCH   5  25
ATOM     25  C   UNL     1       5.833   4.946  19.179  0.00  0.00    +0.000 C 
ATOM     26  N   UNL     1       6.766   4.211  19.602  0.00  0.00    +0.000 NA
ENDBRANCH   5  25
BRANCH   6  27
ATOM     27  S   UNL     1       6.207   6.225  16.449  0.00  0.00    +0.000 S 
BRANCH  27  28
ATOM     28  C   UNL     1       5.945   4.567  15.747  0.00  0.00    +0.000 C 
BRANCH  28  29
ATOM     29  C   UNL     1       6.287   4.498  14.266  0.00  0.00    +0.000 C 
ATOM     30  O   UNL     1       7.035   5.291  13.694  0.00  0.00    +0.000 OA
ATOM     31  N   UNL     1       5.670   3.468  13.578  0.00  0.00    +0.000 N 
ATOM     32  H   UNL     1       4.934   2.937  14.028  0.00  0.00    +0.000 HD
BRANCH  31  33
ATOM     33  C   UNL     1       5.831   3.360  12.133  0.00  0.00    +0.000 C 
ATOM     34  C   UNL     1       6.673   2.146  11.767  0.00  0.00    +0.000 C 
ATOM     35  C   UNL     1       4.471   3.320  11.441  0.00  0.00    +0.000 C 
ENDBRANCH  31  33
ENDBRANCH  28  29
ENDBRANCH  27  28
ENDBRANCH   6  27
TORSDOF 8
ENDMDL
MODEL 3
REMARK VINA RESULT:      -7.4      5.057     10.871
REMARK  Name = 
REMARK  11 active torsions:
REMARK  status: ('A' for Active; 'I' for Inactive)
REMARK    1  A    between atoms: C_1  and  C_2
REMARK    2  A    between atoms: C_3  and  C_4
REMARK    3  A    between atoms: N_6  and  C_7
REMARK    4  A    between atoms: C_13  and  C_14
REMARK    5  A    between atoms: C_20  and  C_21
REMARK    6  A    between atoms: C_23  and  S_24
REMARK    7  A    between atoms: S_24  and  C_25
REMARK    8  A    between atoms: C_25  and  C_26
REMARK    9  A    between atoms: N_28  and  C_29
REMARK   10  A    between atoms: C_29  and  C_30
REMARK   11  A    between atoms: C_29  and  C_31
REMARK                            x       y       z     vdW  Elec       q    Type
REMARK                         _______ _______ _______ _____ _____    ______ ____
ROOT
ATOM      1  C   UNL     1      -1.846  10.951  17.604  0.00  0.00    +0.000 C 
ATOM      2  C   UNL     1      -1.375  11.732  18.806  0.00  0.00    +0.000 C 
ATOM      3  C   UNL     1      -0.172  11.629  19.434  0.00  0.00    +0.000 C 
ATOM      4  C   UNL     1       0.153  12.597  20.566  0.00  0.00    +0.000 C 
ATOM      5  C   UNL     1      -1.087  13.252  21.157  0.00  0.00    +0.000 C 
ATOM      6  C   UNL     1      -2.256  13.303  20.483  0.00  0.00    +0.000 C 
ATOM      7  N   UNL     1      -2.313  12.651  19.268  0.00  0.00    +0.000 N 
ATOM      8  H   UNL     1      -3.243  12.654  18.826  0.00  0.00    +0.000 HD
ENDROOT
BRANCH   4   9
ATOM      9  C   UNL     1       1.149  13.663  20.105  0.00  0.00    +0.000 A 
ATOM     10  C   UNL     1       2.423  13.761  20.686  0.00  0.00    +0.000 A 
ATOM     11  C   UNL     1       3.294  14.740  20.238  0.00  0.00    +0.000 A 
ATOM     12  N   UNL     1       2.996  15.613  19.259  0.00  0.00    +0.000 NA
ATOM     13  C   UNL     1       1.766  15.509  18.707  0.00  0.00    +0.000 A 
ATOM     14  C   UNL     1       0.822  14.566  19.088  0.00  0.00    +0.000 A 
ENDBRANCH   4   9
BRANCH   3  15
ATOM     15  C   UNL     1       0.906  10.701  18.956  0.00  0.00    +0.000 C 
ATOM     16  O   UNL     1       1.770  11.136  18.203  0.00  0.00    +0.000 OA
ATOM     17  N   UNL     1       0.842   9.394  19.418  0.00  0.00    +0.000 N 
ATOM     18  H   UNL     1       0.038   9.094  19.946  0.00  0.00    +0.000 HD
BRANCH  17  19
ATOM     19  C   UNL     1       1.772   8.358  19.112  0.00  0.00    +0.000 A 
ATOM     20  C   UNL     1       2.509   8.318  17.924  0.00  0.00    +0.000 A 
ATOM     21  C   UNL     1       3.371   7.255  17.645  0.00  0.00    +0.000 A 
ATOM     22  C   UNL     1       3.521   6.218  18.559  0.00  0.00    +0.000 A 
ATOM     23  C   UNL     1       2.819   6.259  19.761  0.00  0.00    +0.000 A 
ATOM     24  C   UNL     1       1.953   7.325  20.041  0.00  0.00    +0.000 A 
ENDBRANCH  17  19
ENDBRANCH   3  15
BRANCH   5  25
ATOM     25  C   UNL     1      -0.958  13.844  22.552  0.00  0.00    +0.000 C 
ATOM     26  N   UNL     1      -0.851  14.334  23.709  0.00  0.00    +0.000 NA
ENDBRANCH   5  25
BRANCH   6  27
ATOM     27  S   UNL     1      -3.666  14.077  21.195  0.00  0.00    +0.000 S 
BRANCH  27  28
ATOM     28  C   UNL     1      -4.506  12.698  22.037  0.00  0.00    +0.000 C 
BRANCH  28  29
ATOM     29  C   UNL     1      -5.814  12.311  21.363  0.00  0.00    +0.000 C 
ATOM     30  O   UNL     1      -6.761  11.785  21.948  0.00  0.00    +0.000 OA
ATOM     31  N   UNL     1      -5.865  12.576  20.006  0.00  0.00    +0.000 N 
ATOM     32  H   UNL     1      -5.021  12.850  19.519  0.00  0.00    +0.000 HD
BRANCH  31  33
ATOM     33  C   UNL     1      -7.022  12.154  19.226  0.00  0.00    +0.000 C 
ATOM     34  C   UNL     1      -7.489  13.263  18.297  0.00  0.00    +0.000 C 
ATOM     35  C   UNL     1      -6.709  10.876  18.451  0.00  0.00    +0.000 C 
ENDBRANCH  31  33
ENDBRANCH  28  29
ENDBRANCH  27  28
ENDBRANCH   6  27
TORSDOF 8
ENDMDL
MODEL 4
REMARK VINA RESULT:      -7.3      1.148      1.674
REMARK  Name = 
REMARK  11 active torsions:
REMARK  status: ('A' for Active; 'I' for Inactive)
REMARK    1  A    between atoms: C_1  and  C_2
REMARK    2  A    between atoms: C_3  and  C_4
REMARK    3  A    between atoms: N_6  and  C_7
REMARK    4  A    between atoms: C_13  and  C_14
REMARK    5  A    between atoms: C_20  and  C_21
REMARK    6  A    between atoms: C_23  and  S_24
REMARK    7  A    between atoms: S_24  and  C_25
REMARK    8  A    between atoms: C_25  and  C_26
REMARK    9  A    between atoms: N_28  and  C_29
REMARK   10  A    between atoms: C_29  and  C_30
REMARK   11  A    between atoms: C_29  and  C_31
REMARK                            x       y       z     vdW  Elec       q    Type
REMARK                         _______ _______ _______ _____ _____    ______ ____
ROOT
ATOM      1  C   UNL     1       1.622   9.091  17.512  0.00  0.00    +0.000 C 
ATOM      2  C   UNL     1       2.458   7.961  18.060  0.00  0.00    +0.000 C 
ATOM      3  C   UNL     1       2.419   7.445  19.319  0.00  0.00    +0.000 C 
ATOM      4  C   UNL     1       3.269   6.221  19.640  0.00  0.00    +0.000 C 
ATOM      5  C   UNL     1       4.402   6.012  18.646  0.00  0.00    +0.000 C 
ATOM      6  C   UNL     1       4.384   6.571  17.417  0.00  0.00    +0.000 C 
ATOM      7  N   UNL     1       3.337   7.422  17.125  0.00  0.00    +0.000 N 
ATOM      8  H   UNL     1       3.404   7.881  16.207  0.00  0.00    +0.000 HD
ENDROOT
BRANCH   4   9
ATOM      9  C   UNL     1       2.403   4.962  19.731  0.00  0.00    +0.000 A 
ATOM     10  C   UNL     1       1.787   4.426  18.589  0.00  0.00    +0.000 A 
ATOM     11  C   UNL     1       1.013   3.285  18.715  0.00  0.00    +0.000 A 
ATOM     12  N   UNL     1       0.816   2.641  19.880  0.00  0.00    +0.000 NA
ATOM     13  C   UNL     1       1.414   3.167  20.972  0.00  0.00    +0.000 A 
ATOM     14  C   UNL     1       2.206   4.307  20.950  0.00  0.00    +0.000 A 
ENDBRANCH   4   9
BRANCH   3  15
ATOM     15  C   UNL     1       1.457   7.939  20.360  0.00  0.00    +0.000 C 
ATOM     16  O   UNL     1       1.064   7.160  21.220  0.00  0.00    +0.000 OA
ATOM     17  N   UNL     1       1.083   9.273  20.268  0.00  0.00    +0.000 N 
ATOM     18  H   UNL     1       1.368   9.813  19.466  0.00  0.00    +0.000 HD
BRANCH  17  19
ATOM     19  C   UNL     1       0.205   9.953  21.161  0.00  0.00    +0.000 A 
ATOM     20  C   UNL     1      -0.488  11.118  20.813  0.00  0.00    +0.000 A 
ATOM     21  C   UNL     1      -1.298  11.779  21.739  0.00  0.00    +0.000 A 
ATOM     22  C   UNL     1      -1.440  11.277  23.027  0.00  0.00    +0.000 A 
ATOM     23  C   UNL     1      -0.782  10.101  23.380  0.00  0.00    +0.000 A 
ATOM     24  C   UNL     1       0.031   9.438  22.451  0.00  0.00    +0.000 A 
ENDBRANCH  17  19
ENDBRANCH   3  15
BRANCH   5  25
ATOM     25  C   UNL     1       5.570   5.150  19.100  0.00  0.00    +0.000 C 
ATOM     26  N   UNL     1       6.538   4.435  19.476  0.00  0.00    +0.000 NA
ENDBRANCH   5  25
BRANCH   6  27
ATOM     27  S   UNL     1       5.708   6.300  16.291  0.00  0.00    +0.000 S 
BRANCH  27  28
ATOM     28  C   UNL     1       5.288   4.693  15.547  0.00  0.00    +0.000 C 
BRANCH  28  29
ATOM     29  C   UNL     1       6.149   4.366  14.336  0.00  0.00    +0.000 C 
ATOM     30  O   UNL     1       6.106   3.296  13.729  0.00  0.00    +0.000 OA
ATOM     31  N   UNL     1       7.023   5.371  13.960  0.00  0.00    +0.000 N 
ATOM     32  H   UNL     1       7.159   6.168  14.570  0.00  0.00    +0.000 HD
BRANCH  31  33
ATOM     33  C   UNL     1       7.976   5.140  12.882  0.00  0.00    +0.000 C 
ATOM     34  C   UNL     1       7.332   5.370  11.523  0.00  0.00    +0.000 C 
ATOM     35  C   UNL     1       9.216   6.014  13.063  0.00  0.00    +0.000 C 
ENDBRANCH  31  33
ENDBRANCH  28  29
ENDBRANCH  27  28
ENDBRANCH   6  27
TORSDOF 8
ENDMDL
MODEL 5
REMARK VINA RESULT:      -7.2      4.633     10.419
REMARK  Name = 
REMARK  11 active torsions:
REMARK  status: ('A' for Active; 'I' for Inactive)
REMARK    1  A    between atoms: C_1  and  C_2
REMARK    2  A    between atoms: C_3  and  C_4
REMARK    3  A    between atoms: N_6  and  C_7
REMARK    4  A    between atoms: C_13  and  C_14
REMARK    5  A    between atoms: C_20  and  C_21
REMARK    6  A    between atoms: C_23  and  S_24
REMARK    7  A    between atoms: S_24  and  C_25
REMARK    8  A    between atoms: C_25  and  C_26
REMARK    9  A    between atoms: N_28  and  C_29
REMARK   10  A    between atoms: C_29  and  C_30
REMARK   11  A    between atoms: C_29  and  C_31
REMARK                            x       y       z     vdW  Elec       q    Type
REMARK                         _______ _______ _______ _____ _____    ______ ____
ROOT
ATOM      1  C   UNL     1      -0.515   9.755  23.542  0.00  0.00    +0.000 C 
ATOM      2  C   UNL     1      -0.296  10.611  22.319  0.00  0.00    +0.000 C 
ATOM      3  C   UNL     1       0.128  10.201  21.092  0.00  0.00    +0.000 C 
ATOM      4  C   UNL     1       0.174  11.212  19.953  0.00  0.00    +0.000 C 
ATOM      5  C   UNL     1       0.182  12.653  20.442  0.00  0.00    +0.000 C 
ATOM      6  C   UNL     1      -0.237  12.987  21.681  0.00  0.00    +0.000 C 
ATOM      7  N   UNL     1      -0.588  11.956  22.529  0.00  0.00    +0.000 N 
ATOM      8  H   UNL     1      -0.829  12.253  23.485  0.00  0.00    +0.000 HD
ENDROOT
BRANCH   4   9
ATOM      9  C   UNL     1      -0.984  10.989  18.977  0.00  0.00    +0.000 A 
ATOM     10  C   UNL     1      -0.842  10.136  17.871  0.00  0.00    +0.000 A 
ATOM     11  C   UNL     1      -1.914   9.961  17.014  0.00  0.00    +0.000 A 
ATOM     12  N   UNL     1      -3.109  10.558  17.179  0.00  0.00    +0.000 NA
ATOM     13  C   UNL     1      -3.233  11.377  18.247  0.00  0.00    +0.000 A 
ATOM     14  C   UNL     1      -2.217  11.621  19.161  0.00  0.00    +0.000 A 
ENDBRANCH   4   9
BRANCH   3  15
ATOM     15  C   UNL     1       0.406   8.760  20.780  0.00  0.00    +0.000 C 
ATOM     16  O   UNL     1      -0.422   7.914  21.099  0.00  0.00    +0.000 OA
ATOM     17  N   UNL     1       1.606   8.490  20.136  0.00  0.00    +0.000 N 
ATOM     18  H   UNL     1       2.277   9.231  20.009  0.00  0.00    +0.000 HD
BRANCH  17  19
ATOM     19  C   UNL     1       2.058   7.202  19.725  0.00  0.00    +0.000 A 
ATOM     20  C   UNL     1       2.562   6.941  18.446  0.00  0.00    +0.000 A 
ATOM     21  C   UNL     1       2.945   5.650  18.073  0.00  0.00    +0.000 A 
ATOM     22  C   UNL     1       2.842   4.601  18.978  0.00  0.00    +0.000 A 
ATOM     23  C   UNL     1       2.372   4.851  20.265  0.00  0.00    +0.000 A 
ATOM     24  C   UNL     1       1.988   6.145  20.640  0.00  0.00    +0.000 A 
ENDBRANCH  17  19
ENDBRANCH   3  15
BRANCH   5  25
ATOM     25  C   UNL     1       0.694  13.709  19.474  0.00  0.00    +0.000 C 
ATOM     26  N   UNL     1       1.118  14.584  18.672  0.00  0.00    +0.000 NA
ENDBRANCH   5  25
BRANCH   6  27
ATOM     27  S   UNL     1      -0.222  14.665  22.208  0.00  0.00    +0.000 S 
BRANCH  27  28
ATOM     28  C   UNL     1      -1.714  15.353  21.425  0.00  0.00    +0.000 C 
BRANCH  28  29
ATOM     29  C   UNL     1      -2.955  14.515  21.696  0.00  0.00    +0.000 C 
ATOM     30  O   UNL     1      -3.675  14.045  20.814  0.00  0.00    +0.000 OA
ATOM     31  N   UNL     1      -3.244  14.326  23.035  0.00  0.00    +0.000 N 
ATOM     32  H   UNL     1      -2.739  14.858  23.735  0.00  0.00    +0.000 HD
BRANCH  31  33
ATOM     33  C   UNL     1      -4.465  13.633  23.425  0.00  0.00    +0.000 C 
ATOM     34  C   UNL     1      -4.200  12.652  24.558  0.00  0.00    +0.000 C 
ATOM     35  C   UNL     1      -5.555  14.634  23.803  0.00  0.00    +0.000 C 
ENDBRANCH  31  33
ENDBRANCH  28  29
ENDBRANCH  27  28
ENDBRANCH   6  27
TORSDOF 8
ENDMDL
MODEL 6
REMARK VINA RESULT:      -7.1      4.332     10.632
REMARK  Name = 
REMARK  11 active torsions:
REMARK  status: ('A' for Active; 'I' for Inactive)
REMARK    1  A    between atoms: C_1  and  C_2
REMARK    2  A    between atoms: C_3  and  C_4
REMARK    3  A    between atoms: N_6  and  C_7
REMARK    4  A    between atoms: C_13  and  C_14
REMARK    5  A    between atoms: C_20  and  C_21
REMARK    6  A    between atoms: C_23  and  S_24
REMARK    7  A    between atoms: S_24  and  C_25
REMARK    8  A    between atoms: C_25  and  C_26
REMARK    9  A    between atoms: N_28  and  C_29
REMARK   10  A    between atoms: C_29  and  C_30
REMARK   11  A    between atoms: C_29  and  C_31
REMARK                            x       y       z     vdW  Elec       q    Type
REMARK                         _______ _______ _______ _____ _____    ______ ____
ROOT
ATOM      1  C   UNL     1       0.961   8.377  21.587  0.00  0.00    +0.000 C 
ATOM      2  C   UNL     1       0.459   9.640  20.932  0.00  0.00    +0.000 C 
ATOM      3  C   UNL     1       0.646  10.028  19.640  0.00  0.00    +0.000 C 
ATOM      4  C   UNL     1      -0.046  11.292  19.143  0.00  0.00    +0.000 C 
ATOM      5  C   UNL     1      -0.484  12.210  20.275  0.00  0.00    +0.000 C 
ATOM      6  C   UNL     1      -0.632  11.761  21.539  0.00  0.00    +0.000 C 
ATOM      7  N   UNL     1      -0.280  10.450  21.790  0.00  0.00    +0.000 N 
ATOM      8  H   UNL     1      -0.339  10.174  22.780  0.00  0.00    +0.000 HD
ENDROOT
BRANCH   4   9
ATOM      9  C   UNL     1      -1.238  10.946  18.248  0.00  0.00    +0.000 A 
ATOM     10  C   UNL     1      -2.074   9.858  18.547  0.00  0.00    +0.000 A 
ATOM     11  C   UNL     1      -3.142   9.580  17.712  0.00  0.00    +0.000 A 
ATOM     12  N   UNL     1      -3.442  10.303  16.617  0.00  0.00    +0.000 NA
ATOM     13  C   UNL     1      -2.630  11.347  16.340  0.00  0.00    +0.000 A 
ATOM     14  C   UNL     1      -1.533  11.705  17.111  0.00  0.00    +0.000 A 
ENDBRANCH   4   9
BRANCH   3  15
ATOM     15  C   UNL     1       1.383   9.179  18.646  0.00  0.00    +0.000 C 
ATOM     16  O   UNL     1       1.440   9.548  17.479  0.00  0.00    +0.000 OA
ATOM     17  N   UNL     1       1.960   8.016  19.139  0.00  0.00    +0.000 N 
ATOM     18  H   UNL     1       1.773   7.733  20.088  0.00  0.00    +0.000 HD
BRANCH  17  19
ATOM     19  C   UNL     1       2.723   7.081  18.380  0.00  0.00    +0.000 A 
ATOM     20  C   UNL     1       2.409   5.720  18.306  0.00  0.00    +0.000 A 
ATOM     21  C   UNL     1       3.216   4.832  17.590  0.00  0.00    +0.000 A 
ATOM     22  C   UNL     1       4.345   5.294  16.925  0.00  0.00    +0.000 A 
ATOM     23  C   UNL     1       4.654   6.651  16.963  0.00  0.00    +0.000 A 
ATOM     24  C   UNL     1       3.845   7.542  17.680  0.00  0.00    +0.000 A 
ENDBRANCH  17  19
ENDBRANCH   3  15
BRANCH   5  25
ATOM     25  C   UNL     1      -0.739  13.667  19.923  0.00  0.00    +0.000 C 
ATOM     26  N   UNL     1      -0.951  14.875  19.631  0.00  0.00    +0.000 NA
ENDBRANCH   5  25
BRANCH   6  27
ATOM     27  S   UNL     1      -1.148  12.850  22.820  0.00  0.00    +0.000 S 
BRANCH  27  28
ATOM     28  C   UNL     1      -2.723  12.120  23.366  0.00  0.00    +0.000 C 
BRANCH  28  29
ATOM     29  C   UNL     1      -3.923  12.990  23.021  0.00  0.00    +0.000 C 
ATOM     30  O   UNL     1      -3.867  14.211  22.870  0.00  0.00    +0.000 OA
ATOM     31  N   UNL     1      -5.119  12.305  22.903  0.00  0.00    +0.000 N 
ATOM     32  H   UNL     1      -5.171  11.336  23.195  0.00  0.00    +0.000 HD
BRANCH  31  33
ATOM     33  C   UNL     1      -6.358  13.039  22.681  0.00  0.00    +0.000 C 
ATOM     34  C   UNL     1      -7.095  12.512  21.458  0.00  0.00    +0.000 C 
ATOM     35  C   UNL     1      -7.243  12.990  23.925  0.00  0.00    +0.000 C 
ENDBRANCH  31  33
ENDBRANCH  28  29
ENDBRANCH  27  28
ENDBRANCH   6  27
TORSDOF 8
ENDMDL
MODEL 7
REMARK VINA RESULT:      -7.1      5.993     10.582
REMARK  Name = 
REMARK  11 active torsions:
REMARK  status: ('A' for Active; 'I' for Inactive)
REMARK    1  A    between atoms: C_1  and  C_2
REMARK    2  A    between atoms: C_3  and  C_4
REMARK    3  A    between atoms: N_6  and  C_7
REMARK    4  A    between atoms: C_13  and  C_14
REMARK    5  A    between atoms: C_20  and  C_21
REMARK    6  A    between atoms: C_23  and  S_24
REMARK    7  A    between atoms: S_24  and  C_25
REMARK    8  A    between atoms: C_25  and  C_26
REMARK    9  A    between atoms: N_28  and  C_29
REMARK   10  A    between atoms: C_29  and  C_30
REMARK   11  A    between atoms: C_29  and  C_31
REMARK                            x       y       z     vdW  Elec       q    Type
REMARK                         _______ _______ _______ _____ _____    ______ ____
ROOT
ATOM      1  C   UNL     1      -1.374  14.607  21.005  0.00  0.00    +0.000 C 
ATOM      2  C   UNL     1      -1.360  13.437  20.053  0.00  0.00    +0.000 C 
ATOM      3  C   UNL     1      -0.282  12.921  19.400  0.00  0.00    +0.000 C 
ATOM      4  C   UNL     1      -0.462  11.657  18.568  0.00  0.00    +0.000 C 
ATOM      5  C   UNL     1      -1.914  11.394  18.198  0.00  0.00    +0.000 C 
ATOM      6  C   UNL     1      -2.936  11.955  18.880  0.00  0.00    +0.000 C 
ATOM      7  N   UNL     1      -2.612  12.856  19.874  0.00  0.00    +0.000 N 
ATOM      8  H   UNL     1      -3.422  13.313  20.315  0.00  0.00    +0.000 HD
ENDROOT
BRANCH   4   9
ATOM      9  C   UNL     1       0.132  10.442  19.285  0.00  0.00    +0.000 A 
ATOM     10  C   UNL     1       1.142   9.672  18.686  0.00  0.00    +0.000 A 
ATOM     11  C   UNL     1       1.653   8.583  19.369  0.00  0.00    +0.000 A 
ATOM     12  N   UNL     1       1.243   8.211  20.596  0.00  0.00    +0.000 NA
ATOM     13  C   UNL     1       0.270   8.959  21.162  0.00  0.00    +0.000 A 
ATOM     14  C   UNL     1      -0.309  10.067  20.558  0.00  0.00    +0.000 A 
ENDBRANCH   4   9
BRANCH   3  15
ATOM     15  C   UNL     1       1.105  13.461  19.590  0.00  0.00    +0.000 C 
ATOM     16  O   UNL     1       1.764  13.077  20.549  0.00  0.00    +0.000 OA
ATOM     17  N   UNL     1       1.547  14.371  18.639  0.00  0.00    +0.000 N 
ATOM     18  H   UNL     1       0.902  14.714  17.945  0.00  0.00    +0.000 HD
BRANCH  17  19
ATOM     19  C   UNL     1       2.832  14.986  18.611  0.00  0.00    +0.000 A 
ATOM     20  C   UNL     1       3.951  14.392  18.018  0.00  0.00    +0.000 A 
ATOM     21  C   UNL     1       5.203  15.010  18.061  0.00  0.00    +0.000 A 
ATOM     22  C   UNL     1       5.353  16.242  18.688  0.00  0.00    +0.000 A 
ATOM     23  C   UNL     1       4.243  16.861  19.255  0.00  0.00    +0.000 A 
ATOM     24  C   UNL     1       2.987  16.241  19.212  0.00  0.00    +0.000 A 
ENDBRANCH  17  19
ENDBRANCH   3  15
BRANCH   5  25
ATOM     25  C   UNL     1      -2.171  10.475  17.014  0.00  0.00    +0.000 C 
ATOM     26  N   UNL     1      -2.384   9.713  16.033  0.00  0.00    +0.000 NA
ENDBRANCH   5  25
BRANCH   6  27
ATOM     27  S   UNL     1      -4.603  11.621  18.430  0.00  0.00    +0.000 S 
BRANCH  27  28
ATOM     28  C   UNL     1      -5.552  12.398  19.775  0.00  0.00    +0.000 C 
BRANCH  28  29
ATOM     29  C   UNL     1      -6.570  13.407  19.265  0.00  0.00    +0.000 C 
ATOM     30  O   UNL     1      -7.788  13.284  19.397  0.00  0.00    +0.000 OA
ATOM     31  N   UNL     1      -6.026  14.495  18.606  0.00  0.00    +0.000 N 
ATOM     32  H   UNL     1      -5.042  14.490  18.363  0.00  0.00    +0.000 HD
BRANCH  31  33
ATOM     33  C   UNL     1      -6.900  15.477  17.977  0.00  0.00    +0.000 C 
ATOM     34  C   UNL     1      -6.405  16.892  18.231  0.00  0.00    +0.000 C 
ATOM     35  C   UNL     1      -7.036  15.197  16.482  0.00  0.00    +0.000 C 
ENDBRANCH  31  33
ENDBRANCH  28  29
ENDBRANCH  27  28
ENDBRANCH   6  27
TORSDOF 8
ENDMDL
MODEL 8
REMARK VINA RESULT:      -7.1      4.653     10.279
REMARK  Name = 
REMARK  11 active torsions:
REMARK  status: ('A' for Active; 'I' for Inactive)
REMARK    1  A    between atoms: C_1  and  C_2
REMARK    2  A    between atoms: C_3  and  C_4
REMARK    3  A    between atoms: N_6  and  C_7
REMARK    4  A    between atoms: C_13  and  C_14
REMARK    5  A    between atoms: C_20  and  C_21
REMARK    6  A    between atoms: C_23  and  S_24
REMARK    7  A    between atoms: S_24  and  C_25
REMARK    8  A    between atoms: C_25  and  C_26
REMARK    9  A    between atoms: N_28  and  C_29
REMARK   10  A    between atoms: C_29  and  C_30
REMARK   11  A    between atoms: C_29  and  C_31
REMARK                            x       y       z     vdW  Elec       q    Type
REMARK                         _______ _______ _______ _____ _____    ______ ____
ROOT
ATOM      1  C   UNL     1      -0.508   9.839  23.577  0.00  0.00    +0.000 C 
ATOM      2  C   UNL     1      -0.294  10.695  22.353  0.00  0.00    +0.000 C 
ATOM      3  C   UNL     1       0.111  10.282  21.121  0.00  0.00    +0.000 C 
ATOM      4  C   UNL     1       0.155  11.295  19.982  0.00  0.00    +0.000 C 
ATOM      5  C   UNL     1       0.186  12.735  20.474  0.00  0.00    +0.000 C 
ATOM      6  C   UNL     1      -0.213  13.072  21.719  0.00  0.00    +0.000 C 
ATOM      7  N   UNL     1      -0.566  12.043  22.569  0.00  0.00    +0.000 N 
ATOM      8  H   UNL     1      -0.792  12.342  23.528  0.00  0.00    +0.000 HD
ENDROOT
BRANCH   4   9
ATOM      9  C   UNL     1      -1.017  11.087  19.021  0.00  0.00    +0.000 A 
ATOM     10  C   UNL     1      -0.900  10.231  17.913  0.00  0.00    +0.000 A 
ATOM     11  C   UNL     1      -1.985  10.071  17.069  0.00  0.00    +0.000 A 
ATOM     12  N   UNL     1      -3.168  10.686  17.247  0.00  0.00    +0.000 NA
ATOM     13  C   UNL     1      -3.268  11.508  18.316  0.00  0.00    +0.000 A 
ATOM     14  C   UNL     1      -2.239  11.738  19.218  0.00  0.00    +0.000 A 
ENDBRANCH   4   9
BRANCH   3  15
ATOM     15  C   UNL     1       0.367   8.838  20.803  0.00  0.00    +0.000 C 
ATOM     16  O   UNL     1      -0.479   8.006  21.106  0.00  0.00    +0.000 OA
ATOM     17  N   UNL     1       1.570   8.551  20.171  0.00  0.00    +0.000 N 
ATOM     18  H   UNL     1       2.255   9.281  20.057  0.00  0.00    +0.000 HD
BRANCH  17  19
ATOM     19  C   UNL     1       2.004   7.258  19.758  0.00  0.00    +0.000 A 
ATOM     20  C   UNL     1       1.939   6.130  20.582  0.00  0.00    +0.000 A 
ATOM     21  C   UNL     1       2.424   4.893  20.151  0.00  0.00    +0.000 A 
ATOM     22  C   UNL     1       2.972   4.761  18.881  0.00  0.00    +0.000 A 
ATOM     23  C   UNL     1       3.015   5.867  18.036  0.00  0.00    +0.000 A 
ATOM     24  C   UNL     1       2.528   7.108  18.468  0.00  0.00    +0.000 A 
ENDBRANCH  17  19
ENDBRANCH   3  15
BRANCH   5  25
ATOM     25  C   UNL     1       0.700  13.786  19.502  0.00  0.00    +0.000 C 
ATOM     26  N   UNL     1       1.126  14.657  18.696  0.00  0.00    +0.000 NA
ENDBRANCH   5  25
BRANCH   6  27
ATOM     27  S   UNL     1      -0.171  14.748  22.249  0.00  0.00    +0.000 S 
BRANCH  27  28
ATOM     28  C   UNL     1      -1.872  15.036  22.828  0.00  0.00    +0.000 C 
BRANCH  28  29
ATOM     29  C   UNL     1      -2.907  14.825  21.732  0.00  0.00    +0.000 C 
ATOM     30  O   UNL     1      -2.798  15.267  20.588  0.00  0.00    +0.000 OA
ATOM     31  N   UNL     1      -4.020  14.100  22.120  0.00  0.00    +0.000 N 
ATOM     32  H   UNL     1      -4.164  13.894  23.101  0.00  0.00    +0.000 HD
BRANCH  31  33
ATOM     33  C   UNL     1      -5.130  13.922  21.193  0.00  0.00    +0.000 C 
ATOM     34  C   UNL     1      -5.560  12.464  21.128  0.00  0.00    +0.000 C 
ATOM     35  C   UNL     1      -6.300  14.828  21.574  0.00  0.00    +0.000 C 
ENDBRANCH  31  33
ENDBRANCH  28  29
ENDBRANCH  27  28
ENDBRANCH   6  27
TORSDOF 8
ENDMDL
MODEL 9
REMARK VINA RESULT:      -7.1      4.217      7.812
REMARK  Name = 
REMARK  11 active torsions:
REMARK  status: ('A' for Active; 'I' for Inactive)
REMARK    1  A    between atoms: C_1  and  C_2
REMARK    2  A    between atoms: C_3  and  C_4
REMARK    3  A    between atoms: N_6  and  C_7
REMARK    4  A    between atoms: C_13  and  C_14
REMARK    5  A    between atoms: C_20  and  C_21
REMARK    6  A    between atoms: C_23  and  S_24
REMARK    7  A    between atoms: S_24  and  C_25
REMARK    8  A    between atoms: C_25  and  C_26
REMARK    9  A    between atoms: N_28  and  C_29
REMARK   10  A    between atoms: C_29  and  C_30
REMARK   11  A    between atoms: C_29  and  C_31
REMARK                            x       y       z     vdW  Elec       q    Type
REMARK                         _______ _______ _______ _____ _____    ______ ____
ROOT
ATOM      1  C   UNL     1       2.421  11.965  17.864  0.00  0.00    +0.000 C 
ATOM      2  C   UNL     1       1.639  11.611  19.104  0.00  0.00    +0.000 C 
ATOM      3  C   UNL     1       1.087  12.472  20.003  0.00  0.00    +0.000 C 
ATOM      4  C   UNL     1       0.233  11.909  21.133  0.00  0.00    +0.000 C 
ATOM      5  C   UNL     1       0.484  10.429  21.383  0.00  0.00    +0.000 C 
ATOM      6  C   UNL     1       1.054   9.636  20.451  0.00  0.00    +0.000 C 
ATOM      7  N   UNL     1       1.489  10.239  19.289  0.00  0.00    +0.000 N 
ATOM      8  H   UNL     1       1.982   9.610  18.640  0.00  0.00    +0.000 HD
ENDROOT
BRANCH   4   9
ATOM      9  C   UNL     1      -1.254  12.158  20.870  0.00  0.00    +0.000 A 
ATOM     10  C   UNL     1      -1.833  11.833  19.633  0.00  0.00    +0.000 A 
ATOM     11  C   UNL     1      -3.182  12.073  19.437  0.00  0.00    +0.000 A 
ATOM     12  N   UNL     1      -3.991  12.600  20.374  0.00  0.00    +0.000 NA
ATOM     13  C   UNL     1      -3.422  12.909  21.561  0.00  0.00    +0.000 A 
ATOM     14  C   UNL     1      -2.080  12.710  21.854  0.00  0.00    +0.000 A 
ENDBRANCH   4   9
BRANCH   3  15
ATOM     15  C   UNL     1       1.161  13.961  19.837  0.00  0.00    +0.000 C 
ATOM     16  O   UNL     1       1.834  14.612  20.628  0.00  0.00    +0.000 OA
ATOM     17  N   UNL     1       0.448  14.498  18.773  0.00  0.00    +0.000 N 
ATOM     18  H   UNL     1      -0.165  13.904  18.239  0.00  0.00    +0.000 HD
BRANCH  17  19
ATOM     19  C   UNL     1       0.399  15.877  18.418  0.00  0.00    +0.000 A 
ATOM     20  C   UNL     1       1.481  16.560  17.853  0.00  0.00    +0.000 A 
ATOM     21  C   UNL     1       1.403  17.926  17.568  0.00  0.00    +0.000 A 
ATOM     22  C   UNL     1       0.234  18.629  17.832  0.00  0.00    +0.000 A 
ATOM     23  C   UNL     1      -0.864  17.957  18.365  0.00  0.00    +0.000 A 
ATOM     24  C   UNL     1      -0.785  16.587  18.651  0.00  0.00    +0.000 A 
ENDBRANCH  17  19
ENDBRANCH   3  15
BRANCH   5  25
ATOM     25  C   UNL     1       0.075   9.878  22.740  0.00  0.00    +0.000 C 
ATOM     26  N   UNL     1      -0.265   9.421  23.865  0.00  0.00    +0.000 NA
ENDBRANCH   5  25
BRANCH   6  27
ATOM     27  S   UNL     1       1.322   7.927  20.773  0.00  0.00    +0.000 S 
BRANCH  27  28
ATOM     28  C   UNL     1       2.339   7.400  19.358  0.00  0.00    +0.000 C 
BRANCH  28  29
ATOM     29  C   UNL     1       2.572   5.897  19.333  0.00  0.00    +0.000 C 
ATOM     30  O   UNL     1       3.252   5.319  18.484  0.00  0.00    +0.000 OA
ATOM     31  N   UNL     1       1.937   5.197  20.343  0.00  0.00    +0.000 N 
ATOM     32  H   UNL     1       1.253   5.668  20.923  0.00  0.00    +0.000 HD
BRANCH  31  33
ATOM     33  C   UNL     1       1.995   3.741  20.366  0.00  0.00    +0.000 C 
ATOM     34  C   UNL     1       2.067   3.218  21.793  0.00  0.00    +0.000 C 
ATOM     35  C   UNL     1       0.805   3.143  19.617  0.00  0.00    +0.000 C 
ENDBRANCH  31  33
ENDBRANCH  28  29
ENDBRANCH  27  28
ENDBRANCH   6  27
TORSDOF 8
ENDMDL
