MODEL 1
REMARK VINA RESULT:      -8.1      0.000      0.000
REMARK  Name = 
REMARK  5 active torsions:
REMARK  status: ('A' for Active; 'I' for Inactive)
REMARK    1  A    between atoms: N_1  and  S_2
REMARK    2  A    between atoms: S_2  and  C_5
REMARK    3  A    between atoms: C_8  and  N_9
REMARK    4  A    between atoms: N_12  and  C_13
REMARK    5  A    between atoms: C_15  and  N_16
REMARK                            x       y       z     vdW  Elec       q    Type
REMARK                         _______ _______ _______ _____ _____    ______ ____
ROOT
ATOM      1  N   UNL     1       1.980   7.484  20.904  0.00  0.00    +0.000 N 
ATOM      2  C   UNL     1       2.564   7.019  19.739  0.00  0.00    +0.000 C 
ATOM      3  O   UNL     1       2.494   7.570  18.644  0.00  0.00    +0.000 OA
ATOM      4  N   UNL     1       3.225   5.817  19.911  0.00  0.00    +0.000 N 
ATOM      5  H   UNL     1       2.277   7.048  21.766  0.00  0.00    +0.000 HD
ATOM      6  H   UNL     1       2.769   5.175  20.552  0.00  0.00    +0.000 HD
ENDROOT
BRANCH   4   7
ATOM      7  C   UNL     1       3.861   5.202  18.793  0.00  0.00    +0.000 A 
ATOM      8  C   UNL     1       5.210   5.468  18.505  0.00  0.00    +0.000 A 
ATOM      9  C   UNL     1       5.803   4.927  17.359  0.00  0.00    +0.000 A 
ATOM     10  C   UNL     1       5.065   4.099  16.502  0.00  0.00    +0.000 A 
ATOM     11  C   UNL     1       3.728   3.818  16.798  0.00  0.00    +0.000 A 
ATOM     12  C   UNL     1       3.132   4.358  17.942  0.00  0.00    +0.000 A 
ATOM     13 CL   UNL     1       1.454   4.050  18.221  0.00  0.00    +0.000 Cl
BRANCH   9  14
ATOM     14  N   UNL     1       7.201   5.244  17.036  0.00  0.00    +0.000 N 
ATOM     15  O   UNL     1       7.452   6.370  16.585  0.00  0.00    +0.000 OA
ATOM     16  O   UNL     1       8.050   4.366  17.244  0.00  0.00    +0.000 OA
ENDBRANCH   9  14
ENDBRANCH   4   7
BRANCH   1  20
ATOM     17  C   UNL     1      -0.489  10.889  21.287  0.00  0.00    +0.000 A 
ATOM     18  C   UNL     1      -0.000  10.547  20.031  0.00  0.00    +0.000 A 
ATOM     19  C   UNL     1       0.808   9.418  19.898  0.00  0.00    +0.000 A 
ATOM     20  C   UNL     1       1.152   8.630  21.005  0.00  0.00    +0.000 A 
ATOM     21  C   UNL     1       0.648   8.984  22.263  0.00  0.00    +0.000 A 
ATOM     22  C   UNL     1      -0.172  10.115  22.407  0.00  0.00    +0.000 A 
BRANCH  17  23
ATOM     23  S   UNL     1      -1.548  12.294  21.432  0.00  0.00    +0.000 S 
ATOM     24  O   UNL     1      -2.566  12.222  20.414  0.00  0.00    +0.000 OA
ATOM     25  O   UNL     1      -0.748  13.474  21.660  0.00  0.00    +0.000 OA
BRANCH  23  26
ATOM     26  N   UNL     1      -2.319  11.991  22.898  0.00  0.00    +0.000 NA
ATOM     27  H   UNL     1      -1.626  11.909  23.644  0.00  0.00    +0.000 HD
ATOM     28  H   UNL     1      -2.937  11.186  22.812  0.00  0.00    +0.000 HD
ENDBRANCH  23  26
ENDBRANCH  17  23
ENDBRANCH   1  20
TORSDOF 5
ENDMDL
MODEL 2
REMARK VINA RESULT:      -8.1      0.752      1.117
REMARK  Name = 
REMARK  5 active torsions:
REMARK  status: ('A' for Active; 'I' for Inactive)
REMARK    1  A    between atoms: N_1  and  S_2
REMARK    2  A    between atoms: S_2  and  C_5
REMARK    3  A    between atoms: C_8  and  N_9
REMARK    4  A    between atoms: N_12  and  C_13
REMARK    5  A    between atoms: C_15  and  N_16
REMARK                            x       y       z     vdW  Elec       q    Type
REMARK                         _______ _______ _______ _____ _____    ______ ____
ROOT
ATOM      1  N   UNL     1       1.965   7.530  20.853  0.00  0.00    +0.000 N 
ATOM      2  C   UNL     1       2.549   7.037  19.700  0.00  0.00    +0.000 C 
ATOM      3  O   UNL     1       2.480   7.560  18.593  0.00  0.00    +0.000 OA
ATOM      4  N   UNL     1       3.211   5.839  19.903  0.00  0.00    +0.000 N 
ATOM      5  H   UNL     1       2.261   7.116  21.726  0.00  0.00    +0.000 HD
ATOM      6  H   UNL     1       2.754   5.213  20.559  0.00  0.00    +0.000 HD
ENDROOT
BRANCH   4   7
ATOM      7  C   UNL     1       3.847   5.196  18.801  0.00  0.00    +0.000 A 
ATOM      8  C   UNL     1       5.192   5.465  18.500  0.00  0.00    +0.000 A 
ATOM      9  C   UNL     1       5.786   4.895  17.368  0.00  0.00    +0.000 A 
ATOM     10  C   UNL     1       5.051   4.037  16.538  0.00  0.00    +0.000 A 
ATOM     11  C   UNL     1       3.718   3.754  16.847  0.00  0.00    +0.000 A 
ATOM     12  C   UNL     1       3.121   4.323  17.977  0.00  0.00    +0.000 A 
ATOM     13 CL   UNL     1       1.447   4.011  18.272  0.00  0.00    +0.000 Cl
BRANCH   9  14
ATOM     14  N   UNL     1       7.181   5.213  17.031  0.00  0.00    +0.000 N 
ATOM     15  O   UNL     1       8.046   4.363  17.279  0.00  0.00    +0.000 OA
ATOM     16  O   UNL     1       7.407   6.314  16.509  0.00  0.00    +0.000 OA
ENDBRANCH   9  14
ENDBRANCH   4   7
BRANCH   1  20
ATOM     17  C   UNL     1      -0.507  10.942  21.151  0.00  0.00    +0.000 A 
ATOM     18  C   UNL     1       0.002  10.582  19.908  0.00  0.00    +0.000 A 
ATOM     19  C   UNL     1       0.811   9.451  19.803  0.00  0.00    +0.000 A 
ATOM     20  C   UNL     1       1.136   8.678  20.926  0.00  0.00    +0.000 A 
ATOM     21  C   UNL     1       0.612   9.049  22.170  0.00  0.00    +0.000 A 
ATOM     22  C   UNL     1      -0.209  10.183  22.285  0.00  0.00    +0.000 A 
BRANCH  17  23
ATOM     23  S   UNL     1      -1.567  12.350  21.259  0.00  0.00    +0.000 S 
ATOM     24  O   UNL     1      -0.774  13.546  21.124  0.00  0.00    +0.000 OA
ATOM     25  O   UNL     1      -2.515  12.153  22.330  0.00  0.00    +0.000 OA
BRANCH  23  26
ATOM     26  N   UNL     1      -2.465  12.211  19.841  0.00  0.00    +0.000 NA
ATOM     27  H   UNL     1      -2.833  11.263  19.756  0.00  0.00    +0.000 HD
ATOM     28  H   UNL     1      -1.912  12.517  19.043  0.00  0.00    +0.000 HD
ENDBRANCH  23  26
ENDBRANCH  17  23
ENDBRANCH   1  20
TORSDOF 5
ENDMDL
MODEL 3
REMARK VINA RESULT:      -8.0      0.864      1.435
REMARK  Name = 
REMARK  5 active torsions:
REMARK  status: ('A' for Active; 'I' for Inactive)
REMARK    1  A    between atoms: N_1  and  S_2
REMARK    2  A    between atoms: S_2  and  C_5
REMARK    3  A    between atoms: C_8  and  N_9
REMARK    4  A    between atoms: N_12  and  C_13
REMARK    5  A    between atoms: C_15  and  N_16
REMARK                            x       y       z     vdW  Elec       q    Type
REMARK                         _______ _______ _______ _____ _____    ______ ____
ROOT
ATOM      1  N   UNL     1       1.941   7.601  20.742  0.00  0.00    +0.000 N 
ATOM      2  C   UNL     1       2.530   7.068  19.609  0.00  0.00    +0.000 C 
ATOM      3  O   UNL     1       2.457   7.548  18.482  0.00  0.00    +0.000 OA
ATOM      4  N   UNL     1       3.200   5.884  19.857  0.00  0.00    +0.000 N 
ATOM      5  H   UNL     1       2.240   7.222  21.630  0.00  0.00    +0.000 HD
ATOM      6  H   UNL     1       2.748   5.280  20.537  0.00  0.00    +0.000 HD
ENDROOT
BRANCH   4   7
ATOM      7  C   UNL     1       3.842   5.204  18.781  0.00  0.00    +0.000 A 
ATOM      8  C   UNL     1       5.186   5.468  18.473  0.00  0.00    +0.000 A 
ATOM      9  C   UNL     1       5.785   4.860  17.364  0.00  0.00    +0.000 A 
ATOM     10  C   UNL     1       5.056   3.969  16.564  0.00  0.00    +0.000 A 
ATOM     11  C   UNL     1       3.723   3.691  16.880  0.00  0.00    +0.000 A 
ATOM     12  C   UNL     1       3.121   4.298  17.988  0.00  0.00    +0.000 A 
ATOM     13 CL   UNL     1       1.448   3.989  18.290  0.00  0.00    +0.000 Cl
BRANCH   9  14
ATOM     14  N   UNL     1       7.179   5.172  17.018  0.00  0.00    +0.000 N 
ATOM     15  O   UNL     1       7.408   6.246  16.445  0.00  0.00    +0.000 OA
ATOM     16  O   UNL     1       8.045   4.344  17.329  0.00  0.00    +0.000 OA
ENDBRANCH   9  14
ENDBRANCH   4   7
BRANCH   1  20
ATOM     17  C   UNL     1      -0.541  11.018  20.748  0.00  0.00    +0.000 A 
ATOM     18  C   UNL     1      -0.392  10.289  21.923  0.00  0.00    +0.000 A 
ATOM     19  C   UNL     1       0.434   9.165  21.928  0.00  0.00    +0.000 A 
ATOM     20  C   UNL     1       1.104   8.744  20.771  0.00  0.00    +0.000 A 
ATOM     21  C   UNL     1       0.949   9.492  19.597  0.00  0.00    +0.000 A 
ATOM     22  C   UNL     1       0.124  10.629  19.583  0.00  0.00    +0.000 A 
BRANCH  17  23
ATOM     23  S   UNL     1      -1.553  12.464  20.770  0.00  0.00    +0.000 S 
ATOM     24  O   UNL     1      -0.707  13.629  20.828  0.00  0.00    +0.000 OA
ATOM     25  O   UNL     1      -2.665  12.256  21.667  0.00  0.00    +0.000 OA
BRANCH  23  26
ATOM     26  N   UNL     1      -2.221  12.437  19.224  0.00  0.00    +0.000 NA
ATOM     27  H   UNL     1      -3.237  12.515  19.284  0.00  0.00    +0.000 HD
ATOM     28  H   UNL     1      -1.894  11.619  18.713  0.00  0.00    +0.000 HD
ENDBRANCH  23  26
ENDBRANCH  17  23
ENDBRANCH   1  20
TORSDOF 5
ENDMDL
MODEL 4
REMARK VINA RESULT:      -7.9      0.532      1.146
REMARK  Name = 
REMARK  5 active torsions:
REMARK  status: ('A' for Active; 'I' for Inactive)
REMARK    1  A    between atoms: N_1  and  S_2
REMARK    2  A    between atoms: S_2  and  C_5
REMARK    3  A    between atoms: C_8  and  N_9
REMARK    4  A    between atoms: N_12  and  C_13
REMARK    5  A    between atoms: C_15  and  N_16
REMARK                            x       y       z     vdW  Elec       q    Type
REMARK                         _______ _______ _______ _____ _____    ______ ____
ROOT
ATOM      1  N   UNL     1       1.816   7.359  20.956  0.00  0.00    +0.000 N 
ATOM      2  C   UNL     1       2.481   6.873  19.844  0.00  0.00    +0.000 C 
ATOM      3  O   UNL     1       2.539   7.434  18.755  0.00  0.00    +0.000 OA
ATOM      4  N   UNL     1       3.064   5.638  20.063  0.00  0.00    +0.000 N 
ATOM      5  H   UNL     1       2.011   6.903  21.837  0.00  0.00    +0.000 HD
ATOM      6  H   UNL     1       2.520   5.015  20.652  0.00  0.00    +0.000 HD
ENDROOT
BRANCH   4   7
ATOM      7  C   UNL     1       3.769   5.000  19.001  0.00  0.00    +0.000 A 
ATOM      8  C   UNL     1       5.167   5.100  18.913  0.00  0.00    +0.000 A 
ATOM      9  C   UNL     1       5.844   4.542  17.822  0.00  0.00    +0.000 A 
ATOM     10  C   UNL     1       5.136   3.861  16.822  0.00  0.00    +0.000 A 
ATOM     11  C   UNL     1       3.746   3.744  16.918  0.00  0.00    +0.000 A 
ATOM     12  C   UNL     1       3.067   4.302  18.007  0.00  0.00    +0.000 A 
ATOM     13 CL   UNL     1       1.342   4.205  18.040  0.00  0.00    +0.000 Cl
BRANCH   9  14
ATOM     14  N   UNL     1       7.302   4.687  17.709  0.00  0.00    +0.000 N 
ATOM     15  O   UNL     1       7.794   4.732  16.574  0.00  0.00    +0.000 OA
ATOM     16  O   UNL     1       7.953   4.765  18.760  0.00  0.00    +0.000 OA
ENDBRANCH   9  14
ENDBRANCH   4   7
BRANCH   1  20
ATOM     17  C   UNL     1      -0.484  10.901  20.993  0.00  0.00    +0.000 A 
ATOM     18  C   UNL     1      -0.408  10.132  22.149  0.00  0.00    +0.000 A 
ATOM     19  C   UNL     1       0.358   8.967  22.145  0.00  0.00    +0.000 A 
ATOM     20  C   UNL     1       1.039   8.544  20.995  0.00  0.00    +0.000 A 
ATOM     21  C   UNL     1       0.959   9.331  19.840  0.00  0.00    +0.000 A 
ATOM     22  C   UNL     1       0.196  10.510  19.836  0.00  0.00    +0.000 A 
BRANCH  17  23
ATOM     23  S   UNL     1      -1.419  12.397  21.028  0.00  0.00    +0.000 S 
ATOM     24  O   UNL     1      -2.439  12.338  20.011  0.00  0.00    +0.000 OA
ATOM     25  O   UNL     1      -0.522  13.518  21.176  0.00  0.00    +0.000 OA
BRANCH  23  26
ATOM     26  N   UNL     1      -2.214  12.268  22.508  0.00  0.00    +0.000 NA
ATOM     27  H   UNL     1      -2.204  11.297  22.822  0.00  0.00    +0.000 HD
ATOM     28  H   UNL     1      -3.144  12.677  22.445  0.00  0.00    +0.000 HD
ENDBRANCH  23  26
ENDBRANCH  17  23
ENDBRANCH   1  20
TORSDOF 5
ENDMDL
MODEL 5
REMARK VINA RESULT:      -7.9      6.622      7.537
REMARK  Name = 
REMARK  5 active torsions:
REMARK  status: ('A' for Active; 'I' for Inactive)
REMARK    1  A    between atoms: N_1  and  S_2
REMARK    2  A    between atoms: S_2  and  C_5
REMARK    3  A    between atoms: C_8  and  N_9
REMARK    4  A    between atoms: N_12  and  C_13
REMARK    5  A    between atoms: C_15  and  N_16
REMARK                            x       y       z     vdW  Elec       q    Type
REMARK                         _______ _______ _______ _____ _____    ______ ____
ROOT
ATOM      1  N   UNL     1       8.718   8.436  18.916  0.00  0.00    +0.000 N 
ATOM      2  C   UNL     1       7.921   7.787  17.990  0.00  0.00    +0.000 C 
ATOM      3  O   UNL     1       7.375   8.321  17.029  0.00  0.00    +0.000 OA
ATOM      4  N   UNL     1       7.754   6.443  18.272  0.00  0.00    +0.000 N 
ATOM      5  H   UNL     1       9.262   7.852  19.536  0.00  0.00    +0.000 HD
ATOM      6  H   UNL     1       7.676   6.228  19.261  0.00  0.00    +0.000 HD
ENDROOT
BRANCH   4   7
ATOM      7  C   UNL     1       6.939   5.645  17.416  0.00  0.00    +0.000 A 
ATOM      8  C   UNL     1       7.301   5.442  16.075  0.00  0.00    +0.000 A 
ATOM      9  C   UNL     1       6.453   4.728  15.220  0.00  0.00    +0.000 A 
ATOM     10  C   UNL     1       5.250   4.192  15.699  0.00  0.00    +0.000 A 
ATOM     11  C   UNL     1       4.898   4.378  17.039  0.00  0.00    +0.000 A 
ATOM     12  C   UNL     1       5.742   5.092  17.896  0.00  0.00    +0.000 A 
ATOM     13 CL   UNL     1       5.225   5.367  19.522  0.00  0.00    +0.000 Cl
BRANCH   9  14
ATOM     14  N   UNL     1       6.813   4.555  13.805  0.00  0.00    +0.000 N 
ATOM     15  O   UNL     1       7.655   5.324  13.322  0.00  0.00    +0.000 OA
ATOM     16  O   UNL     1       6.257   3.641  13.180  0.00  0.00    +0.000 OA
ENDBRANCH   9  14
ENDBRANCH   4   7
BRANCH   1  20
ATOM     17  C   UNL     1       9.512  12.581  19.073  0.00  0.00    +0.000 A 
ATOM     18  C   UNL     1       9.057  12.025  17.883  0.00  0.00    +0.000 A 
ATOM     19  C   UNL     1       8.784  10.658  17.829  0.00  0.00    +0.000 A 
ATOM     20  C   UNL     1       8.975   9.829  18.943  0.00  0.00    +0.000 A 
ATOM     21  C   UNL     1       9.429  10.404  20.136  0.00  0.00    +0.000 A 
ATOM     22  C   UNL     1       9.700  11.781  20.203  0.00  0.00    +0.000 A 
BRANCH  17  23
ATOM     23  S   UNL     1       9.808  14.320  19.139  0.00  0.00    +0.000 S 
ATOM     24  O   UNL     1      11.136  14.552  19.649  0.00  0.00    +0.000 OA
ATOM     25  O   UNL     1       8.639  14.985  19.662  0.00  0.00    +0.000 OA
BRANCH  23  26
ATOM     26  N   UNL     1       9.850  14.721  17.503  0.00  0.00    +0.000 NA
ATOM     27  H   UNL     1      10.788  15.032  17.247  0.00  0.00    +0.000 HD
ATOM     28  H   UNL     1       9.114  15.389  17.285  0.00  0.00    +0.000 HD
ENDBRANCH  23  26
ENDBRANCH  17  23
ENDBRANCH   1  20
TORSDOF 5
ENDMDL
MODEL 6
REMARK VINA RESULT:      -7.9      1.295      1.418
REMARK  Name = 
REMARK  5 active torsions:
REMARK  status: ('A' for Active; 'I' for Inactive)
REMARK    1  A    between atoms: N_1  and  S_2
REMARK    2  A    between atoms: S_2  and  C_5
REMARK    3  A    between atoms: C_8  and  N_9
REMARK    4  A    between atoms: N_12  and  C_13
REMARK    5  A    between atoms: C_15  and  N_16
REMARK                            x       y       z     vdW  Elec       q    Type
REMARK                         _______ _______ _______ _____ _____    ______ ____
ROOT
ATOM      1  N   UNL     1       1.752   7.897  20.415  0.00  0.00    +0.000 N 
ATOM      2  C   UNL     1       2.498   7.272  19.431  0.00  0.00    +0.000 C 
ATOM      3  O   UNL     1       2.690   7.712  18.302  0.00  0.00    +0.000 OA
ATOM      4  N   UNL     1       2.995   6.045  19.832  0.00  0.00    +0.000 N 
ATOM      5  H   UNL     1       1.837   7.529  21.353  0.00  0.00    +0.000 HD
ATOM      6  H   UNL     1       2.367   5.509  20.423  0.00  0.00    +0.000 HD
ENDROOT
BRANCH   4   7
ATOM      7  C   UNL     1       3.768   5.271  18.918  0.00  0.00    +0.000 A 
ATOM      8  C   UNL     1       5.171   5.327  18.947  0.00  0.00    +0.000 A 
ATOM      9  C   UNL     1       5.922   4.630  17.992  0.00  0.00    +0.000 A 
ATOM     10  C   UNL     1       5.281   3.855  17.015  0.00  0.00    +0.000 A 
ATOM     11  C   UNL     1       3.885   3.784  16.997  0.00  0.00    +0.000 A 
ATOM     12  C   UNL     1       3.133   4.481  17.948  0.00  0.00    +0.000 A 
ATOM     13 CL   UNL     1       1.409   4.430  17.835  0.00  0.00    +0.000 Cl
BRANCH   9  14
ATOM     14  N   UNL     1       7.388   4.726  17.997  0.00  0.00    +0.000 N 
ATOM     15  O   UNL     1       7.941   5.104  19.039  0.00  0.00    +0.000 OA
ATOM     16  O   UNL     1       7.986   4.412  16.959  0.00  0.00    +0.000 OA
ENDBRANCH   9  14
ENDBRANCH   4   7
BRANCH   1  20
ATOM     17  C   UNL     1      -0.416  11.499  20.010  0.00  0.00    +0.000 A 
ATOM     18  C   UNL     1       0.437  11.104  18.985  0.00  0.00    +0.000 A 
ATOM     19  C   UNL     1       1.147   9.910  19.110  0.00  0.00    +0.000 A 
ATOM     20  C   UNL     1       1.035   9.109  20.254  0.00  0.00    +0.000 A 
ATOM     21  C   UNL     1       0.169   9.516  21.276  0.00  0.00    +0.000 A 
ATOM     22  C   UNL     1      -0.557  10.713  21.157  0.00  0.00    +0.000 A 
BRANCH  17  23
ATOM     23  S   UNL     1      -1.343  12.988  19.817  0.00  0.00    +0.000 S 
ATOM     24  O   UNL     1      -0.698  13.819  18.832  0.00  0.00    +0.000 OA
ATOM     25  O   UNL     1      -1.741  13.476  21.116  0.00  0.00    +0.000 OA
BRANCH  23  26
ATOM     26  N   UNL     1      -2.760  12.418  19.105  0.00  0.00    +0.000 NA
ATOM     27  H   UNL     1      -2.622  11.461  18.778  0.00  0.00    +0.000 HD
ATOM     28  H   UNL     1      -3.077  13.064  18.385  0.00  0.00    +0.000 HD
ENDBRANCH  23  26
ENDBRANCH  17  23
ENDBRANCH   1  20
TORSDOF 5
ENDMDL
MODEL 7
REMARK VINA RESULT:      -7.9      0.740      1.278
REMARK  Name = 
REMARK  5 active torsions:
REMARK  status: ('A' for Active; 'I' for Inactive)
REMARK    1  A    between atoms: N_1  and  S_2
REMARK    2  A    between atoms: S_2  and  C_5
REMARK    3  A    between atoms: C_8  and  N_9
REMARK    4  A    between atoms: N_12  and  C_13
REMARK    5  A    between atoms: C_15  and  N_16
REMARK                            x       y       z     vdW  Elec       q    Type
REMARK                         _______ _______ _______ _____ _____    ______ ____
ROOT
ATOM      1  N   UNL     1       1.864   7.524  21.057  0.00  0.00    +0.000 N 
ATOM      2  C   UNL     1       2.418   7.064  19.876  0.00  0.00    +0.000 C 
ATOM      3  O   UNL     1       2.321   7.620  18.786  0.00  0.00    +0.000 OA
ATOM      4  N   UNL     1       3.084   5.862  20.027  0.00  0.00    +0.000 N 
ATOM      5  H   UNL     1       2.182   7.085  21.910  0.00  0.00    +0.000 HD
ATOM      6  H   UNL     1       2.644   5.216  20.676  0.00  0.00    +0.000 HD
ENDROOT
BRANCH   4   7
ATOM      7  C   UNL     1       3.691   5.251  18.890  0.00  0.00    +0.000 A 
ATOM      8  C   UNL     1       4.986   5.621  18.491  0.00  0.00    +0.000 A 
ATOM      9  C   UNL     1       5.543   5.079  17.327  0.00  0.00    +0.000 A 
ATOM     10  C   UNL     1       4.824   4.149  16.563  0.00  0.00    +0.000 A 
ATOM     11  C   UNL     1       3.542   3.767  16.970  0.00  0.00    +0.000 A 
ATOM     12  C   UNL     1       2.983   4.307  18.132  0.00  0.00    +0.000 A 
ATOM     13 CL   UNL     1       1.364   3.868  18.549  0.00  0.00    +0.000 Cl
BRANCH   9  14
ATOM     14  N   UNL     1       6.880   5.501  16.887  0.00  0.00    +0.000 N 
ATOM     15  O   UNL     1       7.080   6.711  16.716  0.00  0.00    +0.000 OA
ATOM     16  O   UNL     1       7.734   4.619  16.722  0.00  0.00    +0.000 OA
ENDBRANCH   9  14
ENDBRANCH   4   7
BRANCH   1  20
ATOM     17  C   UNL     1      -0.593  10.947  21.356  0.00  0.00    +0.000 A 
ATOM     18  C   UNL     1      -0.315  10.212  22.504  0.00  0.00    +0.000 A 
ATOM     19  C   UNL     1       0.504   9.086  22.411  0.00  0.00    +0.000 A 
ATOM     20  C   UNL     1       1.038   8.670  21.185  0.00  0.00    +0.000 A 
ATOM     21  C   UNL     1       0.755   9.423  20.039  0.00  0.00    +0.000 A 
ATOM     22  C   UNL     1      -0.062  10.562  20.122  0.00  0.00    +0.000 A 
BRANCH  17  23
ATOM     23  S   UNL     1      -1.592  12.395  21.498  0.00  0.00    +0.000 S 
ATOM     24  O   UNL     1      -2.620  12.163  22.481  0.00  0.00    +0.000 OA
ATOM     25  O   UNL     1      -1.869  12.915  20.180  0.00  0.00    +0.000 OA
BRANCH  23  26
ATOM     26  N   UNL     1      -0.512  13.489  22.187  0.00  0.00    +0.000 NA
ATOM     27  H   UNL     1      -0.477  13.350  23.198  0.00  0.00    +0.000 HD
ATOM     28  H   UNL     1      -0.744  14.439  21.904  0.00  0.00    +0.000 HD
ENDBRANCH  23  26
ENDBRANCH  17  23
ENDBRANCH   1  20
TORSDOF 5
ENDMDL
MODEL 8
REMARK VINA RESULT:      -7.8      6.631      7.636
REMARK  Name = 
REMARK  5 active torsions:
REMARK  status: ('A' for Active; 'I' for Inactive)
REMARK    1  A    between atoms: N_1  and  S_2
REMARK    2  A    between atoms: S_2  and  C_5
REMARK    3  A    between atoms: C_8  and  N_9
REMARK    4  A    between atoms: N_12  and  C_13
REMARK    5  A    between atoms: C_15  and  N_16
REMARK                            x       y       z     vdW  Elec       q    Type
REMARK                         _______ _______ _______ _____ _____    ______ ____
ROOT
ATOM      1  N   UNL     1       8.762   8.396  18.997  0.00  0.00    +0.000 N 
ATOM      2  C   UNL     1       7.951   7.786  18.057  0.00  0.00    +0.000 C 
ATOM      3  O   UNL     1       7.397   8.358  17.123  0.00  0.00    +0.000 OA
ATOM      4  N   UNL     1       7.779   6.434  18.291  0.00  0.00    +0.000 N 
ATOM      5  H   UNL     1       9.309   7.786  19.590  0.00  0.00    +0.000 HD
ATOM      6  H   UNL     1       7.711   6.182  19.273  0.00  0.00    +0.000 HD
ENDROOT
BRANCH   4   7
ATOM      7  C   UNL     1       6.950   5.672  17.416  0.00  0.00    +0.000 A 
ATOM      8  C   UNL     1       7.332   5.456  16.082  0.00  0.00    +0.000 A 
ATOM      9  C   UNL     1       6.474   4.780  15.207  0.00  0.00    +0.000 A 
ATOM     10  C   UNL     1       5.239   4.295  15.658  0.00  0.00    +0.000 A 
ATOM     11  C   UNL     1       4.866   4.493  16.991  0.00  0.00    +0.000 A 
ATOM     12  C   UNL     1       5.721   5.169  17.868  0.00  0.00    +0.000 A 
ATOM     13 CL   UNL     1       5.180   5.463  19.483  0.00  0.00    +0.000 Cl
BRANCH   9  14
ATOM     14  N   UNL     1       6.857   4.595  13.800  0.00  0.00    +0.000 N 
ATOM     15  O   UNL     1       6.325   3.670  13.171  0.00  0.00    +0.000 OA
ATOM     16  O   UNL     1       7.685   5.383  13.323  0.00  0.00    +0.000 OA
ENDBRANCH   9  14
ENDBRANCH   4   7
BRANCH   1  20
ATOM     17  C   UNL     1       9.537  12.546  19.144  0.00  0.00    +0.000 A 
ATOM     18  C   UNL     1       9.602  11.803  20.318  0.00  0.00    +0.000 A 
ATOM     19  C   UNL     1       9.357  10.431  20.273  0.00  0.00    +0.000 A 
ATOM     20  C   UNL     1       9.028   9.786  19.073  0.00  0.00    +0.000 A 
ATOM     21  C   UNL     1       8.971  10.545  17.898  0.00  0.00    +0.000 A 
ATOM     22  C   UNL     1       9.223  11.927  17.931  0.00  0.00    +0.000 A 
BRANCH  17  23
ATOM     23  S   UNL     1       9.895  14.272  19.210  0.00  0.00    +0.000 S 
ATOM     24  O   UNL     1       9.024  14.897  20.173  0.00  0.00    +0.000 OA
ATOM     25  O   UNL     1      10.071  14.776  17.868  0.00  0.00    +0.000 OA
BRANCH  23  26
ATOM     26  N   UNL     1      11.436  14.275  19.890  0.00  0.00    +0.000 NA
ATOM     27  H   UNL     1      11.429  13.751  20.766  0.00  0.00    +0.000 HD
ATOM     28  H   UNL     1      11.782  15.229  19.976  0.00  0.00    +0.000 HD
ENDBRANCH  23  26
ENDBRANCH  17  23
ENDBRANCH   1  20
TORSDOF 5
ENDMDL
MODEL 9
REMARK VINA RESULT:      -7.7      1.062      1.108
REMARK  Name = 
REMARK  5 active torsions:
REMARK  status: ('A' for Active; 'I' for Inactive)
REMARK    1  A    between atoms: N_1  and  S_2
REMARK    2  A    between atoms: S_2  and  C_5
REMARK    3  A    between atoms: C_8  and  N_9
REMARK    4  A    between atoms: N_12  and  C_13
REMARK    5  A    between atoms: C_15  and  N_16
REMARK                            x       y       z     vdW  Elec       q    Type
REMARK                         _______ _______ _______ _____ _____    ______ ____
ROOT
ATOM      1  N   UNL     1       1.711   7.830  21.287  0.00  0.00    +0.000 N 
ATOM      2  C   UNL     1       2.131   7.346  20.061  0.00  0.00    +0.000 C 
ATOM      3  O   UNL     1       1.846   7.836  18.972  0.00  0.00    +0.000 OA
ATOM      4  N   UNL     1       2.896   6.199  20.169  0.00  0.00    +0.000 N 
ATOM      5  H   UNL     1       2.173   7.458  22.105  0.00  0.00    +0.000 HD
ATOM      6  H   UNL     1       2.597   5.561  20.900  0.00  0.00    +0.000 HD
ENDROOT
BRANCH   4   7
ATOM      7  C   UNL     1       3.386   5.571  18.986  0.00  0.00    +0.000 A 
ATOM      8  C   UNL     1       4.449   6.139  18.266  0.00  0.00    +0.000 A 
ATOM      9  C   UNL     1       4.868   5.563  17.062  0.00  0.00    +0.000 A 
ATOM     10  C   UNL     1       4.247   4.404  16.576  0.00  0.00    +0.000 A 
ATOM     11  C   UNL     1       3.202   3.826  17.302  0.00  0.00    +0.000 A 
ATOM     12  C   UNL     1       2.779   4.401  18.505  0.00  0.00    +0.000 A 
ATOM     13 CL   UNL     1       1.428   3.699  19.324  0.00  0.00    +0.000 Cl
BRANCH   9  14
ATOM     14  N   UNL     1       5.951   6.186  16.287  0.00  0.00    +0.000 N 
ATOM     15  O   UNL     1       6.703   6.977  16.873  0.00  0.00    +0.000 OA
ATOM     16  O   UNL     1       6.054   5.874  15.093  0.00  0.00    +0.000 OA
ENDBRANCH   9  14
ENDBRANCH   4   7
BRANCH   1  20
ATOM     17  C   UNL     1      -0.914  11.075  21.938  0.00  0.00    +0.000 A 
ATOM     18  C   UNL     1      -0.444  10.832  20.652  0.00  0.00    +0.000 A 
ATOM     19  C   UNL     1       0.414   9.756  20.430  0.00  0.00    +0.000 A 
ATOM     20  C   UNL     1       0.830   8.924  21.479  0.00  0.00    +0.000 A 
ATOM     21  C   UNL     1       0.345   9.176  22.767  0.00  0.00    +0.000 A 
ATOM     22  C   UNL     1      -0.527  10.253  23.000  0.00  0.00    +0.000 A 
BRANCH  17  23
ATOM     23  S   UNL     1      -2.037  12.412  22.194  0.00  0.00    +0.000 S 
ATOM     24  O   UNL     1      -2.889  12.538  21.038  0.00  0.00    +0.000 OA
ATOM     25  O   UNL     1      -1.327  13.528  22.771  0.00  0.00    +0.000 OA
BRANCH  23  26
ATOM     26  N   UNL     1      -3.004  11.812  23.436  0.00  0.00    +0.000 NA
ATOM     27  H   UNL     1      -2.996  12.460  24.225  0.00  0.00    +0.000 HD
ATOM     28  H   UNL     1      -2.726  10.862  23.672  0.00  0.00    +0.000 HD
ENDBRANCH  23  26
ENDBRANCH  17  23
ENDBRANCH   1  20
TORSDOF 5
ENDMDL
