MODEL 1
REMARK VINA RESULT:      -6.7      0.000      0.000
REMARK  Name = 
REMARK  6 active torsions:
REMARK  status: ('A' for Active; 'I' for Inactive)
REMARK    1  A    between atoms: N_6  and  C_7
REMARK    2  A    between atoms: C_7  and  C_8
REMARK    3  A    between atoms: C_9  and  C_10
REMARK    4  A    between atoms: C_10  and  P_11
REMARK    5  A    between atoms: P_11  and  O_13
REMARK    6  A    between atoms: P_11  and  O_14
REMARK                            x       y       z     vdW  Elec       q    Type
REMARK                         _______ _______ _______ _____ _____    ______ ____
ROOT
ATOM      1  O   UNL     1       8.370   7.945  18.345  0.00  0.00    +0.000 OA
ATOM      2  C   UNL     1       7.598   7.084  17.941  0.00  0.00    +0.000 A 
ATOM      3  N   UNL     1       6.746   7.300  16.891  0.00  0.00    +0.000 N 
ATOM      4  C   UNL     1       5.832   6.403  16.380  0.00  0.00    +0.000 A 
ATOM      5  O   UNL     1       5.125   6.728  15.435  0.00  0.00    +0.000 OA
ATOM      6  N   UNL     1       5.795   5.159  17.000  0.00  0.00    +0.000 N 
ATOM      7  C   UNL     1       6.636   4.853  18.059  0.00  0.00    +0.000 A 
ATOM      8  C   UNL     1       7.512   5.736  18.537  0.00  0.00    +0.000 A 
ATOM      9  F   UNL     1       8.345   5.452  19.555  0.00  0.00    +0.000 F 
ATOM     10  H   UNL     1       6.784   8.205  16.449  0.00  0.00    +0.000 HD
ENDROOT
BRANCH   6  11
ATOM     11  C   UNL     1       4.861   4.142  16.492  0.00  0.00    +0.000 C 
BRANCH  11  12
ATOM     12  C   UNL     1       4.346   3.299  17.631  0.00  0.00    +0.000 C 
ATOM     13  C   UNL     1       3.236   3.537  18.357  0.00  0.00    +0.000 C 
BRANCH  13  14
ATOM     14  C   UNL     1       2.870   2.705  19.559  0.00  0.00    +0.000 C 
BRANCH  14  15
ATOM     15  P   UNL     1       1.832   3.448  20.805  0.00  0.00    +0.000 P 
ATOM     16  O   UNL     1       2.123   4.878  21.120  0.00  0.00    +0.000 OA
BRANCH  15  17
ATOM     17  O   UNL     1       0.317   3.235  20.318  0.00  0.00    +0.000 OA
ATOM     18  H   UNL     1       0.162   2.364  19.904  0.00  0.00    +0.000 HD
ENDBRANCH  15  17
BRANCH  15  19
ATOM     19  O   UNL     1       1.860   2.526  22.115  0.00  0.00    +0.000 OA
ATOM     20  H   UNL     1       0.967   2.458  22.506  0.00  0.00    +0.000 HD
ENDBRANCH  15  19
ENDBRANCH  14  15
ENDBRANCH  13  14
ENDBRANCH  11  12
ENDBRANCH   6  11
TORSDOF 6
ENDMDL
MODEL 2
REMARK VINA RESULT:      -6.6      2.695      3.375
REMARK  Name = 
REMARK  6 active torsions:
REMARK  status: ('A' for Active; 'I' for Inactive)
REMARK    1  A    between atoms: N_6  and  C_7
REMARK    2  A    between atoms: C_7  and  C_8
REMARK    3  A    between atoms: C_9  and  C_10
REMARK    4  A    between atoms: C_10  and  P_11
REMARK    5  A    between atoms: P_11  and  O_13
REMARK    6  A    between atoms: P_11  and  O_14
REMARK                            x       y       z     vdW  Elec       q    Type
REMARK                         _______ _______ _______ _____ _____    ______ ____
ROOT
ATOM      1  O   UNL     1       7.389   5.141  14.040  0.00  0.00    +0.000 OA
ATOM      2  C   UNL     1       6.976   5.155  15.194  0.00  0.00    +0.000 A 
ATOM      3  N   UNL     1       7.734   4.722  16.248  0.00  0.00    +0.000 N 
ATOM      4  C   UNL     1       7.350   4.682  17.571  0.00  0.00    +0.000 A 
ATOM      5  O   UNL     1       8.130   4.266  18.418  0.00  0.00    +0.000 OA
ATOM      6  N   UNL     1       6.065   5.140  17.842  0.00  0.00    +0.000 N 
ATOM      7  C   UNL     1       5.238   5.612  16.834  0.00  0.00    +0.000 A 
ATOM      8  C   UNL     1       5.631   5.642  15.561  0.00  0.00    +0.000 A 
ATOM      9  F   UNL     1       4.847   6.108  14.572  0.00  0.00    +0.000 F 
ATOM     10  H   UNL     1       8.664   4.394  16.040  0.00  0.00    +0.000 HD
ENDROOT
BRANCH   6  11
ATOM     11  C   UNL     1       5.596   5.150  19.237  0.00  0.00    +0.000 C 
BRANCH  11  12
ATOM     12  C   UNL     1       4.323   4.349  19.358  0.00  0.00    +0.000 C 
ATOM     13  C   UNL     1       3.220   4.711  20.042  0.00  0.00    +0.000 C 
BRANCH  13  14
ATOM     14  C   UNL     1       2.042   3.786  20.209  0.00  0.00    +0.000 C 
BRANCH  14  15
ATOM     15  P   UNL     1       1.406   2.972  18.755  0.00  0.00    +0.000 P 
ATOM     16  O   UNL     1       1.346   3.809  17.520  0.00  0.00    +0.000 OA
BRANCH  15  17
ATOM     17  O   UNL     1       2.299   1.654  18.547  0.00  0.00    +0.000 OA
ATOM     18  H   UNL     1       2.593   1.527  17.625  0.00  0.00    +0.000 HD
ENDBRANCH  15  17
BRANCH  15  19
ATOM     19  O   UNL     1      -0.015   2.321  19.108  0.00  0.00    +0.000 OA
ATOM     20  H   UNL     1      -0.690   3.018  19.232  0.00  0.00    +0.000 HD
ENDBRANCH  15  19
ENDBRANCH  14  15
ENDBRANCH  13  14
ENDBRANCH  11  12
ENDBRANCH   6  11
TORSDOF 6
ENDMDL
MODEL 3
REMARK VINA RESULT:      -6.5      2.465      3.264
REMARK  Name = 
REMARK  6 active torsions:
REMARK  status: ('A' for Active; 'I' for Inactive)
REMARK    1  A    between atoms: N_6  and  C_7
REMARK    2  A    between atoms: C_7  and  C_8
REMARK    3  A    between atoms: C_9  and  C_10
REMARK    4  A    between atoms: C_10  and  P_11
REMARK    5  A    between atoms: P_11  and  O_13
REMARK    6  A    between atoms: P_11  and  O_14
REMARK                            x       y       z     vdW  Elec       q    Type
REMARK                         _______ _______ _______ _____ _____    ______ ____
ROOT
ATOM      1  O   UNL     1       7.279   5.266  13.930  0.00  0.00    +0.000 OA
ATOM      2  C   UNL     1       6.924   5.256  15.103  0.00  0.00    +0.000 A 
ATOM      3  N   UNL     1       7.687   4.697  16.093  0.00  0.00    +0.000 N 
ATOM      4  C   UNL     1       7.364   4.621  17.431  0.00  0.00    +0.000 A 
ATOM      5  O   UNL     1       8.140   4.087  18.213  0.00  0.00    +0.000 OA
ATOM      6  N   UNL     1       6.145   5.182  17.791  0.00  0.00    +0.000 N 
ATOM      7  C   UNL     1       5.320   5.784  16.853  0.00  0.00    +0.000 A 
ATOM      8  C   UNL     1       5.652   5.847  15.564  0.00  0.00    +0.000 A 
ATOM      9  F   UNL     1       4.871   6.438  14.642  0.00  0.00    +0.000 F 
ATOM     10  H   UNL     1       8.570   4.294  15.819  0.00  0.00    +0.000 HD
ENDROOT
BRANCH   6  11
ATOM     11  C   UNL     1       5.746   5.160  19.208  0.00  0.00    +0.000 C 
BRANCH  11  12
ATOM     12  C   UNL     1       4.522   4.296  19.386  0.00  0.00    +0.000 C 
ATOM     13  C   UNL     1       4.312   3.092  18.820  0.00  0.00    +0.000 C 
BRANCH  13  14
ATOM     14  C   UNL     1       3.002   2.359  18.959  0.00  0.00    +0.000 C 
BRANCH  14  15
ATOM     15  P   UNL     1       1.504   3.245  18.568  0.00  0.00    +0.000 P 
ATOM     16  O   UNL     1       1.556   4.092  17.339  0.00  0.00    +0.000 OA
BRANCH  15  17
ATOM     17  O   UNL     1       0.335   2.148  18.495  0.00  0.00    +0.000 OA
ATOM     18  H   UNL     1       0.222   1.646  19.324  0.00  0.00    +0.000 HD
ENDBRANCH  15  17
BRANCH  15  19
ATOM     19  O   UNL     1       1.051   4.084  19.856  0.00  0.00    +0.000 OA
ATOM     20  H   UNL     1       0.088   3.996  20.001  0.00  0.00    +0.000 HD
ENDBRANCH  15  19
ENDBRANCH  14  15
ENDBRANCH  13  14
ENDBRANCH  11  12
ENDBRANCH   6  11
TORSDOF 6
ENDMDL
MODEL 4
REMARK VINA RESULT:      -6.5      2.041      2.542
REMARK  Name = 
REMARK  6 active torsions:
REMARK  status: ('A' for Active; 'I' for Inactive)
REMARK    1  A    between atoms: N_6  and  C_7
REMARK    2  A    between atoms: C_7  and  C_8
REMARK    3  A    between atoms: C_9  and  C_10
REMARK    4  A    between atoms: C_10  and  P_11
REMARK    5  A    between atoms: P_11  and  O_13
REMARK    6  A    between atoms: P_11  and  O_14
REMARK                            x       y       z     vdW  Elec       q    Type
REMARK                         _______ _______ _______ _____ _____    ______ ____
ROOT
ATOM      1  O   UNL     1       8.536   4.076  17.768  0.00  0.00    +0.000 OA
ATOM      2  C   UNL     1       7.424   4.587  17.719  0.00  0.00    +0.000 A 
ATOM      3  N   UNL     1       6.326   3.906  17.267  0.00  0.00    +0.000 N 
ATOM      4  C   UNL     1       5.043   4.401  17.158  0.00  0.00    +0.000 A 
ATOM      5  O   UNL     1       4.149   3.681  16.731  0.00  0.00    +0.000 OA
ATOM      6  N   UNL     1       4.867   5.719  17.562  0.00  0.00    +0.000 N 
ATOM      7  C   UNL     1       5.924   6.473  18.049  0.00  0.00    +0.000 A 
ATOM      8  C   UNL     1       7.156   5.975  18.146  0.00  0.00    +0.000 A 
ATOM      9  F   UNL     1       8.190   6.687  18.628  0.00  0.00    +0.000 F 
ATOM     10  H   UNL     1       6.465   2.950  16.978  0.00  0.00    +0.000 HD
ENDROOT
BRANCH   6  11
ATOM     11  C   UNL     1       3.519   6.306  17.496  0.00  0.00    +0.000 C 
BRANCH  11  12
ATOM     12  C   UNL     1       2.641   5.702  18.563  0.00  0.00    +0.000 C 
ATOM     13  C   UNL     1       2.840   5.777  19.893  0.00  0.00    +0.000 C 
BRANCH  13  14
ATOM     14  C   UNL     1       1.974   5.034  20.877  0.00  0.00    +0.000 C 
BRANCH  14  15
ATOM     15  P   UNL     1       1.820   3.268  20.685  0.00  0.00    +0.000 P 
ATOM     16  O   UNL     1       2.949   2.593  19.980  0.00  0.00    +0.000 OA
BRANCH  15  17
ATOM     17  O   UNL     1       1.587   2.671  22.157  0.00  0.00    +0.000 OA
ATOM     18  H   UNL     1       2.272   2.940  22.798  0.00  0.00    +0.000 HD
ENDBRANCH  15  17
BRANCH  15  19
ATOM     19  O   UNL     1       0.407   2.946  20.002  0.00  0.00    +0.000 OA
ATOM     20  H   UNL     1       0.422   2.063  19.581  0.00  0.00    +0.000 HD
ENDBRANCH  15  19
ENDBRANCH  14  15
ENDBRANCH  13  14
ENDBRANCH  11  12
ENDBRANCH   6  11
TORSDOF 6
ENDMDL
MODEL 5
REMARK VINA RESULT:      -6.4      3.519      6.318
REMARK  Name = 
REMARK  6 active torsions:
REMARK  status: ('A' for Active; 'I' for Inactive)
REMARK    1  A    between atoms: N_6  and  C_7
REMARK    2  A    between atoms: C_7  and  C_8
REMARK    3  A    between atoms: C_9  and  C_10
REMARK    4  A    between atoms: C_10  and  P_11
REMARK    5  A    between atoms: P_11  and  O_13
REMARK    6  A    between atoms: P_11  and  O_14
REMARK                            x       y       z     vdW  Elec       q    Type
REMARK                         _______ _______ _______ _____ _____    ______ ____
ROOT
ATOM      1  O   UNL     1       1.126   2.712  22.066  0.00  0.00    +0.000 OA
ATOM      2  C   UNL     1       1.573   2.947  20.950  0.00  0.00    +0.000 A 
ATOM      3  N   UNL     1       2.303   2.029  20.245  0.00  0.00    +0.000 N 
ATOM      4  C   UNL     1       2.860   2.209  18.997  0.00  0.00    +0.000 A 
ATOM      5  O   UNL     1       3.496   1.300  18.479  0.00  0.00    +0.000 OA
ATOM      6  N   UNL     1       2.639   3.449  18.410  0.00  0.00    +0.000 N 
ATOM      7  C   UNL     1       1.896   4.430  19.049  0.00  0.00    +0.000 A 
ATOM      8  C   UNL     1       1.365   4.234  20.256  0.00  0.00    +0.000 A 
ATOM      9  F   UNL     1       0.631   5.169  20.885  0.00  0.00    +0.000 F 
ATOM     10  H   UNL     1       2.455   1.132  20.681  0.00  0.00    +0.000 HD
ENDROOT
BRANCH   6  11
ATOM     11  C   UNL     1       3.184   3.705  17.067  0.00  0.00    +0.000 C 
BRANCH  11  12
ATOM     12  C   UNL     1       4.556   4.322  17.175  0.00  0.00    +0.000 C 
ATOM     13  C   UNL     1       4.827   5.633  17.326  0.00  0.00    +0.000 C 
BRANCH  13  14
ATOM     14  C   UNL     1       6.235   6.168  17.299  0.00  0.00    +0.000 C 
BRANCH  14  15
ATOM     15  P   UNL     1       7.336   5.689  18.618  0.00  0.00    +0.000 P 
ATOM     16  O   UNL     1       6.678   5.292  19.898  0.00  0.00    +0.000 OA
BRANCH  15  17
ATOM     17  O   UNL     1       8.265   4.519  18.031  0.00  0.00    +0.000 OA
ATOM     18  H   UNL     1       8.710   3.994  18.723  0.00  0.00    +0.000 HD
ENDBRANCH  15  17
BRANCH  15  19
ATOM     19  O   UNL     1       8.417   6.852  18.835  0.00  0.00    +0.000 OA
ATOM     20  H   UNL     1       8.082   7.520  19.465  0.00  0.00    +0.000 HD
ENDBRANCH  15  19
ENDBRANCH  14  15
ENDBRANCH  13  14
ENDBRANCH  11  12
ENDBRANCH   6  11
TORSDOF 6
ENDMDL
MODEL 6
REMARK VINA RESULT:      -6.4      1.098      1.273
REMARK  Name = 
REMARK  6 active torsions:
REMARK  status: ('A' for Active; 'I' for Inactive)
REMARK    1  A    between atoms: N_6  and  C_7
REMARK    2  A    between atoms: C_7  and  C_8
REMARK    3  A    between atoms: C_9  and  C_10
REMARK    4  A    between atoms: C_10  and  P_11
REMARK    5  A    between atoms: P_11  and  O_13
REMARK    6  A    between atoms: P_11  and  O_14
REMARK                            x       y       z     vdW  Elec       q    Type
REMARK                         _______ _______ _______ _____ _____    ______ ____
ROOT
ATOM      1  O   UNL     1       8.529   8.051  18.479  0.00  0.00    +0.000 OA
ATOM      2  C   UNL     1       7.782   7.174  18.061  0.00  0.00    +0.000 A 
ATOM      3  N   UNL     1       6.925   7.381  17.014  0.00  0.00    +0.000 N 
ATOM      4  C   UNL     1       6.038   6.465  16.489  0.00  0.00    +0.000 A 
ATOM      5  O   UNL     1       5.322   6.784  15.549  0.00  0.00    +0.000 OA
ATOM      6  N   UNL     1       6.036   5.212  17.091  0.00  0.00    +0.000 N 
ATOM      7  C   UNL     1       6.886   4.915  18.146  0.00  0.00    +0.000 A 
ATOM      8  C   UNL     1       7.736   5.815  18.637  0.00  0.00    +0.000 A 
ATOM      9  F   UNL     1       8.576   5.541  19.651  0.00  0.00    +0.000 F 
ATOM     10  H   UNL     1       6.936   8.293  16.585  0.00  0.00    +0.000 HD
ENDROOT
BRANCH   6  11
ATOM     11  C   UNL     1       5.132   4.176  16.567  0.00  0.00    +0.000 C 
BRANCH  11  12
ATOM     12  C   UNL     1       3.936   4.028  17.473  0.00  0.00    +0.000 C 
ATOM     13  C   UNL     1       2.651   3.920  17.080  0.00  0.00    +0.000 C 
BRANCH  13  14
ATOM     14  C   UNL     1       1.511   3.902  18.065  0.00  0.00    +0.000 C 
BRANCH  14  15
ATOM     15  P   UNL     1       1.633   2.801  19.463  0.00  0.00    +0.000 P 
ATOM     16  O   UNL     1       2.803   3.025  20.362  0.00  0.00    +0.000 OA
BRANCH  15  17
ATOM     17  O   UNL     1       0.239   2.913  20.251  0.00  0.00    +0.000 OA
ATOM     18  H   UNL     1      -0.474   3.318  19.722  0.00  0.00    +0.000 HD
ENDBRANCH  15  17
BRANCH  15  19
ATOM     19  O   UNL     1       1.561   1.290  18.936  0.00  0.00    +0.000 OA
ATOM     20  H   UNL     1       0.865   0.793  19.411  0.00  0.00    +0.000 HD
ENDBRANCH  15  19
ENDBRANCH  14  15
ENDBRANCH  13  14
ENDBRANCH  11  12
ENDBRANCH   6  11
TORSDOF 6
ENDMDL
MODEL 7
REMARK VINA RESULT:      -6.4      2.735      3.398
REMARK  Name = 
REMARK  6 active torsions:
REMARK  status: ('A' for Active; 'I' for Inactive)
REMARK    1  A    between atoms: N_6  and  C_7
REMARK    2  A    between atoms: C_7  and  C_8
REMARK    3  A    between atoms: C_9  and  C_10
REMARK    4  A    between atoms: C_10  and  P_11
REMARK    5  A    between atoms: P_11  and  O_13
REMARK    6  A    between atoms: P_11  and  O_14
REMARK                            x       y       z     vdW  Elec       q    Type
REMARK                         _______ _______ _______ _____ _____    ______ ____
ROOT
ATOM      1  O   UNL     1       7.678   5.093  14.534  0.00  0.00    +0.000 OA
ATOM      2  C   UNL     1       7.111   5.171  15.617  0.00  0.00    +0.000 A 
ATOM      3  N   UNL     1       7.761   4.947  16.801  0.00  0.00    +0.000 N 
ATOM      4  C   UNL     1       7.204   4.992  18.062  0.00  0.00    +0.000 A 
ATOM      5  O   UNL     1       7.902   4.766  19.042  0.00  0.00    +0.000 OA
ATOM      6  N   UNL     1       5.852   5.308  18.115  0.00  0.00    +0.000 N 
ATOM      7  C   UNL     1       5.124   5.566  16.963  0.00  0.00    +0.000 A 
ATOM      8  C   UNL     1       5.682   5.517  15.754  0.00  0.00    +0.000 A 
ATOM      9  F   UNL     1       4.995   5.777  14.627  0.00  0.00    +0.000 F 
ATOM     10  H   UNL     1       8.742   4.720  16.750  0.00  0.00    +0.000 HD
ENDROOT
BRANCH   6  11
ATOM     11  C   UNL     1       5.196   5.398  19.429  0.00  0.00    +0.000 C 
BRANCH  11  12
ATOM     12  C   UNL     1       3.765   4.933  19.326  0.00  0.00    +0.000 C 
ATOM     13  C   UNL     1       3.107   4.183  20.231  0.00  0.00    +0.000 C 
BRANCH  13  14
ATOM     14  C   UNL     1       1.716   3.662  19.981  0.00  0.00    +0.000 C 
BRANCH  14  15
ATOM     15  P   UNL     1       1.465   2.590  18.577  0.00  0.00    +0.000 P 
ATOM     16  O   UNL     1       0.134   1.918  18.505  0.00  0.00    +0.000 OA
BRANCH  15  17
ATOM     17  O   UNL     1       1.764   3.476  17.272  0.00  0.00    +0.000 OA
ATOM     18  H   UNL     1       2.660   3.343  16.909  0.00  0.00    +0.000 HD
ENDBRANCH  15  17
BRANCH  15  19
ATOM     19  O   UNL     1       2.673   1.539  18.510  0.00  0.00    +0.000 OA
ATOM     20  H   UNL     1       3.388   1.874  17.933  0.00  0.00    +0.000 HD
ENDBRANCH  15  19
ENDBRANCH  14  15
ENDBRANCH  13  14
ENDBRANCH  11  12
ENDBRANCH   6  11
TORSDOF 6
ENDMDL
MODEL 8
REMARK VINA RESULT:      -6.4      2.478      3.234
REMARK  Name = 
REMARK  6 active torsions:
REMARK  status: ('A' for Active; 'I' for Inactive)
REMARK    1  A    between atoms: N_6  and  C_7
REMARK    2  A    between atoms: C_7  and  C_8
REMARK    3  A    between atoms: C_9  and  C_10
REMARK    4  A    between atoms: C_10  and  P_11
REMARK    5  A    between atoms: P_11  and  O_13
REMARK    6  A    between atoms: P_11  and  O_14
REMARK                            x       y       z     vdW  Elec       q    Type
REMARK                         _______ _______ _______ _____ _____    ______ ____
ROOT
ATOM      1  O   UNL     1       7.636   5.373  14.092  0.00  0.00    +0.000 OA
ATOM      2  C   UNL     1       7.184   5.318  15.230  0.00  0.00    +0.000 A 
ATOM      3  N   UNL     1       7.615   6.148  16.229  0.00  0.00    +0.000 N 
ATOM      4  C   UNL     1       7.181   6.148  17.538  0.00  0.00    +0.000 A 
ATOM      5  O   UNL     1       7.656   6.947  18.335  0.00  0.00    +0.000 OA
ATOM      6  N   UNL     1       6.203   5.211  17.850  0.00  0.00    +0.000 N 
ATOM      7  C   UNL     1       5.700   4.344  16.892  0.00  0.00    +0.000 A 
ATOM      8  C   UNL     1       6.133   4.362  15.632  0.00  0.00    +0.000 A 
ATOM      9  F   UNL     1       5.647   3.538  14.687  0.00  0.00    +0.000 F 
ATOM     10  H   UNL     1       8.323   6.825  15.990  0.00  0.00    +0.000 HD
ENDROOT
BRANCH   6  11
ATOM     11  C   UNL     1       5.675   5.169  19.223  0.00  0.00    +0.000 C 
BRANCH  11  12
ATOM     12  C   UNL     1       4.421   4.333  19.269  0.00  0.00    +0.000 C 
ATOM     13  C   UNL     1       3.280   4.647  19.913  0.00  0.00    +0.000 C 
BRANCH  13  14
ATOM     14  C   UNL     1       2.121   3.688  20.004  0.00  0.00    +0.000 C 
BRANCH  14  15
ATOM     15  P   UNL     1       1.599   2.864  18.511  0.00  0.00    +0.000 P 
ATOM     16  O   UNL     1       2.568   1.881  17.943  0.00  0.00    +0.000 OA
BRANCH  15  17
ATOM     17  O   UNL     1       0.179   2.191  18.837  0.00  0.00    +0.000 OA
ATOM     18  H   UNL     1      -0.475   2.820  19.195  0.00  0.00    +0.000 HD
ENDBRANCH  15  17
BRANCH  15  19
ATOM     19  O   UNL     1       1.168   3.971  17.436  0.00  0.00    +0.000 OA
ATOM     20  H   UNL     1       1.001   3.558  16.566  0.00  0.00    +0.000 HD
ENDBRANCH  15  19
ENDBRANCH  14  15
ENDBRANCH  13  14
ENDBRANCH  11  12
ENDBRANCH   6  11
TORSDOF 6
ENDMDL
MODEL 9
REMARK VINA RESULT:      -6.4      3.691      6.538
REMARK  Name = 
REMARK  6 active torsions:
REMARK  status: ('A' for Active; 'I' for Inactive)
REMARK    1  A    between atoms: N_6  and  C_7
REMARK    2  A    between atoms: C_7  and  C_8
REMARK    3  A    between atoms: C_9  and  C_10
REMARK    4  A    between atoms: C_10  and  P_11
REMARK    5  A    between atoms: P_11  and  O_13
REMARK    6  A    between atoms: P_11  and  O_14
REMARK                            x       y       z     vdW  Elec       q    Type
REMARK                         _______ _______ _______ _____ _____    ______ ____
ROOT
ATOM      1  O   UNL     1       1.474   2.236  21.957  0.00  0.00    +0.000 OA
ATOM      2  C   UNL     1       1.661   3.066  21.075  0.00  0.00    +0.000 A 
ATOM      3  N   UNL     1       1.714   4.409  21.332  0.00  0.00    +0.000 N 
ATOM      4  C   UNL     1       1.900   5.414  20.407  0.00  0.00    +0.000 A 
ATOM      5  O   UNL     1       1.923   6.582  20.775  0.00  0.00    +0.000 OA
ATOM      6  N   UNL     1       2.057   5.000  19.089  0.00  0.00    +0.000 N 
ATOM      7  C   UNL     1       2.034   3.657  18.745  0.00  0.00    +0.000 A 
ATOM      8  C   UNL     1       1.853   2.702  19.656  0.00  0.00    +0.000 A 
ATOM      9  F   UNL     1       1.841   1.394  19.343  0.00  0.00    +0.000 F 
ATOM     10  H   UNL     1       1.600   4.697  22.292  0.00  0.00    +0.000 HD
ENDROOT
BRANCH   6  11
ATOM     11  C   UNL     1       2.285   6.017  18.050  0.00  0.00    +0.000 C 
BRANCH  11  12
ATOM     12  C   UNL     1       3.762   6.281  17.900  0.00  0.00    +0.000 C 
ATOM     13  C   UNL     1       4.522   5.960  16.835  0.00  0.00    +0.000 C 
BRANCH  13  14
ATOM     14  C   UNL     1       6.017   6.152  16.829  0.00  0.00    +0.000 C 
BRANCH  14  15
ATOM     15  P   UNL     1       7.033   4.779  16.318  0.00  0.00    +0.000 P 
ATOM     16  O   UNL     1       8.084   4.355  17.290  0.00  0.00    +0.000 OA
BRANCH  15  17
ATOM     17  O   UNL     1       6.028   3.580  15.958  0.00  0.00    +0.000 OA
ATOM     18  H   UNL     1       6.304   3.064  15.177  0.00  0.00    +0.000 HD
ENDBRANCH  15  17
BRANCH  15  19
ATOM     19  O   UNL     1       7.646   5.102  14.873  0.00  0.00    +0.000 OA
ATOM     20  H   UNL     1       8.616   5.209  14.928  0.00  0.00    +0.000 HD
ENDBRANCH  15  19
ENDBRANCH  14  15
ENDBRANCH  13  14
ENDBRANCH  11  12
ENDBRANCH   6  11
TORSDOF 6
ENDMDL
