MODEL 1
REMARK VINA RESULT:      -7.9      0.000      0.000
REMARK  Name = 
REMARK  6 active torsions:
REMARK  status: ('A' for Active; 'I' for Inactive)
REMARK    1  A    between atoms: C_1  and  O_2
REMARK    2  A    between atoms: O_2  and  C_3
REMARK    3  A    between atoms: C_6  and  C_7
REMARK    4  A    between atoms: C_10  and  C_11
REMARK    5  A    between atoms: C_22  and  O_23
REMARK    6  A    between atoms: O_23  and  C_24
REMARK                            x       y       z     vdW  Elec       q    Type
REMARK                         _______ _______ _______ _____ _____    ______ ____
ROOT
ATOM      1  C   UNL     1       2.370   6.623  19.657  0.00  0.00    +0.000 A 
ATOM      2  N   UNL     1       3.259   6.249  18.777  0.00  0.00    +0.000 NA
ATOM      3  N   UNL     1       3.477   4.927  19.002  0.00  0.00    +0.000 N 
ATOM      4  C   UNL     1       4.272   3.975  18.415  0.00  0.00    +0.000 A 
ATOM      5  N   UNL     1       4.004   2.812  19.011  0.00  0.00    +0.000 NA
ATOM      6  N   UNL     1       3.064   3.021  20.020  0.00  0.00    +0.000 NA
ATOM      7  C   UNL     1       2.788   4.292  19.975  0.00  0.00    +0.000 A 
ATOM      8  S   UNL     1       1.764   5.387  20.792  0.00  0.00    +0.000 S 
ENDROOT
BRANCH   1  12
ATOM      9  C   UNL     1       0.635  10.518  19.970  0.00  0.00    +0.000 A 
ATOM     10  C   UNL     1       1.063  10.044  18.718  0.00  0.00    +0.000 A 
ATOM     11  C   UNL     1       1.657   8.788  18.587  0.00  0.00    +0.000 A 
ATOM     12  C   UNL     1       1.861   8.006  19.722  0.00  0.00    +0.000 A 
ATOM     13  C   UNL     1       1.519   8.514  20.979  0.00  0.00    +0.000 A 
ATOM     14  C   UNL     1       0.923   9.774  21.123  0.00  0.00    +0.000 A 
BRANCH   9  16
ATOM     15  C   UNL     1      -1.436  11.628  19.763  0.00  0.00    +0.000 C 
ATOM     16  O   UNL     1      -0.042  11.703  20.072  0.00  0.00    +0.000 OA
ENDBRANCH   9  16
BRANCH  14  17
ATOM     17  O   UNL     1       0.677  10.074  22.433  0.00  0.00    +0.000 OA
ATOM     18  C   UNL     1      -0.555   9.683  23.015  0.00  0.00    +0.000 C 
ENDBRANCH  14  17
ENDBRANCH   1  12
BRANCH   4  19
ATOM     19  C   UNL     1       5.210   4.210  17.320  0.00  0.00    +0.000 A 
ATOM     20  C   UNL     1       4.816   4.111  15.976  0.00  0.00    +0.000 A 
ATOM     21  C   UNL     1       5.730   4.343  14.943  0.00  0.00    +0.000 A 
ATOM     22  C   UNL     1       7.047   4.679  15.244  0.00  0.00    +0.000 A 
ATOM     23  C   UNL     1       7.452   4.786  16.574  0.00  0.00    +0.000 A 
ATOM     24  C   UNL     1       6.537   4.557  17.605  0.00  0.00    +0.000 A 
ENDBRANCH   4  19
TORSDOF 4
ENDMDL
MODEL 2
REMARK VINA RESULT:      -7.7      0.491      1.124
REMARK  Name = 
REMARK  6 active torsions:
REMARK  status: ('A' for Active; 'I' for Inactive)
REMARK    1  A    between atoms: C_1  and  O_2
REMARK    2  A    between atoms: O_2  and  C_3
REMARK    3  A    between atoms: C_6  and  C_7
REMARK    4  A    between atoms: C_10  and  C_11
REMARK    5  A    between atoms: C_22  and  O_23
REMARK    6  A    between atoms: O_23  and  C_24
REMARK                            x       y       z     vdW  Elec       q    Type
REMARK                         _______ _______ _______ _____ _____    ______ ____
ROOT
ATOM      1  C   UNL     1       2.373   6.619  19.683  0.00  0.00    +0.000 A 
ATOM      2  N   UNL     1       3.264   6.253  18.802  0.00  0.00    +0.000 NA
ATOM      3  N   UNL     1       3.476   4.928  19.010  0.00  0.00    +0.000 N 
ATOM      4  C   UNL     1       4.269   3.980  18.414  0.00  0.00    +0.000 A 
ATOM      5  N   UNL     1       3.993   2.810  18.993  0.00  0.00    +0.000 NA
ATOM      6  N   UNL     1       3.049   3.010  20.000  0.00  0.00    +0.000 NA
ATOM      7  C   UNL     1       2.779   4.283  19.972  0.00  0.00    +0.000 A 
ATOM      8  S   UNL     1       1.757   5.371  20.798  0.00  0.00    +0.000 S 
ENDROOT
BRANCH   1  12
ATOM      9  C   UNL     1       0.655  10.518  20.042  0.00  0.00    +0.000 A 
ATOM     10  C   UNL     1       1.083  10.057  18.785  0.00  0.00    +0.000 A 
ATOM     11  C   UNL     1       1.672   8.801  18.639  0.00  0.00    +0.000 A 
ATOM     12  C   UNL     1       1.870   8.003  19.764  0.00  0.00    +0.000 A 
ATOM     13  C   UNL     1       1.528   8.497  21.028  0.00  0.00    +0.000 A 
ATOM     14  C   UNL     1       0.938   9.758  21.186  0.00  0.00    +0.000 A 
BRANCH   9  16
ATOM     15  C   UNL     1       0.805  12.834  20.456  0.00  0.00    +0.000 C 
ATOM     16  O   UNL     1      -0.017  11.704  20.158  0.00  0.00    +0.000 OA
ENDBRANCH   9  16
BRANCH  14  17
ATOM     17  O   UNL     1       0.690  10.043  22.500  0.00  0.00    +0.000 OA
ATOM     18  C   UNL     1      -0.478   9.528  23.113  0.00  0.00    +0.000 C 
ENDBRANCH  14  17
ENDBRANCH   1  12
BRANCH   4  19
ATOM     19  C   UNL     1       5.213   4.225  17.326  0.00  0.00    +0.000 A 
ATOM     20  C   UNL     1       6.556   4.551  17.574  0.00  0.00    +0.000 A 
ATOM     21  C   UNL     1       7.444   4.779  16.518  0.00  0.00    +0.000 A 
ATOM     22  C   UNL     1       6.998   4.682  15.203  0.00  0.00    +0.000 A 
ATOM     23  C   UNL     1       5.668   4.354  14.941  0.00  0.00    +0.000 A 
ATOM     24  C   UNL     1       4.783   4.123  15.997  0.00  0.00    +0.000 A 
ENDBRANCH   4  19
TORSDOF 4
ENDMDL
MODEL 3
REMARK VINA RESULT:      -7.7      3.675      5.929
REMARK  Name = 
REMARK  6 active torsions:
REMARK  status: ('A' for Active; 'I' for Inactive)
REMARK    1  A    between atoms: C_1  and  O_2
REMARK    2  A    between atoms: O_2  and  C_3
REMARK    3  A    between atoms: C_6  and  C_7
REMARK    4  A    between atoms: C_10  and  C_11
REMARK    5  A    between atoms: C_22  and  O_23
REMARK    6  A    between atoms: O_23  and  C_24
REMARK                            x       y       z     vdW  Elec       q    Type
REMARK                         _______ _______ _______ _____ _____    ______ ____
ROOT
ATOM      1  C   UNL     1       4.652   4.460  16.927  0.00  0.00    +0.000 A 
ATOM      2  N   UNL     1       4.790   3.966  15.726  0.00  0.00    +0.000 NA
ATOM      3  N   UNL     1       5.888   4.566  15.197  0.00  0.00    +0.000 N 
ATOM      4  C   UNL     1       6.549   4.466  13.998  0.00  0.00    +0.000 A 
ATOM      5  N   UNL     1       7.629   5.245  14.076  0.00  0.00    +0.000 NA
ATOM      6  N   UNL     1       7.643   5.886  15.315  0.00  0.00    +0.000 NA
ATOM      7  C   UNL     1       6.587   5.453  15.939  0.00  0.00    +0.000 A 
ATOM      8  S   UNL     1       5.847   5.670  17.462  0.00  0.00    +0.000 S 
ENDROOT
BRANCH   1  12
ATOM      9  C   UNL     1       1.682   3.316  19.782  0.00  0.00    +0.000 A 
ATOM     10  C   UNL     1       2.135   2.381  18.835  0.00  0.00    +0.000 A 
ATOM     11  C   UNL     1       3.084   2.731  17.873  0.00  0.00    +0.000 A 
ATOM     12  C   UNL     1       3.564   4.039  17.829  0.00  0.00    +0.000 A 
ATOM     13  C   UNL     1       3.047   4.992  18.713  0.00  0.00    +0.000 A 
ATOM     14  C   UNL     1       2.093   4.652  19.682  0.00  0.00    +0.000 A 
BRANCH   9  16
ATOM     15  C   UNL     1       1.477   2.519  21.993  0.00  0.00    +0.000 C 
ATOM     16  O   UNL     1       0.834   2.935  20.786  0.00  0.00    +0.000 OA
ENDBRANCH   9  16
BRANCH  14  17
ATOM     17  O   UNL     1       1.723   5.733  20.433  0.00  0.00    +0.000 OA
ATOM     18  C   UNL     1       2.145   7.027  20.041  0.00  0.00    +0.000 C 
ENDBRANCH  14  17
ENDBRANCH   1  12
BRANCH   4  19
ATOM     19  C   UNL     1       6.141   3.632  12.871  0.00  0.00    +0.000 A 
ATOM     20  C   UNL     1       7.049   2.793  12.207  0.00  0.00    +0.000 A 
ATOM     21  C   UNL     1       6.637   1.999  11.132  0.00  0.00    +0.000 A 
ATOM     22  C   UNL     1       5.310   2.037  10.710  0.00  0.00    +0.000 A 
ATOM     23  C   UNL     1       4.395   2.861  11.363  0.00  0.00    +0.000 A 
ATOM     24  C   UNL     1       4.808   3.651  12.439  0.00  0.00    +0.000 A 
ENDBRANCH   4  19
TORSDOF 4
ENDMDL
MODEL 4
REMARK VINA RESULT:      -7.5      3.646      5.862
REMARK  Name = 
REMARK  6 active torsions:
REMARK  status: ('A' for Active; 'I' for Inactive)
REMARK    1  A    between atoms: C_1  and  O_2
REMARK    2  A    between atoms: O_2  and  C_3
REMARK    3  A    between atoms: C_6  and  C_7
REMARK    4  A    between atoms: C_10  and  C_11
REMARK    5  A    between atoms: C_22  and  O_23
REMARK    6  A    between atoms: O_23  and  C_24
REMARK                            x       y       z     vdW  Elec       q    Type
REMARK                         _______ _______ _______ _____ _____    ______ ____
ROOT
ATOM      1  C   UNL     1       4.949   4.610  16.967  0.00  0.00    +0.000 A 
ATOM      2  N   UNL     1       4.910   4.091  15.769  0.00  0.00    +0.000 NA
ATOM      3  N   UNL     1       5.995   4.578  15.114  0.00  0.00    +0.000 N 
ATOM      4  C   UNL     1       6.511   4.402  13.853  0.00  0.00    +0.000 A 
ATOM      5  N   UNL     1       7.661   5.076  13.799  0.00  0.00    +0.000 NA
ATOM      6  N   UNL     1       7.868   5.728  15.014  0.00  0.00    +0.000 NA
ATOM      7  C   UNL     1       6.850   5.404  15.757  0.00  0.00    +0.000 A 
ATOM      8  S   UNL     1       6.303   5.708  17.345  0.00  0.00    +0.000 S 
ENDROOT
BRANCH   1  12
ATOM      9  C   UNL     1       2.168   3.887  20.132  0.00  0.00    +0.000 A 
ATOM     10  C   UNL     1       2.752   2.802  19.456  0.00  0.00    +0.000 A 
ATOM     11  C   UNL     1       3.643   3.005  18.402  0.00  0.00    +0.000 A 
ATOM     12  C   UNL     1       3.931   4.304  17.989  0.00  0.00    +0.000 A 
ATOM     13  C   UNL     1       3.281   5.381  18.601  0.00  0.00    +0.000 A 
ATOM     14  C   UNL     1       2.384   5.190  19.660  0.00  0.00    +0.000 A 
BRANCH   9  16
ATOM     15  C   UNL     1       1.517   2.393  21.837  0.00  0.00    +0.000 C 
ATOM     16  O   UNL     1       1.380   3.681  21.232  0.00  0.00    +0.000 OA
ENDBRANCH   9  16
BRANCH  14  17
ATOM     17  O   UNL     1       1.861   6.372  20.105  0.00  0.00    +0.000 OA
ATOM     18  C   UNL     1       2.206   7.576  19.442  0.00  0.00    +0.000 C 
ENDBRANCH  14  17
ENDBRANCH   1  12
BRANCH   4  19
ATOM     19  C   UNL     1       5.908   3.597  12.794  0.00  0.00    +0.000 A 
ATOM     20  C   UNL     1       4.635   3.889  12.279  0.00  0.00    +0.000 A 
ATOM     21  C   UNL     1       4.078   3.108  11.263  0.00  0.00    +0.000 A 
ATOM     22  C   UNL     1       4.788   2.025  10.750  0.00  0.00    +0.000 A 
ATOM     23  C   UNL     1       6.056   1.726  11.248  0.00  0.00    +0.000 A 
ATOM     24  C   UNL     1       6.613   2.510  12.261  0.00  0.00    +0.000 A 
ENDBRANCH   4  19
TORSDOF 4
ENDMDL
MODEL 5
REMARK VINA RESULT:      -7.2      5.036      6.564
REMARK  Name = 
REMARK  6 active torsions:
REMARK  status: ('A' for Active; 'I' for Inactive)
REMARK    1  A    between atoms: C_1  and  O_2
REMARK    2  A    between atoms: O_2  and  C_3
REMARK    3  A    between atoms: C_6  and  C_7
REMARK    4  A    between atoms: C_10  and  C_11
REMARK    5  A    between atoms: C_22  and  O_23
REMARK    6  A    between atoms: O_23  and  C_24
REMARK                            x       y       z     vdW  Elec       q    Type
REMARK                         _______ _______ _______ _____ _____    ______ ____
ROOT
ATOM      1  C   UNL     1       4.938   4.365  16.977  0.00  0.00    +0.000 A 
ATOM      2  N   UNL     1       4.947   3.889  15.761  0.00  0.00    +0.000 NA
ATOM      3  N   UNL     1       5.992   4.486  15.131  0.00  0.00    +0.000 N 
ATOM      4  C   UNL     1       6.526   4.398  13.869  0.00  0.00    +0.000 A 
ATOM      5  N   UNL     1       7.618   5.164  13.847  0.00  0.00    +0.000 NA
ATOM      6  N   UNL     1       7.765   5.786  15.087  0.00  0.00    +0.000 NA
ATOM      7  C   UNL     1       6.774   5.354  15.810  0.00  0.00    +0.000 A 
ATOM      8  S   UNL     1       6.197   5.555  17.404  0.00  0.00    +0.000 S 
ENDROOT
BRANCH   1  12
ATOM      9  C   UNL     1       2.158   2.844  19.846  0.00  0.00    +0.000 A 
ATOM     10  C   UNL     1       1.688   3.565  18.734  0.00  0.00    +0.000 A 
ATOM     11  C   UNL     1       2.571   4.097  17.794  0.00  0.00    +0.000 A 
ATOM     12  C   UNL     1       3.944   3.941  17.980  0.00  0.00    +0.000 A 
ATOM     13  C   UNL     1       4.415   3.303  19.132  0.00  0.00    +0.000 A 
ATOM     14  C   UNL     1       3.537   2.767  20.083  0.00  0.00    +0.000 A 
BRANCH   9  16
ATOM     15  C   UNL     1       1.287   2.753  22.036  0.00  0.00    +0.000 C 
ATOM     16  O   UNL     1       1.281   2.237  20.703  0.00  0.00    +0.000 OA
ENDBRANCH   9  16
BRANCH  14  17
ATOM     17  O   UNL     1       4.207   2.194  21.129  0.00  0.00    +0.000 OA
ATOM     18  C   UNL     1       5.162   1.180  20.869  0.00  0.00    +0.000 C 
ENDBRANCH  14  17
ENDBRANCH   1  12
BRANCH   4  19
ATOM     19  C   UNL     1       5.995   3.586  12.778  0.00  0.00    +0.000 A 
ATOM     20  C   UNL     1       6.760   2.581  12.166  0.00  0.00    +0.000 A 
ATOM     21  C   UNL     1       6.231   1.812  11.124  0.00  0.00    +0.000 A 
ATOM     22  C   UNL     1       4.930   2.040  10.685  0.00  0.00    +0.000 A 
ATOM     23  C   UNL     1       4.155   3.031  11.287  0.00  0.00    +0.000 A 
ATOM     24  C   UNL     1       4.684   3.796  12.329  0.00  0.00    +0.000 A 
ENDBRANCH   4  19
TORSDOF 4
ENDMDL
MODEL 6
REMARK VINA RESULT:      -7.2      0.870      2.132
REMARK  Name = 
REMARK  6 active torsions:
REMARK  status: ('A' for Active; 'I' for Inactive)
REMARK    1  A    between atoms: C_1  and  O_2
REMARK    2  A    between atoms: O_2  and  C_3
REMARK    3  A    between atoms: C_6  and  C_7
REMARK    4  A    between atoms: C_10  and  C_11
REMARK    5  A    between atoms: C_22  and  O_23
REMARK    6  A    between atoms: O_23  and  C_24
REMARK                            x       y       z     vdW  Elec       q    Type
REMARK                         _______ _______ _______ _____ _____    ______ ____
ROOT
ATOM      1  C   UNL     1       2.341   6.196  19.919  0.00  0.00    +0.000 A 
ATOM      2  N   UNL     1       3.224   5.960  18.986  0.00  0.00    +0.000 NA
ATOM      3  N   UNL     1       3.564   4.652  19.113  0.00  0.00    +0.000 N 
ATOM      4  C   UNL     1       4.415   3.813  18.436  0.00  0.00    +0.000 A 
ATOM      5  N   UNL     1       4.271   2.595  18.960  0.00  0.00    +0.000 NA
ATOM      6  N   UNL     1       3.356   2.654  20.011  0.00  0.00    +0.000 NA
ATOM      7  C   UNL     1       2.970   3.896  20.063  0.00  0.00    +0.000 A 
ATOM      8  S   UNL     1       1.889   4.841  20.986  0.00  0.00    +0.000 S 
ENDROOT
BRANCH   1  12
ATOM      9  C   UNL     1       0.817  10.164  20.379  0.00  0.00    +0.000 A 
ATOM     10  C   UNL     1       0.648   9.228  21.414  0.00  0.00    +0.000 A 
ATOM     11  C   UNL     1       1.111   7.918  21.284  0.00  0.00    +0.000 A 
ATOM     12  C   UNL     1       1.719   7.522  20.094  0.00  0.00    +0.000 A 
ATOM     13  C   UNL     1       1.806   8.426  19.031  0.00  0.00    +0.000 A 
ATOM     14  C   UNL     1       1.344   9.743  19.150  0.00  0.00    +0.000 A 
BRANCH   9  16
ATOM     15  C   UNL     1      -0.916  11.761  20.282  0.00  0.00    +0.000 C 
ATOM     16  O   UNL     1       0.457  11.472  20.557  0.00  0.00    +0.000 OA
ENDBRANCH   9  16
BRANCH  14  17
ATOM     17  O   UNL     1       1.522  10.452  17.994  0.00  0.00    +0.000 OA
ATOM     18  C   UNL     1       2.401  11.563  17.990  0.00  0.00    +0.000 C 
ENDBRANCH  14  17
ENDBRANCH   1  12
BRANCH   4  19
ATOM     19  C   UNL     1       5.285   4.201  17.329  0.00  0.00    +0.000 A 
ATOM     20  C   UNL     1       6.616   4.595  17.540  0.00  0.00    +0.000 A 
ATOM     21  C   UNL     1       7.434   4.959  16.466  0.00  0.00    +0.000 A 
ATOM     22  C   UNL     1       6.929   4.932  15.169  0.00  0.00    +0.000 A 
ATOM     23  C   UNL     1       5.611   4.538  14.943  0.00  0.00    +0.000 A 
ATOM     24  C   UNL     1       4.796   4.171  16.017  0.00  0.00    +0.000 A 
ENDBRANCH   4  19
TORSDOF 4
ENDMDL
MODEL 7
REMARK VINA RESULT:      -7.2      0.827      1.293
REMARK  Name = 
REMARK  6 active torsions:
REMARK  status: ('A' for Active; 'I' for Inactive)
REMARK    1  A    between atoms: C_1  and  O_2
REMARK    2  A    between atoms: O_2  and  C_3
REMARK    3  A    between atoms: C_6  and  C_7
REMARK    4  A    between atoms: C_10  and  C_11
REMARK    5  A    between atoms: C_22  and  O_23
REMARK    6  A    between atoms: O_23  and  C_24
REMARK                            x       y       z     vdW  Elec       q    Type
REMARK                         _______ _______ _______ _____ _____    ______ ____
ROOT
ATOM      1  C   UNL     1       2.379   6.956  19.341  0.00  0.00    +0.000 A 
ATOM      2  N   UNL     1       3.274   6.498  18.508  0.00  0.00    +0.000 NA
ATOM      3  N   UNL     1       3.546   5.229  18.910  0.00  0.00    +0.000 N 
ATOM      4  C   UNL     1       4.372   4.235  18.448  0.00  0.00    +0.000 A 
ATOM      5  N   UNL     1       4.156   3.157  19.203  0.00  0.00    +0.000 NA
ATOM      6  N   UNL     1       3.217   3.468  20.187  0.00  0.00    +0.000 NA
ATOM      7  C   UNL     1       2.891   4.710  19.972  0.00  0.00    +0.000 A 
ATOM      8  S   UNL     1       1.833   5.868  20.644  0.00  0.00    +0.000 S 
ENDROOT
BRANCH   1  12
ATOM      9  C   UNL     1       0.468  10.764  18.983  0.00  0.00    +0.000 A 
ATOM     10  C   UNL     1       1.445  10.384  18.047  0.00  0.00    +0.000 A 
ATOM     11  C   UNL     1       2.106   9.159  18.152  0.00  0.00    +0.000 A 
ATOM     12  C   UNL     1       1.817   8.315  19.222  0.00  0.00    +0.000 A 
ATOM     13  C   UNL     1       0.912   8.732  20.204  0.00  0.00    +0.000 A 
ATOM     14  C   UNL     1       0.243   9.959  20.109  0.00  0.00    +0.000 A 
BRANCH   9  16
ATOM     15  C   UNL     1      -1.495  11.755  18.130  0.00  0.00    +0.000 C 
ATOM     16  O   UNL     1      -0.249  11.917  18.812  0.00  0.00    +0.000 OA
ENDBRANCH   9  16
BRANCH  14  17
ATOM     17  O   UNL     1      -0.589  10.169  21.173  0.00  0.00    +0.000 OA
ATOM     18  C   UNL     1      -0.188  11.055  22.204  0.00  0.00    +0.000 C 
ENDBRANCH  14  17
ENDBRANCH   1  12
BRANCH   4  19
ATOM     19  C   UNL     1       5.290   4.352  17.318  0.00  0.00    +0.000 A 
ATOM     20  C   UNL     1       6.644   4.677  17.497  0.00  0.00    +0.000 A 
ATOM     21  C   UNL     1       7.506   4.780  16.401  0.00  0.00    +0.000 A 
ATOM     22  C   UNL     1       7.023   4.558  15.114  0.00  0.00    +0.000 A 
ATOM     23  C   UNL     1       5.682   4.229  14.921  0.00  0.00    +0.000 A 
ATOM     24  C   UNL     1       4.823   4.123  16.017  0.00  0.00    +0.000 A 
ENDBRANCH   4  19
TORSDOF 4
ENDMDL
MODEL 8
REMARK VINA RESULT:      -7.1      3.599      8.309
REMARK  Name = 
REMARK  6 active torsions:
REMARK  status: ('A' for Active; 'I' for Inactive)
REMARK    1  A    between atoms: C_1  and  O_2
REMARK    2  A    between atoms: O_2  and  C_3
REMARK    3  A    between atoms: C_6  and  C_7
REMARK    4  A    between atoms: C_10  and  C_11
REMARK    5  A    between atoms: C_22  and  O_23
REMARK    6  A    between atoms: O_23  and  C_24
REMARK                            x       y       z     vdW  Elec       q    Type
REMARK                         _______ _______ _______ _____ _____    ______ ____
ROOT
ATOM      1  C   UNL     1       2.438   7.244  19.187  0.00  0.00    +0.000 A 
ATOM      2  N   UNL     1       1.678   7.954  19.976  0.00  0.00    +0.000 NA
ATOM      3  N   UNL     1       1.505   9.149  19.355  0.00  0.00    +0.000 N 
ATOM      4  C   UNL     1       0.812  10.295  19.660  0.00  0.00    +0.000 A 
ATOM      5  N   UNL     1       0.938  11.122  18.621  0.00  0.00    +0.000 NA
ATOM      6  N   UNL     1       1.754  10.527  17.659  0.00  0.00    +0.000 NA
ATOM      7  C   UNL     1       2.067   9.362  18.145  0.00  0.00    +0.000 A 
ATOM      8  S   UNL     1       2.973   7.998  17.662  0.00  0.00    +0.000 S 
ENDROOT
BRANCH   1  12
ATOM      9  C   UNL     1       3.663   3.200  19.839  0.00  0.00    +0.000 A 
ATOM     10  C   UNL     1       2.388   3.618  20.257  0.00  0.00    +0.000 A 
ATOM     11  C   UNL     1       1.968   4.938  20.083  0.00  0.00    +0.000 A 
ATOM     12  C   UNL     1       2.842   5.864  19.516  0.00  0.00    +0.000 A 
ATOM     13  C   UNL     1       4.142   5.471  19.184  0.00  0.00    +0.000 A 
ATOM     14  C   UNL     1       4.574   4.149  19.356  0.00  0.00    +0.000 A 
BRANCH   9  16
ATOM     15  C   UNL     1       3.825   1.132  18.717  0.00  0.00    +0.000 C 
ATOM     16  O   UNL     1       4.024   1.882  19.917  0.00  0.00    +0.000 OA
ENDBRANCH   9  16
BRANCH  14  17
ATOM     17  O   UNL     1       5.876   3.985  18.972  0.00  0.00    +0.000 OA
ATOM     18  C   UNL     1       6.394   4.777  17.917  0.00  0.00    +0.000 C 
ENDBRANCH  14  17
ENDBRANCH   1  12
BRANCH   4  19
ATOM     19  C   UNL     1       0.059  10.529  20.889  0.00  0.00    +0.000 A 
ATOM     20  C   UNL     1       0.210   9.706  22.016  0.00  0.00    +0.000 A 
ATOM     21  C   UNL     1      -0.518   9.950  23.184  0.00  0.00    +0.000 A 
ATOM     22  C   UNL     1      -1.406  11.022  23.238  0.00  0.00    +0.000 A 
ATOM     23  C   UNL     1      -1.563  11.851  22.128  0.00  0.00    +0.000 A 
ATOM     24  C   UNL     1      -0.832  11.608  20.963  0.00  0.00    +0.000 A 
ENDBRANCH   4  19
TORSDOF 4
ENDMDL
MODEL 9
REMARK VINA RESULT:      -7.0      3.504      7.404
REMARK  Name = 
REMARK  6 active torsions:
REMARK  status: ('A' for Active; 'I' for Inactive)
REMARK    1  A    between atoms: C_1  and  O_2
REMARK    2  A    between atoms: O_2  and  C_3
REMARK    3  A    between atoms: C_6  and  C_7
REMARK    4  A    between atoms: C_10  and  C_11
REMARK    5  A    between atoms: C_22  and  O_23
REMARK    6  A    between atoms: O_23  and  C_24
REMARK                            x       y       z     vdW  Elec       q    Type
REMARK                         _______ _______ _______ _____ _____    ______ ____
ROOT
ATOM      1  C   UNL     1       4.267   4.457  18.092  0.00  0.00    +0.000 A 
ATOM      2  N   UNL     1       3.618   5.494  18.550  0.00  0.00    +0.000 NA
ATOM      3  N   UNL     1       2.796   5.023  19.523  0.00  0.00    +0.000 N 
ATOM      4  C   UNL     1       1.889   5.605  20.374  0.00  0.00    +0.000 A 
ATOM      5  N   UNL     1       1.436   4.647  21.184  0.00  0.00    +0.000 NA
ATOM      6  N   UNL     1       2.018   3.431  20.826  0.00  0.00    +0.000 NA
ATOM      7  C   UNL     1       2.813   3.709  19.834  0.00  0.00    +0.000 A 
ATOM      8  S   UNL     1       3.905   2.872  18.824  0.00  0.00    +0.000 S 
ENDROOT
BRANCH   1  12
ATOM      9  C   UNL     1       7.080   5.073  14.932  0.00  0.00    +0.000 A 
ATOM     10  C   UNL     1       6.193   3.984  14.874  0.00  0.00    +0.000 A 
ATOM     11  C   UNL     1       5.282   3.740  15.902  0.00  0.00    +0.000 A 
ATOM     12  C   UNL     1       5.274   4.571  17.021  0.00  0.00    +0.000 A 
ATOM     13  C   UNL     1       6.216   5.600  17.122  0.00  0.00    +0.000 A 
ATOM     14  C   UNL     1       7.137   5.853  16.096  0.00  0.00    +0.000 A 
BRANCH   9  16
ATOM     15  C   UNL     1       7.465   4.833  12.618  0.00  0.00    +0.000 C 
ATOM     16  O   UNL     1       7.895   5.365  13.873  0.00  0.00    +0.000 OA
ENDBRANCH   9  16
BRANCH  14  17
ATOM     17  O   UNL     1       7.965   6.897  16.401  0.00  0.00    +0.000 OA
ATOM     18  C   UNL     1       7.658   7.724  17.510  0.00  0.00    +0.000 C 
ENDBRANCH  14  17
ENDBRANCH   1  12
BRANCH   4  19
ATOM     19  C   UNL     1       1.526   7.019  20.390  0.00  0.00    +0.000 A 
ATOM     20  C   UNL     1       1.823   7.870  19.314  0.00  0.00    +0.000 A 
ATOM     21  C   UNL     1       1.464   9.221  19.347  0.00  0.00    +0.000 A 
ATOM     22  C   UNL     1       0.801   9.735  20.459  0.00  0.00    +0.000 A 
ATOM     23  C   UNL     1       0.493   8.901  21.533  0.00  0.00    +0.000 A 
ATOM     24  C   UNL     1       0.850   7.551  21.496  0.00  0.00    +0.000 A 
ENDBRANCH   4  19
TORSDOF 4
ENDMDL
