MODEL 1
REMARK VINA RESULT:      -8.2      0.000      0.000
REMARK  Name = 
REMARK  5 active torsions:
REMARK  status: ('A' for Active; 'I' for Inactive)
REMARK    1  A    between atoms: C_1  and  O_2
REMARK    2  A    between atoms: O_2  and  C_3
REMARK    3  A    between atoms: C_6  and  N_7
REMARK    4  A    between atoms: N_10  and  S_11
REMARK    5  A    between atoms: S_11  and  C_14
REMARK                            x       y       z     vdW  Elec       q    Type
REMARK                         _______ _______ _______ _____ _____    ______ ____
ROOT
ATOM      1  N   UNL     1       2.014   6.870  19.949  0.00  0.00    +0.000 N 
ATOM      2  C   UNL     1       1.830   5.565  20.606  0.00  0.00    +0.000 C 
ATOM      3  C   UNL     1       1.498   4.482  19.551  0.00  0.00    +0.000 C 
ATOM      4  N   UNL     1       2.503   4.447  18.435  0.00  0.00    +0.000 NA
ATOM      5  C   UNL     1       2.612   5.810  17.812  0.00  0.00    +0.000 C 
ATOM      6  C   UNL     1       2.993   6.884  18.844  0.00  0.00    +0.000 C 
ENDROOT
BRANCH   1  10
ATOM      7  C   UNL     1       0.508  10.450  21.611  0.00  0.00    +0.000 A 
ATOM      8  C   UNL     1       0.802  10.374  20.254  0.00  0.00    +0.000 A 
ATOM      9  C   UNL     1       1.270   9.178  19.694  0.00  0.00    +0.000 A 
ATOM     10  C   UNL     1       1.479   8.030  20.472  0.00  0.00    +0.000 A 
ATOM     11  C   UNL     1       1.178   8.137  21.838  0.00  0.00    +0.000 A 
ATOM     12  C   UNL     1       0.704   9.327  22.405  0.00  0.00    +0.000 A 
BRANCH   7  14
ATOM     13  C   UNL     1      -1.163  11.659  22.751  0.00  0.00    +0.000 C 
ATOM     14  O   UNL     1       0.079  11.668  22.056  0.00  0.00    +0.000 OA
ENDBRANCH   7  14
ENDBRANCH   1  10
BRANCH   4  15
ATOM     15  S   UNL     1       3.973   3.646  18.769  0.00  0.00    +0.000 S 
ATOM     16  O   UNL     1       4.455   4.095  20.065  0.00  0.00    +0.000 OA
ATOM     17  O   UNL     1       3.826   2.236  18.477  0.00  0.00    +0.000 OA
BRANCH  15  18
ATOM     18  C   UNL     1       5.058   4.343  17.550  0.00  0.00    +0.000 A 
ATOM     19  C   UNL     1       6.215   5.064  17.878  0.00  0.00    +0.000 A 
ATOM     20  C   UNL     1       7.085   5.467  16.852  0.00  0.00    +0.000 A 
ATOM     21  C   UNL     1       6.799   5.134  15.525  0.00  0.00    +0.000 A 
ATOM     22  C   UNL     1       5.591   4.501  15.221  0.00  0.00    +0.000 A 
ATOM     23  C   UNL     1       4.714   4.117  16.221  0.00  0.00    +0.000 A 
ATOM     24  O   UNL     1       5.230   4.174  13.945  0.00  0.00    +0.000 OA
ATOM     25  C   UNL     1       6.409   3.759  13.265  0.00  0.00    +0.000 C 
ATOM     26  C   UNL     1       7.444   4.877  13.270  0.00  0.00    +0.000 C 
ATOM     27  O   UNL     1       7.750   5.397  14.577  0.00  0.00    +0.000 OA
ENDBRANCH  15  18
ENDBRANCH   4  15
TORSDOF 4
ENDMDL
MODEL 2
REMARK VINA RESULT:      -8.0      0.408      1.005
REMARK  Name = 
REMARK  5 active torsions:
REMARK  status: ('A' for Active; 'I' for Inactive)
REMARK    1  A    between atoms: C_1  and  O_2
REMARK    2  A    between atoms: O_2  and  C_3
REMARK    3  A    between atoms: C_6  and  N_7
REMARK    4  A    between atoms: N_10  and  S_11
REMARK    5  A    between atoms: S_11  and  C_14
REMARK                            x       y       z     vdW  Elec       q    Type
REMARK                         _______ _______ _______ _____ _____    ______ ____
ROOT
ATOM      1  N   UNL     1       2.058   6.719  19.895  0.00  0.00    +0.000 N 
ATOM      2  C   UNL     1       1.879   5.459  20.637  0.00  0.00    +0.000 C 
ATOM      3  C   UNL     1       1.485   4.323  19.662  0.00  0.00    +0.000 C 
ATOM      4  N   UNL     1       2.443   4.202  18.511  0.00  0.00    +0.000 NA
ATOM      5  C   UNL     1       2.549   5.523  17.803  0.00  0.00    +0.000 C 
ATOM      6  C   UNL     1       2.990   6.649  18.753  0.00  0.00    +0.000 C 
ENDROOT
BRANCH   1  10
ATOM      7  C   UNL     1       0.420  10.360  21.277  0.00  0.00    +0.000 A 
ATOM      8  C   UNL     1       0.578   9.285  22.146  0.00  0.00    +0.000 A 
ATOM      9  C   UNL     1       1.151   8.088  21.698  0.00  0.00    +0.000 A 
ATOM     10  C   UNL     1       1.564   7.919  20.369  0.00  0.00    +0.000 A 
ATOM     11  C   UNL     1       1.390   9.018  19.514  0.00  0.00    +0.000 A 
ATOM     12  C   UNL     1       0.823  10.221  19.955  0.00  0.00    +0.000 A 
BRANCH   7  14
ATOM     13  C   UNL     1      -1.264  11.996  21.069  0.00  0.00    +0.000 C 
ATOM     14  O   UNL     1      -0.169  11.471  21.812  0.00  0.00    +0.000 OA
ENDBRANCH   7  14
ENDBRANCH   1  10
BRANCH   4  15
ATOM     15  S   UNL     1       3.912   3.394  18.833  0.00  0.00    +0.000 S 
ATOM     16  O   UNL     1       4.369   3.785  20.157  0.00  0.00    +0.000 OA
ATOM     17  O   UNL     1       3.777   1.998  18.475  0.00  0.00    +0.000 OA
BRANCH  15  18
ATOM     18  C   UNL     1       5.013   4.152  17.665  0.00  0.00    +0.000 A 
ATOM     19  C   UNL     1       6.179   4.832  18.044  0.00  0.00    +0.000 A 
ATOM     20  C   UNL     1       7.059   5.288  17.050  0.00  0.00    +0.000 A 
ATOM     21  C   UNL     1       6.776   5.044  15.703  0.00  0.00    +0.000 A 
ATOM     22  C   UNL     1       5.560   4.450  15.354  0.00  0.00    +0.000 A 
ATOM     23  C   UNL     1       4.673   4.015  16.323  0.00  0.00    +0.000 A 
ATOM     24  O   UNL     1       5.202   4.210  14.058  0.00  0.00    +0.000 OA
ATOM     25  C   UNL     1       6.378   3.822  13.358  0.00  0.00    +0.000 C 
ATOM     26  C   UNL     1       7.429   4.922  13.439  0.00  0.00    +0.000 C 
ATOM     27  O   UNL     1       7.736   5.353  14.778  0.00  0.00    +0.000 OA
ENDBRANCH  15  18
ENDBRANCH   4  15
TORSDOF 4
ENDMDL
MODEL 3
REMARK VINA RESULT:      -7.7      3.258     10.779
REMARK  Name = 
REMARK  5 active torsions:
REMARK  status: ('A' for Active; 'I' for Inactive)
REMARK    1  A    between atoms: C_1  and  O_2
REMARK    2  A    between atoms: O_2  and  C_3
REMARK    3  A    between atoms: C_6  and  N_7
REMARK    4  A    between atoms: N_10  and  S_11
REMARK    5  A    between atoms: S_11  and  C_14
REMARK                            x       y       z     vdW  Elec       q    Type
REMARK                         _______ _______ _______ _____ _____    ______ ____
ROOT
ATOM      1  N   UNL     1       1.602   8.406  19.770  0.00  0.00    +0.000 N 
ATOM      2  C   UNL     1       1.249   9.743  19.262  0.00  0.00    +0.000 C 
ATOM      3  C   UNL     1      -0.255  10.021  19.506  0.00  0.00    +0.000 C 
ATOM      4  N   UNL     1      -0.647   9.809  20.940  0.00  0.00    +0.000 NA
ATOM      5  C   UNL     1      -0.268   8.420  21.366  0.00  0.00    +0.000 C 
ATOM      6  C   UNL     1       1.234   8.152  21.176  0.00  0.00    +0.000 C 
ENDROOT
BRANCH   1  10
ATOM      7  C   UNL     1       3.958   5.717  17.519  0.00  0.00    +0.000 A 
ATOM      8  C   UNL     1       3.877   7.057  17.154  0.00  0.00    +0.000 A 
ATOM      9  C   UNL     1       3.123   7.957  17.918  0.00  0.00    +0.000 A 
ATOM     10  C   UNL     1       2.412   7.547  19.054  0.00  0.00    +0.000 A 
ATOM     11  C   UNL     1       2.508   6.190  19.396  0.00  0.00    +0.000 A 
ATOM     12  C   UNL     1       3.264   5.283  18.642  0.00  0.00    +0.000 A 
BRANCH   7  14
ATOM     13  C   UNL     1       4.651   3.529  16.981  0.00  0.00    +0.000 C 
ATOM     14  O   UNL     1       4.702   4.922  16.693  0.00  0.00    +0.000 OA
ENDBRANCH   7  14
ENDBRANCH   1  10
BRANCH   4  15
ATOM     15  S   UNL     1      -0.255  11.069  22.024  0.00  0.00    +0.000 S 
ATOM     16  O   UNL     1      -0.091  10.498  23.350  0.00  0.00    +0.000 OA
ATOM     17  O   UNL     1       0.776  11.899  21.438  0.00  0.00    +0.000 OA
BRANCH  15  18
ATOM     18  C   UNL     1      -1.760  12.011  22.053  0.00  0.00    +0.000 A 
ATOM     19  C   UNL     1      -2.320  12.593  20.908  0.00  0.00    +0.000 A 
ATOM     20  C   UNL     1      -3.577  13.210  20.998  0.00  0.00    +0.000 A 
ATOM     21  C   UNL     1      -4.263  13.220  22.216  0.00  0.00    +0.000 A 
ATOM     22  C   UNL     1      -3.636  12.718  23.360  0.00  0.00    +0.000 A 
ATOM     23  C   UNL     1      -2.387  12.127  23.290  0.00  0.00    +0.000 A 
ATOM     24  O   UNL     1      -4.231  12.725  24.589  0.00  0.00    +0.000 OA
ATOM     25  C   UNL     1      -5.615  12.454  24.393  0.00  0.00    +0.000 C 
ATOM     26  C   UNL     1      -6.234  13.505  23.480  0.00  0.00    +0.000 C 
ATOM     27  O   UNL     1      -5.552  13.679  22.225  0.00  0.00    +0.000 OA
ENDBRANCH  15  18
ENDBRANCH   4  15
TORSDOF 4
ENDMDL
MODEL 4
REMARK VINA RESULT:      -7.7      3.329     10.847
REMARK  Name = 
REMARK  5 active torsions:
REMARK  status: ('A' for Active; 'I' for Inactive)
REMARK    1  A    between atoms: C_1  and  O_2
REMARK    2  A    between atoms: O_2  and  C_3
REMARK    3  A    between atoms: C_6  and  N_7
REMARK    4  A    between atoms: N_10  and  S_11
REMARK    5  A    between atoms: S_11  and  C_14
REMARK                            x       y       z     vdW  Elec       q    Type
REMARK                         _______ _______ _______ _____ _____    ______ ____
ROOT
ATOM      1  N   UNL     1       1.521   8.438  19.864  0.00  0.00    +0.000 N 
ATOM      2  C   UNL     1       1.148   9.760  19.333  0.00  0.00    +0.000 C 
ATOM      3  C   UNL     1      -0.356  10.028  19.589  0.00  0.00    +0.000 C 
ATOM      4  N   UNL     1      -0.730   9.841  21.032  0.00  0.00    +0.000 NA
ATOM      5  C   UNL     1      -0.331   8.465  21.482  0.00  0.00    +0.000 C 
ATOM      6  C   UNL     1       1.172   8.209  21.280  0.00  0.00    +0.000 C 
ENDROOT
BRANCH   1  10
ATOM      7  C   UNL     1       4.118   5.868  17.743  0.00  0.00    +0.000 A 
ATOM      8  C   UNL     1       3.551   5.459  18.946  0.00  0.00    +0.000 A 
ATOM      9  C   UNL     1       2.664   6.297  19.634  0.00  0.00    +0.000 A 
ATOM     10  C   UNL     1       2.332   7.572  19.157  0.00  0.00    +0.000 A 
ATOM     11  C   UNL     1       2.921   7.960  17.944  0.00  0.00    +0.000 A 
ATOM     12  C   UNL     1       3.805   7.127  17.246  0.00  0.00    +0.000 A 
BRANCH   7  14
ATOM     13  C   UNL     1       6.163   5.560  16.613  0.00  0.00    +0.000 C 
ATOM     14  O   UNL     1       4.986   4.984  17.167  0.00  0.00    +0.000 OA
ENDBRANCH   7  14
ENDBRANCH   1  10
BRANCH   4  15
ATOM     15  S   UNL     1      -0.339  11.127  22.085  0.00  0.00    +0.000 S 
ATOM     16  O   UNL     1      -0.174  10.588  23.425  0.00  0.00    +0.000 OA
ATOM     17  O   UNL     1       0.692  11.944  21.479  0.00  0.00    +0.000 OA
BRANCH  15  18
ATOM     18  C   UNL     1      -1.844  12.068  22.092  0.00  0.00    +0.000 A 
ATOM     19  C   UNL     1      -2.363  12.690  20.948  0.00  0.00    +0.000 A 
ATOM     20  C   UNL     1      -3.623  13.303  21.013  0.00  0.00    +0.000 A 
ATOM     21  C   UNL     1      -4.353  13.272  22.206  0.00  0.00    +0.000 A 
ATOM     22  C   UNL     1      -3.768  12.730  23.354  0.00  0.00    +0.000 A 
ATOM     23  C   UNL     1      -2.516  12.141  23.308  0.00  0.00    +0.000 A 
ATOM     24  O   UNL     1      -4.407  12.694  24.560  0.00  0.00    +0.000 OA
ATOM     25  C   UNL     1      -5.782  12.431  24.304  0.00  0.00    +0.000 C 
ATOM     26  C   UNL     1      -6.369  13.513  23.406  0.00  0.00    +0.000 C 
ATOM     27  O   UNL     1      -5.641  13.730  22.183  0.00  0.00    +0.000 OA
ENDBRANCH  15  18
ENDBRANCH   4  15
TORSDOF 4
ENDMDL
MODEL 5
REMARK VINA RESULT:      -7.3      3.452     10.645
REMARK  Name = 
REMARK  5 active torsions:
REMARK  status: ('A' for Active; 'I' for Inactive)
REMARK    1  A    between atoms: C_1  and  O_2
REMARK    2  A    between atoms: O_2  and  C_3
REMARK    3  A    between atoms: C_6  and  N_7
REMARK    4  A    between atoms: N_10  and  S_11
REMARK    5  A    between atoms: S_11  and  C_14
REMARK                            x       y       z     vdW  Elec       q    Type
REMARK                         _______ _______ _______ _____ _____    ______ ____
ROOT
ATOM      1  N   UNL     1       1.538   8.578  19.666  0.00  0.00    +0.000 N 
ATOM      2  C   UNL     1       1.250   9.605  18.651  0.00  0.00    +0.000 C 
ATOM      3  C   UNL     1      -0.200  10.121  18.816  0.00  0.00    +0.000 C 
ATOM      4  N   UNL     1      -0.486  10.577  20.218  0.00  0.00    +0.000 NA
ATOM      5  C   UNL     1      -0.184   9.464  21.181  0.00  0.00    +0.000 C 
ATOM      6  C   UNL     1       1.271   8.981  21.060  0.00  0.00    +0.000 C 
ENDROOT
BRANCH   1  10
ATOM      7  C   UNL     1       3.476   4.958  18.669  0.00  0.00    +0.000 A 
ATOM      8  C   UNL     1       3.579   6.065  17.833  0.00  0.00    +0.000 A 
ATOM      9  C   UNL     1       2.965   7.276  18.178  0.00  0.00    +0.000 A 
ATOM     10  C   UNL     1       2.213   7.414  19.353  0.00  0.00    +0.000 A 
ATOM     11  C   UNL     1       2.123   6.281  20.175  0.00  0.00    +0.000 A 
ATOM     12  C   UNL     1       2.738   5.068  19.841  0.00  0.00    +0.000 A 
BRANCH   7  14
ATOM     13  C   UNL     1       3.984   2.695  19.088  0.00  0.00    +0.000 C 
ATOM     14  O   UNL     1       4.094   3.823  18.227  0.00  0.00    +0.000 OA
ENDBRANCH   7  14
ENDBRANCH   1  10
BRANCH   4  15
ATOM     15  S   UNL     1       0.095  12.125  20.641  0.00  0.00    +0.000 S 
ATOM     16  O   UNL     1       1.341  11.963  21.372  0.00  0.00    +0.000 OA
ATOM     17  O   UNL     1       0.016  12.996  19.487  0.00  0.00    +0.000 OA
BRANCH  15  18
ATOM     18  C   UNL     1      -1.122  12.666  21.815  0.00  0.00    +0.000 A 
ATOM     19  C   UNL     1      -0.816  13.489  22.909  0.00  0.00    +0.000 A 
ATOM     20  C   UNL     1      -1.859  13.976  23.712  0.00  0.00    +0.000 A 
ATOM     21  C   UNL     1      -3.184  13.653  23.405  0.00  0.00    +0.000 A 
ATOM     22  C   UNL     1      -3.449  12.753  22.369  0.00  0.00    +0.000 A 
ATOM     23  C   UNL     1      -2.428  12.249  21.582  0.00  0.00    +0.000 A 
ATOM     24  O   UNL     1      -4.715  12.367  22.033  0.00  0.00    +0.000 OA
ATOM     25  C   UNL     1      -5.559  13.503  22.185  0.00  0.00    +0.000 C 
ATOM     26  C   UNL     1      -5.506  14.013  23.620  0.00  0.00    +0.000 C 
ATOM     27  O   UNL     1      -4.177  14.280  24.107  0.00  0.00    +0.000 OA
ENDBRANCH  15  18
ENDBRANCH   4  15
TORSDOF 4
ENDMDL
MODEL 6
REMARK VINA RESULT:      -7.2      3.279     10.616
REMARK  Name = 
REMARK  5 active torsions:
REMARK  status: ('A' for Active; 'I' for Inactive)
REMARK    1  A    between atoms: C_1  and  O_2
REMARK    2  A    between atoms: O_2  and  C_3
REMARK    3  A    between atoms: C_6  and  N_7
REMARK    4  A    between atoms: N_10  and  S_11
REMARK    5  A    between atoms: S_11  and  C_14
REMARK                            x       y       z     vdW  Elec       q    Type
REMARK                         _______ _______ _______ _____ _____    ______ ____
ROOT
ATOM      1  N   UNL     1       1.755   8.473  19.311  0.00  0.00    +0.000 N 
ATOM      2  C   UNL     1       1.538   9.654  18.459  0.00  0.00    +0.000 C 
ATOM      3  C   UNL     1       0.042  10.052  18.477  0.00  0.00    +0.000 C 
ATOM      4  N   UNL     1      -0.486  10.222  19.874  0.00  0.00    +0.000 NA
ATOM      5  C   UNL     1      -0.239   8.968  20.662  0.00  0.00    +0.000 C 
ATOM      6  C   UNL     1       1.252   8.594  20.693  0.00  0.00    +0.000 C 
ENDROOT
BRANCH   1  10
ATOM      7  C   UNL     1       4.104   5.199  18.041  0.00  0.00    +0.000 A 
ATOM      8  C   UNL     1       4.085   6.379  17.305  0.00  0.00    +0.000 A 
ATOM      9  C   UNL     1       3.333   7.476  17.741  0.00  0.00    +0.000 A 
ATOM     10  C   UNL     1       2.562   7.426  18.912  0.00  0.00    +0.000 A 
ATOM     11  C   UNL     1       2.598   6.223  19.632  0.00  0.00    +0.000 A 
ATOM     12  C   UNL     1       3.351   5.121  19.206  0.00  0.00    +0.000 A 
BRANCH   7  14
ATOM     13  C   UNL     1       5.391   4.434  16.221  0.00  0.00    +0.000 C 
ATOM     14  O   UNL     1       4.853   4.184  17.514  0.00  0.00    +0.000 OA
ENDBRANCH   7  14
ENDBRANCH   1  10
BRANCH   4  15
ATOM     15  S   UNL     1      -0.103  11.694  20.650  0.00  0.00    +0.000 S 
ATOM     16  O   UNL     1       0.906  11.429  21.663  0.00  0.00    +0.000 OA
ATOM     17  O   UNL     1       0.098  12.723  19.650  0.00  0.00    +0.000 OA
BRANCH  15  18
ATOM     18  C   UNL     1      -1.611  12.060  21.511  0.00  0.00    +0.000 A 
ATOM     19  C   UNL     1      -1.797  11.793  22.874  0.00  0.00    +0.000 A 
ATOM     20  C   UNL     1      -2.972  12.233  23.504  0.00  0.00    +0.000 A 
ATOM     21  C   UNL     1      -3.930  12.944  22.774  0.00  0.00    +0.000 A 
ATOM     22  C   UNL     1      -3.760  13.108  21.397  0.00  0.00    +0.000 A 
ATOM     23  C   UNL     1      -2.617  12.660  20.759  0.00  0.00    +0.000 A 
ATOM     24  O   UNL     1      -4.669  13.763  20.615  0.00  0.00    +0.000 OA
ATOM     25  C   UNL     1      -5.176  14.853  21.377  0.00  0.00    +0.000 C 
ATOM     26  C   UNL     1      -5.824  14.345  22.659  0.00  0.00    +0.000 C 
ATOM     27  O   UNL     1      -4.977  13.499  23.458  0.00  0.00    +0.000 OA
ENDBRANCH  15  18
ENDBRANCH   4  15
TORSDOF 4
ENDMDL
MODEL 7
REMARK VINA RESULT:      -7.2      3.371     10.789
REMARK  Name = 
REMARK  5 active torsions:
REMARK  status: ('A' for Active; 'I' for Inactive)
REMARK    1  A    between atoms: C_1  and  O_2
REMARK    2  A    between atoms: O_2  and  C_3
REMARK    3  A    between atoms: C_6  and  N_7
REMARK    4  A    between atoms: N_10  and  S_11
REMARK    5  A    between atoms: S_11  and  C_14
REMARK                            x       y       z     vdW  Elec       q    Type
REMARK                         _______ _______ _______ _____ _____    ______ ____
ROOT
ATOM      1  N   UNL     1       1.460   8.853  19.415  0.00  0.00    +0.000 N 
ATOM      2  C   UNL     1       1.114   9.948  18.492  0.00  0.00    +0.000 C 
ATOM      3  C   UNL     1      -0.357  10.378  18.710  0.00  0.00    +0.000 C 
ATOM      4  N   UNL     1      -0.650  10.700  20.148  0.00  0.00    +0.000 NA
ATOM      5  C   UNL     1      -0.286   9.526  21.011  0.00  0.00    +0.000 C 
ATOM      6  C   UNL     1       1.188   9.124  20.841  0.00  0.00    +0.000 C 
ENDROOT
BRANCH   1  10
ATOM      7  C   UNL     1       3.804   5.557  18.195  0.00  0.00    +0.000 A 
ATOM      8  C   UNL     1       3.024   5.478  19.344  0.00  0.00    +0.000 A 
ATOM      9  C   UNL     1       2.221   6.558  19.732  0.00  0.00    +0.000 A 
ATOM     10  C   UNL     1       2.186   7.754  19.001  0.00  0.00    +0.000 A 
ATOM     11  C   UNL     1       2.985   7.807  17.849  0.00  0.00    +0.000 A 
ATOM     12  C   UNL     1       3.787   6.730  17.450  0.00  0.00    +0.000 A 
BRANCH   7  14
ATOM     13  C   UNL     1       3.850   3.228  17.835  0.00  0.00    +0.000 C 
ATOM     14  O   UNL     1       4.565   4.456  17.920  0.00  0.00    +0.000 OA
ENDBRANCH   7  14
ENDBRANCH   1  10
BRANCH   4  15
ATOM     15  S   UNL     1      -0.138  12.233  20.697  0.00  0.00    +0.000 S 
ATOM     16  O   UNL     1       1.090  12.062  21.456  0.00  0.00    +0.000 OA
ATOM     17  O   UNL     1      -0.212  13.181  19.604  0.00  0.00    +0.000 OA
BRANCH  15  18
ATOM     18  C   UNL     1      -1.408  12.650  21.864  0.00  0.00    +0.000 A 
ATOM     19  C   UNL     1      -1.163  13.386  23.032  0.00  0.00    +0.000 A 
ATOM     20  C   UNL     1      -2.245  13.782  23.832  0.00  0.00    +0.000 A 
ATOM     21  C   UNL     1      -3.550  13.457  23.450  0.00  0.00    +0.000 A 
ATOM     22  C   UNL     1      -3.756  12.640  22.335  0.00  0.00    +0.000 A 
ATOM     23  C   UNL     1      -2.695  12.224  21.549  0.00  0.00    +0.000 A 
ATOM     24  O   UNL     1      -4.999  12.256  21.921  0.00  0.00    +0.000 OA
ATOM     25  C   UNL     1      -5.876  13.357  22.134  0.00  0.00    +0.000 C 
ATOM     26  C   UNL     1      -5.886  13.748  23.606  0.00  0.00    +0.000 C 
ATOM     27  O   UNL     1      -4.583  14.002  24.163  0.00  0.00    +0.000 OA
ENDBRANCH  15  18
ENDBRANCH   4  15
TORSDOF 4
ENDMDL
MODEL 8
REMARK VINA RESULT:      -7.2      1.501      2.442
REMARK  Name = 
REMARK  5 active torsions:
REMARK  status: ('A' for Active; 'I' for Inactive)
REMARK    1  A    between atoms: C_1  and  O_2
REMARK    2  A    between atoms: O_2  and  C_3
REMARK    3  A    between atoms: C_6  and  N_7
REMARK    4  A    between atoms: N_10  and  S_11
REMARK    5  A    between atoms: S_11  and  C_14
REMARK                            x       y       z     vdW  Elec       q    Type
REMARK                         _______ _______ _______ _____ _____    ______ ____
ROOT
ATOM      1  N   UNL     1       1.912   6.442  19.944  0.00  0.00    +0.000 N 
ATOM      2  C   UNL     1       1.716   5.319  20.878  0.00  0.00    +0.000 C 
ATOM      3  C   UNL     1       1.057   4.128  20.141  0.00  0.00    +0.000 C 
ATOM      4  N   UNL     1       1.806   3.741  18.898  0.00  0.00    +0.000 NA
ATOM      5  C   UNL     1       1.942   4.937  17.999  0.00  0.00    +0.000 C 
ATOM      6  C   UNL     1       2.644   6.109  18.706  0.00  0.00    +0.000 C 
ENDROOT
BRANCH   1  10
ATOM      7  C   UNL     1       0.910  10.408  20.999  0.00  0.00    +0.000 A 
ATOM      8  C   UNL     1       1.063   9.436  21.982  0.00  0.00    +0.000 A 
ATOM      9  C   UNL     1       1.428   8.128  21.637  0.00  0.00    +0.000 A 
ATOM     10  C   UNL     1       1.630   7.745  20.304  0.00  0.00    +0.000 A 
ATOM     11  C   UNL     1       1.465   8.744  19.334  0.00  0.00    +0.000 A 
ATOM     12  C   UNL     1       1.106  10.056  19.669  0.00  0.00    +0.000 A 
BRANCH   7  14
ATOM     13  C   UNL     1       1.138  12.743  20.771  0.00  0.00    +0.000 C 
ATOM     14  O   UNL     1       0.532  11.644  21.443  0.00  0.00    +0.000 OA
ENDBRANCH   7  14
ENDBRANCH   1  10
BRANCH   4  15
ATOM     15  S   UNL     1       3.212   2.800  19.126  0.00  0.00    +0.000 S 
ATOM     16  O   UNL     1       3.656   2.965  20.500  0.00  0.00    +0.000 OA
ATOM     17  O   UNL     1       3.000   1.482  18.565  0.00  0.00    +0.000 OA
BRANCH  15  18
ATOM     18  C   UNL     1       4.390   3.644  18.102  0.00  0.00    +0.000 A 
ATOM     19  C   UNL     1       4.296   3.688  16.704  0.00  0.00    +0.000 A 
ATOM     20  C   UNL     1       5.196   4.486  15.981  0.00  0.00    +0.000 A 
ATOM     21  C   UNL     1       6.160   5.238  16.659  0.00  0.00    +0.000 A 
ATOM     22  C   UNL     1       6.291   5.098  18.043  0.00  0.00    +0.000 A 
ATOM     23  C   UNL     1       5.424   4.297  18.766  0.00  0.00    +0.000 A 
ATOM     24  O   UNL     1       7.230   5.776  18.767  0.00  0.00    +0.000 OA
ATOM     25  C   UNL     1       7.349   7.075  18.197  0.00  0.00    +0.000 C 
ATOM     26  C   UNL     1       7.756   6.974  16.732  0.00  0.00    +0.000 C 
ATOM     27  O   UNL     1       6.905   6.129  15.936  0.00  0.00    +0.000 OA
ENDBRANCH  15  18
ENDBRANCH   4  15
TORSDOF 4
ENDMDL
MODEL 9
REMARK VINA RESULT:      -7.1      0.962      1.452
REMARK  Name = 
REMARK  5 active torsions:
REMARK  status: ('A' for Active; 'I' for Inactive)
REMARK    1  A    between atoms: C_1  and  O_2
REMARK    2  A    between atoms: O_2  and  C_3
REMARK    3  A    between atoms: C_6  and  N_7
REMARK    4  A    between atoms: N_10  and  S_11
REMARK    5  A    between atoms: S_11  and  C_14
REMARK                            x       y       z     vdW  Elec       q    Type
REMARK                         _______ _______ _______ _____ _____    ______ ____
ROOT
ATOM      1  N   UNL     1       2.151   6.650  19.875  0.00  0.00    +0.000 N 
ATOM      2  C   UNL     1       3.341   6.662  19.006  0.00  0.00    +0.000 C 
ATOM      3  C   UNL     1       4.420   5.708  19.574  0.00  0.00    +0.000 C 
ATOM      4  N   UNL     1       3.884   4.328  19.826  0.00  0.00    +0.000 NA
ATOM      5  C   UNL     1       2.688   4.409  20.733  0.00  0.00    +0.000 C 
ATOM      6  C   UNL     1       1.589   5.314  20.152  0.00  0.00    +0.000 C 
ENDROOT
BRANCH   1  10
ATOM      7  C   UNL     1       0.237  10.244  21.002  0.00  0.00    +0.000 A 
ATOM      8  C   UNL     1       0.790  10.109  19.733  0.00  0.00    +0.000 A 
ATOM      9  C   UNL     1       1.396   8.907  19.346  0.00  0.00    +0.000 A 
ATOM     10  C   UNL     1       1.487   7.812  20.216  0.00  0.00    +0.000 A 
ATOM     11  C   UNL     1       0.925   7.977  21.491  0.00  0.00    +0.000 A 
ATOM     12  C   UNL     1       0.312   9.174  21.885  0.00  0.00    +0.000 A 
BRANCH   7  14
ATOM     13  C   UNL     1      -1.236  11.953  20.319  0.00  0.00    +0.000 C 
ATOM     14  O   UNL     1      -0.309  11.464  21.283  0.00  0.00    +0.000 OA
ENDBRANCH   7  14
ENDBRANCH   1  10
BRANCH   4  15
ATOM     15  S   UNL     1       3.732   3.316  18.459  0.00  0.00    +0.000 S 
ATOM     16  O   UNL     1       4.198   1.987  18.819  0.00  0.00    +0.000 OA
ATOM     17  O   UNL     1       2.427   3.511  17.863  0.00  0.00    +0.000 OA
BRANCH  15  18
ATOM     18  C   UNL     1       4.941   4.002  17.357  0.00  0.00    +0.000 A 
ATOM     19  C   UNL     1       6.186   4.481  17.789  0.00  0.00    +0.000 A 
ATOM     20  C   UNL     1       7.133   4.886  16.836  0.00  0.00    +0.000 A 
ATOM     21  C   UNL     1       6.834   4.792  15.473  0.00  0.00    +0.000 A 
ATOM     22  C   UNL     1       5.552   4.404  15.077  0.00  0.00    +0.000 A 
ATOM     23  C   UNL     1       4.601   4.022  16.008  0.00  0.00    +0.000 A 
ATOM     24  O   UNL     1       5.179   4.320  13.766  0.00  0.00    +0.000 OA
ATOM     25  C   UNL     1       6.298   3.829  13.037  0.00  0.00    +0.000 C 
ATOM     26  C   UNL     1       7.490   4.761  13.208  0.00  0.00    +0.000 C 
ATOM     27  O   UNL     1       7.839   5.037  14.577  0.00  0.00    +0.000 OA
ENDBRANCH  15  18
ENDBRANCH   4  15
TORSDOF 4
ENDMDL
