MODEL 1
REMARK VINA RESULT:      -8.1      0.000      0.000
REMARK  Name = 
REMARK  11 active torsions:
REMARK  status: ('A' for Active; 'I' for Inactive)
REMARK    1  A    between atoms: C_1  and  C_2
REMARK    2  A    between atoms: C_2  and  N_3
REMARK    3  A    between atoms: N_3  and  C_4
REMARK    4  A    between atoms: N_3  and  S_6
REMARK    5  A    between atoms: C_4  and  C_5
REMARK    6  A    between atoms: S_6  and  C_9
REMARK    7  A    between atoms: N_14  and  C_15
REMARK    8  A    between atoms: C_15  and  C_16
REMARK    9  A    between atoms: N_18  and  C_19
REMARK   10  A    between atoms: C_19  and  C_20
REMARK   11  A    between atoms: C_19  and  C_26
REMARK                            x       y       z     vdW  Elec       q    Type
REMARK                         _______ _______ _______ _____ _____    ______ ____
ROOT
ATOM      1  C   UNL     1       1.865   8.647  18.576  0.00  0.00    +0.000 C 
ATOM      2  O   UNL     1       1.825   8.910  17.376  0.00  0.00    +0.000 OA
ATOM      3  N   UNL     1       2.181   7.405  19.073  0.00  0.00    +0.000 N 
ATOM      4  H   UNL     1       2.039   7.222  20.060  0.00  0.00    +0.000 HD
ENDROOT
BRANCH   1   5
ATOM      5  C   UNL     1       1.495   9.681  19.641  0.00  0.00    +0.000 C 
BRANCH   5  11
ATOM      6  C   UNL     1      -1.415  11.341  18.052  0.00  0.00    +0.000 A 
ATOM      7  C   UNL     1      -0.959  12.713  17.974  0.00  0.00    +0.000 A 
ATOM      8  C   UNL     1       0.238  13.062  18.467  0.00  0.00    +0.000 A 
ATOM      9  C   UNL     1       1.113  12.043  19.116  0.00  0.00    +0.000 A 
ATOM     10  O   UNL     1       2.175  12.384  19.628  0.00  0.00    +0.000 OA
ATOM     11  N   UNL     1       0.640  10.734  19.093  0.00  0.00    +0.000 N 
ATOM     12  C   UNL     1      -0.609  10.405  18.581  0.00  0.00    +0.000 A 
BRANCH   6  13
ATOM     13  S   UNL     1      -2.955  10.839  17.381  0.00  0.00    +0.000 S 
ATOM     14  O   UNL     1      -3.261   9.490  17.828  0.00  0.00    +0.000 OA
ATOM     15  O   UNL     1      -2.936  11.123  15.958  0.00  0.00    +0.000 OA
BRANCH  13  16
ATOM     16  N   UNL     1      -4.197  11.851  18.044  0.00  0.00    +0.000 NA
BRANCH  16  18
ATOM     17  C   UNL     1      -6.705  11.499  18.003  0.00  0.00    +0.000 C 
ATOM     18  C   UNL     1      -5.442  11.775  17.205  0.00  0.00    +0.000 C 
ENDBRANCH  16  18
BRANCH  16  19
ATOM     19  C   UNL     1      -4.419  11.787  19.516  0.00  0.00    +0.000 C 
ATOM     20  C   UNL     1      -4.215  13.100  20.244  0.00  0.00    +0.000 C 
ENDBRANCH  16  19
ENDBRANCH  13  16
ENDBRANCH   6  13
ENDBRANCH   5  11
ENDBRANCH   1   5
BRANCH   3  21
ATOM     21  C   UNL     1       2.599   6.289  18.233  0.00  0.00    +0.000 C 
BRANCH  21  22
ATOM     22  C   UNL     1       4.129   6.260  18.185  0.00  0.00    +0.000 A 
ATOM     23  C   UNL     1       4.871   5.536  19.135  0.00  0.00    +0.000 A 
ATOM     24  C   UNL     1       6.263   5.470  19.054  0.00  0.00    +0.000 A 
ATOM     25  C   UNL     1       6.933   6.123  18.024  0.00  0.00    +0.000 A 
ATOM     26  C   UNL     1       6.215   6.846  17.075  0.00  0.00    +0.000 A 
ATOM     27  C   UNL     1       4.821   6.918  17.155  0.00  0.00    +0.000 A 
ENDBRANCH  21  22
BRANCH  21  28
ATOM     28  C   UNL     1       2.018   4.944  18.683  0.00  0.00    +0.000 A 
ATOM     29  C   UNL     1       1.926   3.832  17.831  0.00  0.00    +0.000 A 
ATOM     30  C   UNL     1       1.329   2.645  18.263  0.00  0.00    +0.000 A 
ATOM     31  C   UNL     1       0.827   2.543  19.559  0.00  0.00    +0.000 A 
ATOM     32  C   UNL     1       0.943   3.618  20.432  0.00  0.00    +0.000 A 
ATOM     33  C   UNL     1       1.543   4.803  20.002  0.00  0.00    +0.000 A 
ENDBRANCH  21  28
ENDBRANCH   3  21
TORSDOF 9
ENDMDL
MODEL 2
REMARK VINA RESULT:      -7.9      2.281      5.175
REMARK  Name = 
REMARK  11 active torsions:
REMARK  status: ('A' for Active; 'I' for Inactive)
REMARK    1  A    between atoms: C_1  and  C_2
REMARK    2  A    between atoms: C_2  and  N_3
REMARK    3  A    between atoms: N_3  and  C_4
REMARK    4  A    between atoms: N_3  and  S_6
REMARK    5  A    between atoms: C_4  and  C_5
REMARK    6  A    between atoms: S_6  and  C_9
REMARK    7  A    between atoms: N_14  and  C_15
REMARK    8  A    between atoms: C_15  and  C_16
REMARK    9  A    between atoms: N_18  and  C_19
REMARK   10  A    between atoms: C_19  and  C_20
REMARK   11  A    between atoms: C_19  and  C_26
REMARK                            x       y       z     vdW  Elec       q    Type
REMARK                         _______ _______ _______ _____ _____    ______ ____
ROOT
ATOM      1  C   UNL     1       1.827   8.439  18.788  0.00  0.00    +0.000 C 
ATOM      2  O   UNL     1       1.716   8.524  20.009  0.00  0.00    +0.000 OA
ATOM      3  N   UNL     1       2.621   7.509  18.159  0.00  0.00    +0.000 N 
ATOM      4  H   UNL     1       2.787   7.600  17.163  0.00  0.00    +0.000 HD
ENDROOT
BRANCH   1   5
ATOM      5  C   UNL     1       1.132   9.421  17.843  0.00  0.00    +0.000 C 
BRANCH   5  11
ATOM      6  C   UNL     1       0.451  12.355  20.006  0.00  0.00    +0.000 A 
ATOM      7  C   UNL     1      -0.996  12.348  20.057  0.00  0.00    +0.000 A 
ATOM      8  C   UNL     1      -1.697  11.436  19.367  0.00  0.00    +0.000 A 
ATOM      9  C   UNL     1      -0.996  10.422  18.528  0.00  0.00    +0.000 A 
ATOM     10  O   UNL     1      -1.647   9.636  17.844  0.00  0.00    +0.000 OA
ATOM     11  N   UNL     1       0.394  10.445  18.582  0.00  0.00    +0.000 N 
ATOM     12  C   UNL     1       1.093  11.409  19.299  0.00  0.00    +0.000 A 
BRANCH   6  13
ATOM     13  S   UNL     1       1.403  13.505  20.925  0.00  0.00    +0.000 S 
ATOM     14  O   UNL     1       2.780  13.046  20.997  0.00  0.00    +0.000 OA
ATOM     15  O   UNL     1       0.690  13.790  22.157  0.00  0.00    +0.000 OA
BRANCH  13  16
ATOM     16  N   UNL     1       1.447  15.001  20.052  0.00  0.00    +0.000 NA
BRANCH  16  18
ATOM     17  C   UNL     1       3.283  15.459  18.367  0.00  0.00    +0.000 C 
ATOM     18  C   UNL     1       1.953  14.780  18.654  0.00  0.00    +0.000 C 
ENDBRANCH  16  18
BRANCH  16  19
ATOM     19  C   UNL     1       0.260  15.893  20.163  0.00  0.00    +0.000 C 
ATOM     20  C   UNL     1      -0.366  16.283  18.839  0.00  0.00    +0.000 C 
ENDBRANCH  16  19
ENDBRANCH  13  16
ENDBRANCH   6  13
ENDBRANCH   5  11
ENDBRANCH   1   5
BRANCH   3  21
ATOM     21  C   UNL     1       3.341   6.459  18.870  0.00  0.00    +0.000 C 
BRANCH  21  22
ATOM     22  C   UNL     1       2.389   5.282  19.099  0.00  0.00    +0.000 A 
ATOM     23  C   UNL     1       1.993   4.453  18.034  0.00  0.00    +0.000 A 
ATOM     24  C   UNL     1       1.167   3.349  18.259  0.00  0.00    +0.000 A 
ATOM     25  C   UNL     1       0.728   3.058  19.547  0.00  0.00    +0.000 A 
ATOM     26  C   UNL     1       1.110   3.869  20.613  0.00  0.00    +0.000 A 
ATOM     27  C   UNL     1       1.932   4.977  20.391  0.00  0.00    +0.000 A 
ENDBRANCH  21  22
BRANCH  21  28
ATOM     28  C   UNL     1       4.627   6.022  18.160  0.00  0.00    +0.000 A 
ATOM     29  C   UNL     1       4.906   6.346  16.822  0.00  0.00    +0.000 A 
ATOM     30  C   UNL     1       6.060   5.871  16.196  0.00  0.00    +0.000 A 
ATOM     31  C   UNL     1       6.965   5.077  16.898  0.00  0.00    +0.000 A 
ATOM     32  C   UNL     1       6.730   4.778  18.235  0.00  0.00    +0.000 A 
ATOM     33  C   UNL     1       5.578   5.255  18.863  0.00  0.00    +0.000 A 
ENDBRANCH  21  28
ENDBRANCH   3  21
TORSDOF 9
ENDMDL
MODEL 3
REMARK VINA RESULT:      -7.9      0.324      1.665
REMARK  Name = 
REMARK  11 active torsions:
REMARK  status: ('A' for Active; 'I' for Inactive)
REMARK    1  A    between atoms: C_1  and  C_2
REMARK    2  A    between atoms: C_2  and  N_3
REMARK    3  A    between atoms: N_3  and  C_4
REMARK    4  A    between atoms: N_3  and  S_6
REMARK    5  A    between atoms: C_4  and  C_5
REMARK    6  A    between atoms: S_6  and  C_9
REMARK    7  A    between atoms: N_14  and  C_15
REMARK    8  A    between atoms: C_15  and  C_16
REMARK    9  A    between atoms: N_18  and  C_19
REMARK   10  A    between atoms: C_19  and  C_20
REMARK   11  A    between atoms: C_19  and  C_26
REMARK                            x       y       z     vdW  Elec       q    Type
REMARK                         _______ _______ _______ _____ _____    ______ ____
ROOT
ATOM      1  C   UNL     1       1.828   8.610  18.552  0.00  0.00    +0.000 C 
ATOM      2  O   UNL     1       1.726   8.842  17.349  0.00  0.00    +0.000 OA
ATOM      3  N   UNL     1       2.193   7.387  19.063  0.00  0.00    +0.000 N 
ATOM      4  H   UNL     1       2.101   7.226  20.060  0.00  0.00    +0.000 HD
ENDROOT
BRANCH   1   5
ATOM      5  C   UNL     1       1.485   9.662  19.608  0.00  0.00    +0.000 C 
BRANCH   5  11
ATOM      6  C   UNL     1      -1.506  11.281  18.130  0.00  0.00    +0.000 A 
ATOM      7  C   UNL     1      -1.046  12.643  17.962  0.00  0.00    +0.000 A 
ATOM      8  C   UNL     1       0.183  13.001  18.364  0.00  0.00    +0.000 A 
ATOM      9  C   UNL     1       1.089  12.002  19.002  0.00  0.00    +0.000 A 
ATOM     10  O   UNL     1       2.184  12.355  19.432  0.00  0.00    +0.000 OA
ATOM     11  N   UNL     1       0.606  10.699  19.067  0.00  0.00    +0.000 N 
ATOM     12  C   UNL     1      -0.676  10.360  18.649  0.00  0.00    +0.000 A 
BRANCH   6  13
ATOM     13  S   UNL     1      -3.089  10.766  17.579  0.00  0.00    +0.000 S 
ATOM     14  O   UNL     1      -3.235   9.336  17.794  0.00  0.00    +0.000 OA
ATOM     15  O   UNL     1      -3.294  11.302  16.246  0.00  0.00    +0.000 OA
BRANCH  13  16
ATOM     16  N   UNL     1      -4.288  11.520  18.577  0.00  0.00    +0.000 NA
BRANCH  16  18
ATOM     17  C   UNL     1      -4.524  12.640  20.837  0.00  0.00    +0.000 C 
ATOM     18  C   UNL     1      -3.636  12.367  19.634  0.00  0.00    +0.000 C 
ENDBRANCH  16  18
BRANCH  16  19
ATOM     19  C   UNL     1      -5.454  12.144  17.893  0.00  0.00    +0.000 C 
ATOM     20  C   UNL     1      -6.782  11.463  18.156  0.00  0.00    +0.000 C 
ENDBRANCH  16  19
ENDBRANCH  13  16
ENDBRANCH   6  13
ENDBRANCH   5  11
ENDBRANCH   1   5
BRANCH   3  21
ATOM     21  C   UNL     1       2.596   6.259  18.232  0.00  0.00    +0.000 C 
BRANCH  21  22
ATOM     22  C   UNL     1       4.125   6.228  18.158  0.00  0.00    +0.000 A 
ATOM     23  C   UNL     1       4.816   6.931  17.155  0.00  0.00    +0.000 A 
ATOM     24  C   UNL     1       6.212   6.942  17.125  0.00  0.00    +0.000 A 
ATOM     25  C   UNL     1       6.936   6.253  18.094  0.00  0.00    +0.000 A 
ATOM     26  C   UNL     1       6.267   5.549  19.093  0.00  0.00    +0.000 A 
ATOM     27  C   UNL     1       4.870   5.533  19.124  0.00  0.00    +0.000 A 
ENDBRANCH  21  22
BRANCH  21  28
ATOM     28  C   UNL     1       2.021   4.921  18.710  0.00  0.00    +0.000 A 
ATOM     29  C   UNL     1       1.521   4.728  20.008  0.00  0.00    +0.000 A 
ATOM     30  C   UNL     1       1.067   3.474  20.421  0.00  0.00    +0.000 A 
ATOM     31  C   UNL     1       1.089   2.393  19.541  0.00  0.00    +0.000 A 
ATOM     32  C   UNL     1       1.543   2.571  18.239  0.00  0.00    +0.000 A 
ATOM     33  C   UNL     1       1.994   3.826  17.824  0.00  0.00    +0.000 A 
ENDBRANCH  21  28
ENDBRANCH   3  21
TORSDOF 9
ENDMDL
MODEL 4
REMARK VINA RESULT:      -7.9      2.265      4.897
REMARK  Name = 
REMARK  11 active torsions:
REMARK  status: ('A' for Active; 'I' for Inactive)
REMARK    1  A    between atoms: C_1  and  C_2
REMARK    2  A    between atoms: C_2  and  N_3
REMARK    3  A    between atoms: N_3  and  C_4
REMARK    4  A    between atoms: N_3  and  S_6
REMARK    5  A    between atoms: C_4  and  C_5
REMARK    6  A    between atoms: S_6  and  C_9
REMARK    7  A    between atoms: N_14  and  C_15
REMARK    8  A    between atoms: C_15  and  C_16
REMARK    9  A    between atoms: N_18  and  C_19
REMARK   10  A    between atoms: C_19  and  C_20
REMARK   11  A    between atoms: C_19  and  C_26
REMARK                            x       y       z     vdW  Elec       q    Type
REMARK                         _______ _______ _______ _____ _____    ______ ____
ROOT
ATOM      1  C   UNL     1       1.738   8.471  18.693  0.00  0.00    +0.000 C 
ATOM      2  O   UNL     1       1.545   8.608  19.899  0.00  0.00    +0.000 OA
ATOM      3  N   UNL     1       2.584   7.527  18.160  0.00  0.00    +0.000 N 
ATOM      4  H   UNL     1       2.814   7.577  17.174  0.00  0.00    +0.000 HD
ENDROOT
BRANCH   1   5
ATOM      5  C   UNL     1       1.094   9.399  17.661  0.00  0.00    +0.000 C 
BRANCH   5  11
ATOM      6  C   UNL     1      -0.377  11.986  19.873  0.00  0.00    +0.000 A 
ATOM      7  C   UNL     1      -1.778  11.910  19.517  0.00  0.00    +0.000 A 
ATOM      8  C   UNL     1      -2.192  11.068  18.558  0.00  0.00    +0.000 A 
ATOM      9  C   UNL     1      -1.212  10.206  17.836  0.00  0.00    +0.000 A 
ATOM     10  O   UNL     1      -1.590   9.491  16.912  0.00  0.00    +0.000 OA
ATOM     11  N   UNL     1       0.105  10.282  18.279  0.00  0.00    +0.000 N 
ATOM     12  C   UNL     1       0.505  11.171  19.269  0.00  0.00    +0.000 A 
BRANCH   6  13
ATOM     13  S   UNL     1       0.196  13.043  21.149  0.00  0.00    +0.000 S 
ATOM     14  O   UNL     1      -0.066  14.426  20.786  0.00  0.00    +0.000 OA
ATOM     15  O   UNL     1       1.552  12.647  21.482  0.00  0.00    +0.000 OA
BRANCH  13  16
ATOM     16  N   UNL     1      -0.743  12.741  22.574  0.00  0.00    +0.000 NA
BRANCH  16  18
ATOM     17  C   UNL     1      -1.401  14.508  24.266  0.00  0.00    +0.000 C 
ATOM     18  C   UNL     1      -1.625  13.918  22.883  0.00  0.00    +0.000 C 
ENDBRANCH  16  18
BRANCH  16  19
ATOM     19  C   UNL     1      -1.399  11.409  22.691  0.00  0.00    +0.000 C 
ATOM     20  C   UNL     1      -0.477  10.285  23.118  0.00  0.00    +0.000 C 
ENDBRANCH  16  19
ENDBRANCH  13  16
ENDBRANCH   6  13
ENDBRANCH   5  11
ENDBRANCH   1   5
BRANCH   3  21
ATOM     21  C   UNL     1       3.270   6.522  18.963  0.00  0.00    +0.000 C 
BRANCH  21  22
ATOM     22  C   UNL     1       2.346   5.312  19.125  0.00  0.00    +0.000 A 
ATOM     23  C   UNL     1       2.025   4.493  18.028  0.00  0.00    +0.000 A 
ATOM     24  C   UNL     1       1.225   3.360  18.193  0.00  0.00    +0.000 A 
ATOM     25  C   UNL     1       0.736   3.029  19.454  0.00  0.00    +0.000 A 
ATOM     26  C   UNL     1       1.043   3.831  20.551  0.00  0.00    +0.000 A 
ATOM     27  C   UNL     1       1.840   4.967  20.389  0.00  0.00    +0.000 A 
ENDBRANCH  21  22
BRANCH  21  28
ATOM     28  C   UNL     1       4.636   6.123  18.394  0.00  0.00    +0.000 A 
ATOM     29  C   UNL     1       5.565   5.353  19.113  0.00  0.00    +0.000 A 
ATOM     30  C   UNL     1       6.824   5.068  18.580  0.00  0.00    +0.000 A 
ATOM     31  C   UNL     1       7.173   5.533  17.313  0.00  0.00    +0.000 A 
ATOM     32  C   UNL     1       6.254   6.263  16.568  0.00  0.00    +0.000 A 
ATOM     33  C   UNL     1       4.994   6.545  17.098  0.00  0.00    +0.000 A 
ENDBRANCH  21  28
ENDBRANCH   3  21
TORSDOF 9
ENDMDL
MODEL 5
REMARK VINA RESULT:      -7.8      2.357      4.786
REMARK  Name = 
REMARK  11 active torsions:
REMARK  status: ('A' for Active; 'I' for Inactive)
REMARK    1  A    between atoms: C_1  and  C_2
REMARK    2  A    between atoms: C_2  and  N_3
REMARK    3  A    between atoms: N_3  and  C_4
REMARK    4  A    between atoms: N_3  and  S_6
REMARK    5  A    between atoms: C_4  and  C_5
REMARK    6  A    between atoms: S_6  and  C_9
REMARK    7  A    between atoms: N_14  and  C_15
REMARK    8  A    between atoms: C_15  and  C_16
REMARK    9  A    between atoms: N_18  and  C_19
REMARK   10  A    between atoms: C_19  and  C_20
REMARK   11  A    between atoms: C_19  and  C_26
REMARK                            x       y       z     vdW  Elec       q    Type
REMARK                         _______ _______ _______ _____ _____    ______ ____
ROOT
ATOM      1  C   UNL     1       1.878   8.362  18.716  0.00  0.00    +0.000 C 
ATOM      2  O   UNL     1       1.688   8.404  19.930  0.00  0.00    +0.000 OA
ATOM      3  N   UNL     1       2.734   7.473  18.110  0.00  0.00    +0.000 N 
ATOM      4  H   UNL     1       2.959   7.601  17.130  0.00  0.00    +0.000 HD
ENDROOT
BRANCH   1   5
ATOM      5  C   UNL     1       1.217   9.357  17.761  0.00  0.00    +0.000 C 
BRANCH   5  11
ATOM      6  C   UNL     1      -0.507  11.507  20.241  0.00  0.00    +0.000 A 
ATOM      7  C   UNL     1      -1.866  11.495  19.742  0.00  0.00    +0.000 A 
ATOM      8  C   UNL     1      -2.170  10.837  18.613  0.00  0.00    +0.000 A 
ATOM      9  C   UNL     1      -1.110  10.119  17.849  0.00  0.00    +0.000 A 
ATOM     10  O   UNL     1      -1.383   9.580  16.780  0.00  0.00    +0.000 OA
ATOM     11  N   UNL     1       0.157  10.116  18.425  0.00  0.00    +0.000 N 
ATOM     12  C   UNL     1       0.444  10.814  19.592  0.00  0.00    +0.000 A 
BRANCH   6  13
ATOM     13  S   UNL     1      -0.079  12.321  21.734  0.00  0.00    +0.000 S 
ATOM     14  O   UNL     1       1.133  13.097  21.532  0.00  0.00    +0.000 OA
ATOM     15  O   UNL     1      -0.117  11.340  22.804  0.00  0.00    +0.000 OA
BRANCH  13  16
ATOM     16  N   UNL     1      -1.321  13.470  22.108  0.00  0.00    +0.000 NA
BRANCH  16  18
ATOM     17  C   UNL     1      -3.504  12.601  23.056  0.00  0.00    +0.000 C 
ATOM     18  C   UNL     1      -2.078  13.046  23.336  0.00  0.00    +0.000 C 
ENDBRANCH  16  18
BRANCH  16  19
ATOM     19  C   UNL     1      -0.958  14.913  22.052  0.00  0.00    +0.000 C 
ATOM     20  C   UNL     1      -0.685  15.549  23.400  0.00  0.00    +0.000 C 
ENDBRANCH  16  19
ENDBRANCH  13  16
ENDBRANCH   6  13
ENDBRANCH   5  11
ENDBRANCH   1   5
BRANCH   3  21
ATOM     21  C   UNL     1       3.436   6.419  18.832  0.00  0.00    +0.000 C 
BRANCH  21  22
ATOM     22  C   UNL     1       2.457   5.271  19.096  0.00  0.00    +0.000 A 
ATOM     23  C   UNL     1       1.989   4.462  18.045  0.00  0.00    +0.000 A 
ATOM     24  C   UNL     1       1.138   3.384  18.300  0.00  0.00    +0.000 A 
ATOM     25  C   UNL     1       0.745   3.099  19.605  0.00  0.00    +0.000 A 
ATOM     26  C   UNL     1       1.198   3.892  20.657  0.00  0.00    +0.000 A 
ATOM     27  C   UNL     1       2.046   4.974  20.406  0.00  0.00    +0.000 A 
ENDBRANCH  21  22
BRANCH  21  28
ATOM     28  C   UNL     1       4.700   5.935  18.114  0.00  0.00    +0.000 A 
ATOM     29  C   UNL     1       5.764   5.309  18.785  0.00  0.00    +0.000 A 
ATOM     30  C   UNL     1       6.926   4.943  18.101  0.00  0.00    +0.000 A 
ATOM     31  C   UNL     1       7.040   5.181  16.732  0.00  0.00    +0.000 A 
ATOM     32  C   UNL     1       5.984   5.762  16.041  0.00  0.00    +0.000 A 
ATOM     33  C   UNL     1       4.821   6.125  16.723  0.00  0.00    +0.000 A 
ENDBRANCH  21  28
ENDBRANCH   3  21
TORSDOF 9
ENDMDL
MODEL 6
REMARK VINA RESULT:      -7.8      2.508      5.346
REMARK  Name = 
REMARK  11 active torsions:
REMARK  status: ('A' for Active; 'I' for Inactive)
REMARK    1  A    between atoms: C_1  and  C_2
REMARK    2  A    between atoms: C_2  and  N_3
REMARK    3  A    between atoms: N_3  and  C_4
REMARK    4  A    between atoms: N_3  and  S_6
REMARK    5  A    between atoms: C_4  and  C_5
REMARK    6  A    between atoms: S_6  and  C_9
REMARK    7  A    between atoms: N_14  and  C_15
REMARK    8  A    between atoms: C_15  and  C_16
REMARK    9  A    between atoms: N_18  and  C_19
REMARK   10  A    between atoms: C_19  and  C_20
REMARK   11  A    between atoms: C_19  and  C_26
REMARK                            x       y       z     vdW  Elec       q    Type
REMARK                         _______ _______ _______ _____ _____    ______ ____
ROOT
ATOM      1  C   UNL     1       1.847   8.387  18.769  0.00  0.00    +0.000 C 
ATOM      2  O   UNL     1       1.792   8.481  19.994  0.00  0.00    +0.000 OA
ATOM      3  N   UNL     1       2.613   7.454  18.112  0.00  0.00    +0.000 N 
ATOM      4  H   UNL     1       2.734   7.538  17.108  0.00  0.00    +0.000 HD
ENDROOT
BRANCH   1   5
ATOM      5  C   UNL     1       1.109   9.362  17.851  0.00  0.00    +0.000 C 
BRANCH   5  11
ATOM      6  C   UNL     1       1.200  12.646  19.571  0.00  0.00    +0.000 A 
ATOM      7  C   UNL     1      -0.167  12.770  20.032  0.00  0.00    +0.000 A 
ATOM      8  C   UNL     1      -1.072  11.824  19.741  0.00  0.00    +0.000 A 
ATOM      9  C   UNL     1      -0.686  10.635  18.927  0.00  0.00    +0.000 A 
ATOM     10  O   UNL     1      -1.537   9.810  18.606  0.00  0.00    +0.000 OA
ATOM     11  N   UNL     1       0.658  10.549  18.579  0.00  0.00    +0.000 N 
ATOM     12  C   UNL     1       1.571  11.550  18.887  0.00  0.00    +0.000 A 
BRANCH   6  13
ATOM     13  S   UNL     1       2.421  13.841  19.966  0.00  0.00    +0.000 S 
ATOM     14  O   UNL     1       3.472  13.809  18.963  0.00  0.00    +0.000 OA
ATOM     15  O   UNL     1       2.775  13.672  21.363  0.00  0.00    +0.000 OA
BRANCH  13  16
ATOM     16  N   UNL     1       1.704  15.414  19.851  0.00  0.00    +0.000 NA
BRANCH  16  18
ATOM     17  C   UNL     1       0.227  16.092  21.795  0.00  0.00    +0.000 C 
ATOM     18  C   UNL     1       1.628  16.059  21.207  0.00  0.00    +0.000 C 
ENDBRANCH  16  18
BRANCH  16  19
ATOM     19  C   UNL     1       2.174  16.302  18.751  0.00  0.00    +0.000 C 
ATOM     20  C   UNL     1       1.163  17.334  18.295  0.00  0.00    +0.000 C 
ENDBRANCH  16  19
ENDBRANCH  13  16
ENDBRANCH   6  13
ENDBRANCH   5  11
ENDBRANCH   1   5
BRANCH   3  21
ATOM     21  C   UNL     1       3.366   6.410  18.796  0.00  0.00    +0.000 C 
BRANCH  21  22
ATOM     22  C   UNL     1       2.429   5.231  19.070  0.00  0.00    +0.000 A 
ATOM     23  C   UNL     1       2.042   4.357  18.038  0.00  0.00    +0.000 A 
ATOM     24  C   UNL     1       1.230   3.253  18.306  0.00  0.00    +0.000 A 
ATOM     25  C   UNL     1       0.795   3.005  19.604  0.00  0.00    +0.000 A 
ATOM     26  C   UNL     1       1.167   3.861  20.638  0.00  0.00    +0.000 A 
ATOM     27  C   UNL     1       1.976   4.970  20.374  0.00  0.00    +0.000 A 
ENDBRANCH  21  22
BRANCH  21  28
ATOM     28  C   UNL     1       4.622   5.973  18.035  0.00  0.00    +0.000 A 
ATOM     29  C   UNL     1       4.806   6.220  16.664  0.00  0.00    +0.000 A 
ATOM     30  C   UNL     1       5.938   5.747  15.996  0.00  0.00    +0.000 A 
ATOM     31  C   UNL     1       6.914   5.033  16.688  0.00  0.00    +0.000 A 
ATOM     32  C   UNL     1       6.773   4.812  18.053  0.00  0.00    +0.000 A 
ATOM     33  C   UNL     1       5.644   5.287  18.722  0.00  0.00    +0.000 A 
ENDBRANCH  21  28
ENDBRANCH   3  21
TORSDOF 9
ENDMDL
MODEL 7
REMARK VINA RESULT:      -7.7      2.244      5.211
REMARK  Name = 
REMARK  11 active torsions:
REMARK  status: ('A' for Active; 'I' for Inactive)
REMARK    1  A    between atoms: C_1  and  C_2
REMARK    2  A    between atoms: C_2  and  N_3
REMARK    3  A    between atoms: N_3  and  C_4
REMARK    4  A    between atoms: N_3  and  S_6
REMARK    5  A    between atoms: C_4  and  C_5
REMARK    6  A    between atoms: S_6  and  C_9
REMARK    7  A    between atoms: N_14  and  C_15
REMARK    8  A    between atoms: C_15  and  C_16
REMARK    9  A    between atoms: N_18  and  C_19
REMARK   10  A    between atoms: C_19  and  C_20
REMARK   11  A    between atoms: C_19  and  C_26
REMARK                            x       y       z     vdW  Elec       q    Type
REMARK                         _______ _______ _______ _____ _____    ______ ____
ROOT
ATOM      1  C   UNL     1       1.823   8.400  18.780  0.00  0.00    +0.000 C 
ATOM      2  O   UNL     1       1.705   8.517  19.998  0.00  0.00    +0.000 OA
ATOM      3  N   UNL     1       2.632   7.464  18.180  0.00  0.00    +0.000 N 
ATOM      4  H   UNL     1       2.801   7.530  17.182  0.00  0.00    +0.000 HD
ENDROOT
BRANCH   1   5
ATOM      5  C   UNL     1       1.118   9.346  17.806  0.00  0.00    +0.000 C 
BRANCH   5  11
ATOM      6  C   UNL     1       0.380  12.295  19.928  0.00  0.00    +0.000 A 
ATOM      7  C   UNL     1      -1.068  12.297  19.929  0.00  0.00    +0.000 A 
ATOM      8  C   UNL     1      -1.750  11.385  19.221  0.00  0.00    +0.000 A 
ATOM      9  C   UNL     1      -1.027  10.362  18.411  0.00  0.00    +0.000 A 
ATOM     10  O   UNL     1      -1.658   9.576  17.710  0.00  0.00    +0.000 OA
ATOM     11  N   UNL     1       0.361  10.378  18.513  0.00  0.00    +0.000 N 
ATOM     12  C   UNL     1       1.040  11.342  19.249  0.00  0.00    +0.000 A 
BRANCH   6  13
ATOM     13  S   UNL     1       1.306  13.445  20.874  0.00  0.00    +0.000 S 
ATOM     14  O   UNL     1       2.628  12.902  21.136  0.00  0.00    +0.000 OA
ATOM     15  O   UNL     1       0.483  13.869  21.992  0.00  0.00    +0.000 OA
BRANCH  13  16
ATOM     16  N   UNL     1       1.559  14.866  19.914  0.00  0.00    +0.000 NA
BRANCH  16  18
ATOM     17  C   UNL     1       3.140  15.032  17.942  0.00  0.00    +0.000 C 
ATOM     18  C   UNL     1       2.987  14.942  19.451  0.00  0.00    +0.000 C 
ENDBRANCH  16  18
BRANCH  16  19
ATOM     19  C   UNL     1       0.538  15.181  18.876  0.00  0.00    +0.000 C 
ATOM     20  C   UNL     1      -0.311  16.400  19.173  0.00  0.00    +0.000 C 
ENDBRANCH  16  19
ENDBRANCH  13  16
ENDBRANCH   6  13
ENDBRANCH   5  11
ENDBRANCH   1   5
BRANCH   3  21
ATOM     21  C   UNL     1       3.363   6.444  18.922  0.00  0.00    +0.000 C 
BRANCH  21  22
ATOM     22  C   UNL     1       2.446   5.235  19.125  0.00  0.00    +0.000 A 
ATOM     23  C   UNL     1       1.913   4.935  20.391  0.00  0.00    +0.000 A 
ATOM     24  C   UNL     1       1.034   3.862  20.559  0.00  0.00    +0.000 A 
ATOM     25  C   UNL     1       0.676   3.077  19.467  0.00  0.00    +0.000 A 
ATOM     26  C   UNL     1       1.196   3.359  18.206  0.00  0.00    +0.000 A 
ATOM     27  C   UNL     1       2.079   4.429  18.035  0.00  0.00    +0.000 A 
ENDBRANCH  21  22
BRANCH  21  28
ATOM     28  C   UNL     1       4.688   6.049  18.261  0.00  0.00    +0.000 A 
ATOM     29  C   UNL     1       5.685   5.320  18.929  0.00  0.00    +0.000 A 
ATOM     30  C   UNL     1       6.904   5.038  18.309  0.00  0.00    +0.000 A 
ATOM     31  C   UNL     1       7.144   5.466  17.004  0.00  0.00    +0.000 A 
ATOM     32  C   UNL     1       6.156   6.154  16.309  0.00  0.00    +0.000 A 
ATOM     33  C   UNL     1       4.936   6.433  16.927  0.00  0.00    +0.000 A 
ENDBRANCH  21  28
ENDBRANCH   3  21
TORSDOF 9
ENDMDL
MODEL 8
REMARK VINA RESULT:      -7.7      2.746      4.508
REMARK  Name = 
REMARK  11 active torsions:
REMARK  status: ('A' for Active; 'I' for Inactive)
REMARK    1  A    between atoms: C_1  and  C_2
REMARK    2  A    between atoms: C_2  and  N_3
REMARK    3  A    between atoms: N_3  and  C_4
REMARK    4  A    between atoms: N_3  and  S_6
REMARK    5  A    between atoms: C_4  and  C_5
REMARK    6  A    between atoms: S_6  and  C_9
REMARK    7  A    between atoms: N_14  and  C_15
REMARK    8  A    between atoms: C_15  and  C_16
REMARK    9  A    between atoms: N_18  and  C_19
REMARK   10  A    between atoms: C_19  and  C_20
REMARK   11  A    between atoms: C_19  and  C_26
REMARK                            x       y       z     vdW  Elec       q    Type
REMARK                         _______ _______ _______ _____ _____    ______ ____
ROOT
ATOM      1  C   UNL     1       1.787   8.327  18.940  0.00  0.00    +0.000 C 
ATOM      2  O   UNL     1       1.769   8.432  20.165  0.00  0.00    +0.000 OA
ATOM      3  N   UNL     1       2.550   7.403  18.267  0.00  0.00    +0.000 N 
ATOM      4  H   UNL     1       2.636   7.479  17.259  0.00  0.00    +0.000 HD
ENDROOT
BRANCH   1   5
ATOM      5  C   UNL     1       0.997   9.276  18.037  0.00  0.00    +0.000 C 
BRANCH   5  11
ATOM      6  C   UNL     1       0.027  12.380  19.818  0.00  0.00    +0.000 A 
ATOM      7  C   UNL     1       1.080  13.287  19.414  0.00  0.00    +0.000 A 
ATOM      8  C   UNL     1       2.079  12.864  18.625  0.00  0.00    +0.000 A 
ATOM      9  C   UNL     1       2.125  11.447  18.162  0.00  0.00    +0.000 A 
ATOM     10  O   UNL     1       3.080  11.049  17.499  0.00  0.00    +0.000 OA
ATOM     11  N   UNL     1       1.045  10.652  18.532  0.00  0.00    +0.000 N 
ATOM     12  C   UNL     1       0.028  11.117  19.358  0.00  0.00    +0.000 A 
BRANCH   6  13
ATOM     13  S   UNL     1      -1.316  12.907  20.814  0.00  0.00    +0.000 S 
ATOM     14  O   UNL     1      -2.481  12.087  20.529  0.00  0.00    +0.000 OA
ATOM     15  O   UNL     1      -1.423  14.350  20.691  0.00  0.00    +0.000 OA
BRANCH  13  16
ATOM     16  N   UNL     1      -0.919  12.606  22.473  0.00  0.00    +0.000 NA
BRANCH  16  18
ATOM     17  C   UNL     1      -2.608  13.902  23.847  0.00  0.00    +0.000 C 
ATOM     18  C   UNL     1      -1.188  13.826  23.309  0.00  0.00    +0.000 C 
ENDBRANCH  16  18
BRANCH  16  19
ATOM     19  C   UNL     1      -1.377  11.318  23.064  0.00  0.00    +0.000 C 
ATOM     20  C   UNL     1      -0.412  10.163  22.890  0.00  0.00    +0.000 C 
ENDBRANCH  16  19
ENDBRANCH  13  16
ENDBRANCH   6  13
ENDBRANCH   5  11
ENDBRANCH   1   5
BRANCH   3  21
ATOM     21  C   UNL     1       3.348   6.382  18.936  0.00  0.00    +0.000 C 
BRANCH  21  22
ATOM     22  C   UNL     1       2.466   5.156  19.183  0.00  0.00    +0.000 A 
ATOM     23  C   UNL     1       2.029   4.826  20.478  0.00  0.00    +0.000 A 
ATOM     24  C   UNL     1       1.181   3.736  20.689  0.00  0.00    +0.000 A 
ATOM     25  C   UNL     1       0.757   2.964  19.612  0.00  0.00    +0.000 A 
ATOM     26  C   UNL     1       1.181   3.276  18.322  0.00  0.00    +0.000 A 
ATOM     27  C   UNL     1       2.033   4.362  18.107  0.00  0.00    +0.000 A 
ENDBRANCH  21  22
BRANCH  21  28
ATOM     28  C   UNL     1       4.627   6.020  18.174  0.00  0.00    +0.000 A 
ATOM     29  C   UNL     1       5.645   5.226  18.729  0.00  0.00    +0.000 A 
ATOM     30  C   UNL     1       6.823   4.975  18.023  0.00  0.00    +0.000 A 
ATOM     31  C   UNL     1       7.001   5.499  16.743  0.00  0.00    +0.000 A 
ATOM     32  C   UNL     1       5.990   6.253  16.159  0.00  0.00    +0.000 A 
ATOM     33  C   UNL     1       4.810   6.502  16.863  0.00  0.00    +0.000 A 
ENDBRANCH  21  28
ENDBRANCH   3  21
TORSDOF 9
ENDMDL
MODEL 9
REMARK VINA RESULT:      -7.7      2.253      5.288
REMARK  Name = 
REMARK  11 active torsions:
REMARK  status: ('A' for Active; 'I' for Inactive)
REMARK    1  A    between atoms: C_1  and  C_2
REMARK    2  A    between atoms: C_2  and  N_3
REMARK    3  A    between atoms: N_3  and  C_4
REMARK    4  A    between atoms: N_3  and  S_6
REMARK    5  A    between atoms: C_4  and  C_5
REMARK    6  A    between atoms: S_6  and  C_9
REMARK    7  A    between atoms: N_14  and  C_15
REMARK    8  A    between atoms: C_15  and  C_16
REMARK    9  A    between atoms: N_18  and  C_19
REMARK   10  A    between atoms: C_19  and  C_20
REMARK   11  A    between atoms: C_19  and  C_26
REMARK                            x       y       z     vdW  Elec       q    Type
REMARK                         _______ _______ _______ _____ _____    ______ ____
ROOT
ATOM      1  C   UNL     1       1.822   8.459  18.806  0.00  0.00    +0.000 C 
ATOM      2  O   UNL     1       1.660   8.554  20.021  0.00  0.00    +0.000 OA
ATOM      3  N   UNL     1       2.642   7.525  18.219  0.00  0.00    +0.000 N 
ATOM      4  H   UNL     1       2.850   7.608  17.230  0.00  0.00    +0.000 HD
ENDROOT
BRANCH   1   5
ATOM      5  C   UNL     1       1.166   9.432  17.825  0.00  0.00    +0.000 C 
BRANCH   5  11
ATOM      6  C   UNL     1       0.400  12.412  19.894  0.00  0.00    +0.000 A 
ATOM      7  C   UNL     1      -1.047  12.380  19.925  0.00  0.00    +0.000 A 
ATOM      8  C   UNL     1      -1.722  11.436  19.252  0.00  0.00    +0.000 A 
ATOM      9  C   UNL     1      -0.990  10.412  18.452  0.00  0.00    +0.000 A 
ATOM     10  O   UNL     1      -1.617   9.595  17.782  0.00  0.00    +0.000 OA
ATOM     11  N   UNL     1       0.399  10.463  18.525  0.00  0.00    +0.000 N 
ATOM     12  C   UNL     1       1.070  11.459  19.224  0.00  0.00    +0.000 A 
BRANCH   6  13
ATOM     13  S   UNL     1       1.317  13.605  20.794  0.00  0.00    +0.000 S 
ATOM     14  O   UNL     1       2.562  13.013  21.254  0.00  0.00    +0.000 OA
ATOM     15  O   UNL     1       0.426  14.215  21.764  0.00  0.00    +0.000 OA
BRANCH  13  16
ATOM     16  N   UNL     1       1.771  14.879  19.710  0.00  0.00    +0.000 NA
BRANCH  16  18
ATOM     17  C   UNL     1      -0.218  16.124  18.755  0.00  0.00    +0.000 C 
ATOM     18  C   UNL     1       0.835  16.047  19.848  0.00  0.00    +0.000 C 
ENDBRANCH  16  18
BRANCH  16  19
ATOM     19  C   UNL     1       3.216  15.229  19.632  0.00  0.00    +0.000 C 
ATOM     20  C   UNL     1       3.501  16.706  19.446  0.00  0.00    +0.000 C 
ENDBRANCH  16  19
ENDBRANCH  13  16
ENDBRANCH   6  13
ENDBRANCH   5  11
ENDBRANCH   1   5
BRANCH   3  21
ATOM     21  C   UNL     1       3.333   6.482  18.968  0.00  0.00    +0.000 C 
BRANCH  21  22
ATOM     22  C   UNL     1       2.381   5.297  19.148  0.00  0.00    +0.000 A 
ATOM     23  C   UNL     1       2.029   4.478  18.060  0.00  0.00    +0.000 A 
ATOM     24  C   UNL     1       1.202   3.367  18.241  0.00  0.00    +0.000 A 
ATOM     25  C   UNL     1       0.718   3.058  19.509  0.00  0.00    +0.000 A 
ATOM     26  C   UNL     1       1.055   3.859  20.598  0.00  0.00    +0.000 A 
ATOM     27  C   UNL     1       1.879   4.974  20.419  0.00  0.00    +0.000 A 
ENDBRANCH  21  22
BRANCH  21  28
ATOM     28  C   UNL     1       4.658   6.055  18.327  0.00  0.00    +0.000 A 
ATOM     29  C   UNL     1       5.608   5.266  18.996  0.00  0.00    +0.000 A 
ATOM     30  C   UNL     1       6.831   4.956  18.397  0.00  0.00    +0.000 A 
ATOM     31  C   UNL     1       7.122   5.415  17.114  0.00  0.00    +0.000 A 
ATOM     32  C   UNL     1       6.180   6.163  16.417  0.00  0.00    +0.000 A 
ATOM     33  C   UNL     1       4.956   6.471  17.014  0.00  0.00    +0.000 A 
ENDBRANCH  21  28
ENDBRANCH   3  21
TORSDOF 9
ENDMDL
