MODEL 1
REMARK VINA RESULT:      -7.3      0.000      0.000
REMARK  Name = 
REMARK  7 active torsions:
REMARK  status: ('A' for Active; 'I' for Inactive)
REMARK    1  A    between atoms: C_1  and  O_2
REMARK    2  A    between atoms: O_2  and  C_3
REMARK    3  A    between atoms: C_6  and  C_7
REMARK    4  A    between atoms: N_9  and  O_10
REMARK    5  A    between atoms: C_12  and  O_13
REMARK    6  A    between atoms: O_13  and  C_14
REMARK    7  A    between atoms: C_14  and  C_15
REMARK                            x       y       z     vdW  Elec       q    Type
REMARK                         _______ _______ _______ _____ _____    ______ ____
ROOT
ATOM      1  C   UNL     1       5.399   3.910  18.331  0.00  0.00    +0.000 A 
ATOM      2  C   UNL     1       6.702   4.400  18.125  0.00  0.00    +0.000 A 
ATOM      3  C   UNL     1       7.212   4.623  16.845  0.00  0.00    +0.000 A 
ATOM      4  C   UNL     1       6.390   4.407  15.744  0.00  0.00    +0.000 A 
ATOM      5  C   UNL     1       5.092   3.921  15.935  0.00  0.00    +0.000 A 
ATOM      6  C   UNL     1       4.588   3.625  17.219  0.00  0.00    +0.000 A 
ENDROOT
BRANCH   4   7
ATOM      7  C   UNL     1       6.849   4.642  14.355  0.00  0.00    +0.000 C 
ATOM      8  O   UNL     1       6.280   4.127  13.397  0.00  0.00    +0.000 OA
ATOM      9  N   UNL     1       7.906   5.515  14.195  0.00  0.00    +0.000 N 
ATOM     10  H   UNL     1       8.152   6.197  14.904  0.00  0.00    +0.000 HD
BRANCH   9  11
ATOM     11  O   UNL     1       8.189   5.874  12.858  0.00  0.00    +0.000 OA
ATOM     12  H   UNL     1       8.693   6.711  12.966  0.00  0.00    +0.000 HD
ENDBRANCH   9  11
ENDBRANCH   4   7
BRANCH   1  14
ATOM     13  C   UNL     1       4.679   2.565  20.193  0.00  0.00    +0.000 C 
ATOM     14  O   UNL     1       5.122   3.800  19.664  0.00  0.00    +0.000 OA
ENDBRANCH   1  14
BRANCH   6  15
ATOM     15  O   UNL     1       3.334   3.080  17.395  0.00  0.00    +0.000 OA
BRANCH  15  16
ATOM     16  C   UNL     1       2.256   4.023  17.269  0.00  0.00    +0.000 C 
BRANCH  16  17
ATOM     17  C   UNL     1       2.179   5.044  18.382  0.00  0.00    +0.000 A 
ATOM     18  C   UNL     1       2.473   6.388  18.083  0.00  0.00    +0.000 A 
ATOM     19  C   UNL     1       2.307   7.385  19.043  0.00  0.00    +0.000 A 
ATOM     20  C   UNL     1       1.841   7.048  20.310  0.00  0.00    +0.000 A 
ATOM     21 CL   UNL     1       1.617   8.278  21.493  0.00  0.00    +0.000 Cl
ATOM     22  C   UNL     1       1.536   5.727  20.623  0.00  0.00    +0.000 A 
ATOM     23  C   UNL     1       1.700   4.724  19.656  0.00  0.00    +0.000 A 
ENDBRANCH  16  17
ENDBRANCH  15  16
ENDBRANCH   6  15
TORSDOF 6
ENDMDL
MODEL 2
REMARK VINA RESULT:      -7.2      3.428      5.269
REMARK  Name = 
REMARK  7 active torsions:
REMARK  status: ('A' for Active; 'I' for Inactive)
REMARK    1  A    between atoms: C_1  and  O_2
REMARK    2  A    between atoms: O_2  and  C_3
REMARK    3  A    between atoms: C_6  and  C_7
REMARK    4  A    between atoms: N_9  and  O_10
REMARK    5  A    between atoms: C_12  and  O_13
REMARK    6  A    between atoms: O_13  and  C_14
REMARK    7  A    between atoms: C_14  and  C_15
REMARK                            x       y       z     vdW  Elec       q    Type
REMARK                         _______ _______ _______ _____ _____    ______ ____
ROOT
ATOM      1  C   UNL     1       1.429   4.193  19.931  0.00  0.00    +0.000 A 
ATOM      2  C   UNL     1       1.534   5.360  20.711  0.00  0.00    +0.000 A 
ATOM      3  C   UNL     1       1.912   6.584  20.158  0.00  0.00    +0.000 A 
ATOM      4  C   UNL     1       2.138   6.665  18.788  0.00  0.00    +0.000 A 
ATOM      5  C   UNL     1       2.035   5.513  18.001  0.00  0.00    +0.000 A 
ATOM      6  C   UNL     1       1.722   4.255  18.558  0.00  0.00    +0.000 A 
ENDROOT
BRANCH   4   7
ATOM      7  C   UNL     1       2.520   7.932  18.122  0.00  0.00    +0.000 C 
ATOM      8  O   UNL     1       3.564   8.030  17.483  0.00  0.00    +0.000 OA
ATOM      9  N   UNL     1       1.614   8.970  18.207  0.00  0.00    +0.000 N 
ATOM     10  H   UNL     1       0.633   8.813  18.412  0.00  0.00    +0.000 HD
BRANCH   9  11
ATOM     11  O   UNL     1       1.910  10.091  17.398  0.00  0.00    +0.000 OA
ATOM     12  H   UNL     1       2.611  10.545  17.917  0.00  0.00    +0.000 HD
ENDBRANCH   9  11
ENDBRANCH   4   7
BRANCH   1  14
ATOM     13  C   UNL     1       1.891   2.579  21.657  0.00  0.00    +0.000 C 
ATOM     14  O   UNL     1       1.020   3.133  20.689  0.00  0.00    +0.000 OA
ENDBRANCH   1  14
BRANCH   6  15
ATOM     15  O   UNL     1       1.693   3.111  17.789  0.00  0.00    +0.000 OA
BRANCH  15  16
ATOM     16  C   UNL     1       2.946   2.408  17.726  0.00  0.00    +0.000 C 
BRANCH  16  17
ATOM     17  C   UNL     1       4.167   3.299  17.708  0.00  0.00    +0.000 A 
ATOM     18  C   UNL     1       4.564   3.872  16.485  0.00  0.00    +0.000 A 
ATOM     19  C   UNL     1       5.612   4.790  16.433  0.00  0.00    +0.000 A 
ATOM     20  C   UNL     1       6.271   5.146  17.606  0.00  0.00    +0.000 A 
ATOM     21 CL   UNL     1       7.555   6.292  17.550  0.00  0.00    +0.000 Cl
ATOM     22  C   UNL     1       5.890   4.598  18.827  0.00  0.00    +0.000 A 
ATOM     23  C   UNL     1       4.832   3.678  18.879  0.00  0.00    +0.000 A 
ENDBRANCH  16  17
ENDBRANCH  15  16
ENDBRANCH   6  15
TORSDOF 6
ENDMDL
MODEL 3
REMARK VINA RESULT:      -7.1      2.182      2.710
REMARK  Name = 
REMARK  7 active torsions:
REMARK  status: ('A' for Active; 'I' for Inactive)
REMARK    1  A    between atoms: C_1  and  O_2
REMARK    2  A    between atoms: O_2  and  C_3
REMARK    3  A    between atoms: C_6  and  C_7
REMARK    4  A    between atoms: N_9  and  O_10
REMARK    5  A    between atoms: C_12  and  O_13
REMARK    6  A    between atoms: O_13  and  C_14
REMARK    7  A    between atoms: C_14  and  C_15
REMARK                            x       y       z     vdW  Elec       q    Type
REMARK                         _______ _______ _______ _____ _____    ______ ____
ROOT
ATOM      1  C   UNL     1       6.444   5.560  18.158  0.00  0.00    +0.000 A 
ATOM      2  C   UNL     1       7.313   4.550  17.704  0.00  0.00    +0.000 A 
ATOM      3  C   UNL     1       7.426   4.228  16.351  0.00  0.00    +0.000 A 
ATOM      4  C   UNL     1       6.699   4.962  15.419  0.00  0.00    +0.000 A 
ATOM      5  C   UNL     1       5.833   5.970  15.857  0.00  0.00    +0.000 A 
ATOM      6  C   UNL     1       5.657   6.259  17.227  0.00  0.00    +0.000 A 
ENDROOT
BRANCH   4   7
ATOM      7  C   UNL     1       6.781   4.696  13.964  0.00  0.00    +0.000 C 
ATOM      8  O   UNL     1       7.466   5.396  13.224  0.00  0.00    +0.000 OA
ATOM      9  N   UNL     1       6.098   3.590  13.500  0.00  0.00    +0.000 N 
ATOM     10  H   UNL     1       5.831   2.827  14.112  0.00  0.00    +0.000 HD
BRANCH   9  11
ATOM     11  O   UNL     1       6.357   3.249  12.153  0.00  0.00    +0.000 OA
ATOM     12  H   UNL     1       5.584   2.685  11.927  0.00  0.00    +0.000 HD
ENDBRANCH   9  11
ENDBRANCH   4   7
BRANCH   1  14
ATOM     13  C   UNL     1       7.792   5.650  20.150  0.00  0.00    +0.000 C 
ATOM     14  O   UNL     1       6.530   5.708  19.513  0.00  0.00    +0.000 OA
ENDBRANCH   1  14
BRANCH   6  15
ATOM     15  O   UNL     1       4.749   7.204  17.655  0.00  0.00    +0.000 OA
BRANCH  15  16
ATOM     16  C   UNL     1       3.380   6.890  17.349  0.00  0.00    +0.000 C 
BRANCH  16  17
ATOM     17  C   UNL     1       2.721   5.936  18.319  0.00  0.00    +0.000 A 
ATOM     18  C   UNL     1       2.243   4.705  17.831  0.00  0.00    +0.000 A 
ATOM     19  C   UNL     1       1.732   3.742  18.700  0.00  0.00    +0.000 A 
ATOM     20  C   UNL     1       1.698   4.001  20.067  0.00  0.00    +0.000 A 
ATOM     21 CL   UNL     1       1.083   2.809  21.147  0.00  0.00    +0.000 Cl
ATOM     22  C   UNL     1       2.173   5.208  20.571  0.00  0.00    +0.000 A 
ATOM     23  C   UNL     1       2.691   6.174  19.697  0.00  0.00    +0.000 A 
ENDBRANCH  16  17
ENDBRANCH  15  16
ENDBRANCH   6  15
TORSDOF 6
ENDMDL
MODEL 4
REMARK VINA RESULT:      -7.1      0.211      1.076
REMARK  Name = 
REMARK  7 active torsions:
REMARK  status: ('A' for Active; 'I' for Inactive)
REMARK    1  A    between atoms: C_1  and  O_2
REMARK    2  A    between atoms: O_2  and  C_3
REMARK    3  A    between atoms: C_6  and  C_7
REMARK    4  A    between atoms: N_9  and  O_10
REMARK    5  A    between atoms: C_12  and  O_13
REMARK    6  A    between atoms: O_13  and  C_14
REMARK    7  A    between atoms: C_14  and  C_15
REMARK                            x       y       z     vdW  Elec       q    Type
REMARK                         _______ _______ _______ _____ _____    ______ ____
ROOT
ATOM      1  C   UNL     1       5.323   3.889  18.421  0.00  0.00    +0.000 A 
ATOM      2  C   UNL     1       6.583   4.481  18.215  0.00  0.00    +0.000 A 
ATOM      3  C   UNL     1       7.086   4.716  16.935  0.00  0.00    +0.000 A 
ATOM      4  C   UNL     1       6.298   4.407  15.832  0.00  0.00    +0.000 A 
ATOM      5  C   UNL     1       5.042   3.820  16.023  0.00  0.00    +0.000 A 
ATOM      6  C   UNL     1       4.550   3.513  17.310  0.00  0.00    +0.000 A 
ENDROOT
BRANCH   4   7
ATOM      7  C   UNL     1       6.750   4.647  14.442  0.00  0.00    +0.000 C 
ATOM      8  O   UNL     1       6.169   4.146  13.484  0.00  0.00    +0.000 OA
ATOM      9  N   UNL     1       7.817   5.509  14.282  0.00  0.00    +0.000 N 
ATOM     10  H   UNL     1       8.075   6.183  14.994  0.00  0.00    +0.000 HD
BRANCH   9  11
ATOM     11  O   UNL     1       8.095   5.874  12.945  0.00  0.00    +0.000 OA
ATOM     12  H   UNL     1       8.563   6.732  13.055  0.00  0.00    +0.000 HD
ENDBRANCH   9  11
ENDBRANCH   4   7
BRANCH   1  14
ATOM     13  C   UNL     1       4.593   2.557  20.289  0.00  0.00    +0.000 C 
ATOM     14  O   UNL     1       5.041   3.788  19.754  0.00  0.00    +0.000 OA
ENDBRANCH   1  14
BRANCH   6  15
ATOM     15  O   UNL     1       3.344   2.869  17.487  0.00  0.00    +0.000 OA
BRANCH  15  16
ATOM     16  C   UNL     1       2.192   3.697  17.254  0.00  0.00    +0.000 C 
BRANCH  16  17
ATOM     17  C   UNL     1       2.024   4.833  18.238  0.00  0.00    +0.000 A 
ATOM     18  C   UNL     1       1.609   4.532  19.549  0.00  0.00    +0.000 A 
ATOM     19  C   UNL     1       1.548   5.526  20.525  0.00  0.00    +0.000 A 
ATOM     20  C   UNL     1       1.907   6.830  20.199  0.00  0.00    +0.000 A 
ATOM     21 CL   UNL     1       1.851   8.058  21.404  0.00  0.00    +0.000 Cl
ATOM     22  C   UNL     1       2.329   7.148  18.911  0.00  0.00    +0.000 A 
ATOM     23  C   UNL     1       2.393   6.147  17.931  0.00  0.00    +0.000 A 
ENDBRANCH  16  17
ENDBRANCH  15  16
ENDBRANCH   6  15
TORSDOF 6
ENDMDL
MODEL 5
REMARK VINA RESULT:      -7.1      3.387      5.500
REMARK  Name = 
REMARK  7 active torsions:
REMARK  status: ('A' for Active; 'I' for Inactive)
REMARK    1  A    between atoms: C_1  and  O_2
REMARK    2  A    between atoms: O_2  and  C_3
REMARK    3  A    between atoms: C_6  and  C_7
REMARK    4  A    between atoms: N_9  and  O_10
REMARK    5  A    between atoms: C_12  and  O_13
REMARK    6  A    between atoms: O_13  and  C_14
REMARK    7  A    between atoms: C_14  and  C_15
REMARK                            x       y       z     vdW  Elec       q    Type
REMARK                         _______ _______ _______ _____ _____    ______ ____
ROOT
ATOM      1  C   UNL     1       2.307   4.141  19.693  0.00  0.00    +0.000 A 
ATOM      2  C   UNL     1       2.030   5.029  20.750  0.00  0.00    +0.000 A 
ATOM      3  C   UNL     1       1.882   6.401  20.540  0.00  0.00    +0.000 A 
ATOM      4  C   UNL     1       1.957   6.898  19.243  0.00  0.00    +0.000 A 
ATOM      5  C   UNL     1       2.230   6.025  18.183  0.00  0.00    +0.000 A 
ATOM      6  C   UNL     1       2.451   4.647  18.390  0.00  0.00    +0.000 A 
ENDROOT
BRANCH   4   7
ATOM      7  C   UNL     1       1.788   8.337  18.936  0.00  0.00    +0.000 C 
ATOM      8  O   UNL     1       1.460   9.142  19.803  0.00  0.00    +0.000 OA
ATOM      9  N   UNL     1       2.077   8.729  17.645  0.00  0.00    +0.000 N 
ATOM     10  H   UNL     1       2.665   8.174  17.033  0.00  0.00    +0.000 HD
BRANCH   9  11
ATOM     11  O   UNL     1       2.102  10.127  17.435  0.00  0.00    +0.000 OA
ATOM     12  H   UNL     1       2.949  10.389  17.861  0.00  0.00    +0.000 HD
ENDBRANCH   9  11
ENDBRANCH   4   7
BRANCH   1  14
ATOM     13  C   UNL     1       2.360   2.589  21.532  0.00  0.00    +0.000 C 
ATOM     14  O   UNL     1       2.381   2.853  20.142  0.00  0.00    +0.000 OA
ENDBRANCH   1  14
BRANCH   6  15
ATOM     15  O   UNL     1       2.790   3.806  17.352  0.00  0.00    +0.000 OA
BRANCH  15  16
ATOM     16  C   UNL     1       4.152   3.348  17.382  0.00  0.00    +0.000 C 
BRANCH  16  17
ATOM     17  C   UNL     1       5.186   4.450  17.442  0.00  0.00    +0.000 A 
ATOM     18  C   UNL     1       5.273   5.351  16.364  0.00  0.00    +0.000 A 
ATOM     19  C   UNL     1       6.127   6.451  16.420  0.00  0.00    +0.000 A 
ATOM     20  C   UNL     1       6.901   6.662  17.557  0.00  0.00    +0.000 A 
ATOM     21 CL   UNL     1       7.946   8.028  17.637  0.00  0.00    +0.000 Cl
ATOM     22  C   UNL     1       6.825   5.788  18.637  0.00  0.00    +0.000 A 
ATOM     23  C   UNL     1       5.962   4.685  18.582  0.00  0.00    +0.000 A 
ENDBRANCH  16  17
ENDBRANCH  15  16
ENDBRANCH   6  15
TORSDOF 6
ENDMDL
MODEL 6
REMARK VINA RESULT:      -7.1      1.994      2.776
REMARK  Name = 
REMARK  7 active torsions:
REMARK  status: ('A' for Active; 'I' for Inactive)
REMARK    1  A    between atoms: C_1  and  O_2
REMARK    2  A    between atoms: O_2  and  C_3
REMARK    3  A    between atoms: C_6  and  C_7
REMARK    4  A    between atoms: N_9  and  O_10
REMARK    5  A    between atoms: C_12  and  O_13
REMARK    6  A    between atoms: O_13  and  C_14
REMARK    7  A    between atoms: C_14  and  C_15
REMARK                            x       y       z     vdW  Elec       q    Type
REMARK                         _______ _______ _______ _____ _____    ______ ____
ROOT
ATOM      1  C   UNL     1       3.663   5.021  18.015  0.00  0.00    +0.000 A 
ATOM      2  C   UNL     1       3.981   3.775  17.445  0.00  0.00    +0.000 A 
ATOM      3  C   UNL     1       4.831   3.664  16.343  0.00  0.00    +0.000 A 
ATOM      4  C   UNL     1       5.421   4.813  15.827  0.00  0.00    +0.000 A 
ATOM      5  C   UNL     1       5.114   6.059  16.387  0.00  0.00    +0.000 A 
ATOM      6  C   UNL     1       4.203   6.191  17.456  0.00  0.00    +0.000 A 
ENDROOT
BRANCH   4   7
ATOM      7  C   UNL     1       6.350   4.777  14.674  0.00  0.00    +0.000 C 
ATOM      8  O   UNL     1       6.092   4.128  13.665  0.00  0.00    +0.000 OA
ATOM      9  N   UNL     1       7.485   5.556  14.772  0.00  0.00    +0.000 N 
ATOM     10  H   UNL     1       7.545   6.341  15.412  0.00  0.00    +0.000 HD
BRANCH   9  11
ATOM     11  O   UNL     1       8.246   5.659  13.585  0.00  0.00    +0.000 OA
ATOM     12  H   UNL     1       7.652   5.246  12.919  0.00  0.00    +0.000 HD
ENDBRANCH   9  11
ENDBRANCH   4   7
BRANCH   1  14
ATOM     13  C   UNL     1       1.615   4.174  18.955  0.00  0.00    +0.000 C 
ATOM     14  O   UNL     1       2.840   4.869  19.095  0.00  0.00    +0.000 OA
ENDBRANCH   1  14
BRANCH   6  15
ATOM     15  O   UNL     1       3.851   7.427  17.955  0.00  0.00    +0.000 OA
BRANCH  15  16
ATOM     16  C   UNL     1       2.463   7.760  17.786  0.00  0.00    +0.000 C 
BRANCH  16  17
ATOM     17  C   UNL     1       1.827   8.437  18.978  0.00  0.00    +0.000 A 
ATOM     18  C   UNL     1       1.107   9.629  18.771  0.00  0.00    +0.000 A 
ATOM     19  C   UNL     1       0.407  10.231  19.815  0.00  0.00    +0.000 A 
ATOM     20  C   UNL     1       0.416   9.644  21.076  0.00  0.00    +0.000 A 
ATOM     21 CL   UNL     1      -0.461  10.374  22.365  0.00  0.00    +0.000 Cl
ATOM     22  C   UNL     1       1.114   8.461  21.301  0.00  0.00    +0.000 A 
ATOM     23  C   UNL     1       1.815   7.854  20.250  0.00  0.00    +0.000 A 
ENDBRANCH  16  17
ENDBRANCH  15  16
ENDBRANCH   6  15
TORSDOF 6
ENDMDL
MODEL 7
REMARK VINA RESULT:      -7.0      2.606      3.727
REMARK  Name = 
REMARK  7 active torsions:
REMARK  status: ('A' for Active; 'I' for Inactive)
REMARK    1  A    between atoms: C_1  and  O_2
REMARK    2  A    between atoms: O_2  and  C_3
REMARK    3  A    between atoms: C_6  and  C_7
REMARK    4  A    between atoms: N_9  and  O_10
REMARK    5  A    between atoms: C_12  and  O_13
REMARK    6  A    between atoms: O_13  and  C_14
REMARK    7  A    between atoms: C_14  and  C_15
REMARK                            x       y       z     vdW  Elec       q    Type
REMARK                         _______ _______ _______ _____ _____    ______ ____
ROOT
ATOM      1  C   UNL     1       2.580   4.440  18.573  0.00  0.00    +0.000 A 
ATOM      2  C   UNL     1       3.153   3.613  17.589  0.00  0.00    +0.000 A 
ATOM      3  C   UNL     1       4.215   4.043  16.792  0.00  0.00    +0.000 A 
ATOM      4  C   UNL     1       4.756   5.306  17.011  0.00  0.00    +0.000 A 
ATOM      5  C   UNL     1       4.196   6.137  17.987  0.00  0.00    +0.000 A 
ATOM      6  C   UNL     1       3.079   5.741  18.753  0.00  0.00    +0.000 A 
ENDROOT
BRANCH   4   7
ATOM      7  C   UNL     1       5.897   5.826  16.222  0.00  0.00    +0.000 C 
ATOM      8  O   UNL     1       6.402   6.916  16.472  0.00  0.00    +0.000 OA
ATOM      9  N   UNL     1       6.395   4.996  15.239  0.00  0.00    +0.000 N 
ATOM     10  H   UNL     1       6.236   3.995  15.248  0.00  0.00    +0.000 HD
BRANCH   9  11
ATOM     11  O   UNL     1       7.601   5.431  14.643  0.00  0.00    +0.000 OA
ATOM     12  H   UNL     1       7.472   5.184  13.701  0.00  0.00    +0.000 HD
ENDBRANCH   9  11
ENDBRANCH   4   7
BRANCH   1  14
ATOM     13  C   UNL     1       1.002   2.625  18.678  0.00  0.00    +0.000 C 
ATOM     14  O   UNL     1       1.579   3.790  19.237  0.00  0.00    +0.000 OA
ENDBRANCH   1  14
BRANCH   6  15
ATOM     15  O   UNL     1       2.488   6.593  19.662  0.00  0.00    +0.000 OA
BRANCH  15  16
ATOM     16  C   UNL     1       2.111   7.869  19.118  0.00  0.00    +0.000 C 
BRANCH  16  17
ATOM     17  C   UNL     1       1.239   8.707  20.025  0.00  0.00    +0.000 A 
ATOM     18  C   UNL     1       1.161   8.365  21.389  0.00  0.00    +0.000 A 
ATOM     19  C   UNL     1       0.465   9.170  22.289  0.00  0.00    +0.000 A 
ATOM     20  C   UNL     1      -0.158  10.328  21.833  0.00  0.00    +0.000 A 
ATOM     21 CL   UNL     1      -1.006  11.335  22.943  0.00  0.00    +0.000 Cl
ATOM     22  C   UNL     1      -0.087  10.689  20.491  0.00  0.00    +0.000 A 
ATOM     23  C   UNL     1       0.617   9.881  19.587  0.00  0.00    +0.000 A 
ENDBRANCH  16  17
ENDBRANCH  15  16
ENDBRANCH   6  15
TORSDOF 6
ENDMDL
MODEL 8
REMARK VINA RESULT:      -7.0      2.255      2.805
REMARK  Name = 
REMARK  7 active torsions:
REMARK  status: ('A' for Active; 'I' for Inactive)
REMARK    1  A    between atoms: C_1  and  O_2
REMARK    2  A    between atoms: O_2  and  C_3
REMARK    3  A    between atoms: C_6  and  C_7
REMARK    4  A    between atoms: N_9  and  O_10
REMARK    5  A    between atoms: C_12  and  O_13
REMARK    6  A    between atoms: O_13  and  C_14
REMARK    7  A    between atoms: C_14  and  C_15
REMARK                            x       y       z     vdW  Elec       q    Type
REMARK                         _______ _______ _______ _____ _____    ______ ____
ROOT
ATOM      1  C   UNL     1       6.463   5.604  17.919  0.00  0.00    +0.000 A 
ATOM      2  C   UNL     1       7.296   4.578  17.434  0.00  0.00    +0.000 A 
ATOM      3  C   UNL     1       7.276   4.185  16.095  0.00  0.00    +0.000 A 
ATOM      4  C   UNL     1       6.449   4.862  15.204  0.00  0.00    +0.000 A 
ATOM      5  C   UNL     1       5.618   5.885  15.674  0.00  0.00    +0.000 A 
ATOM      6  C   UNL     1       5.577   6.245  17.038  0.00  0.00    +0.000 A 
ENDROOT
BRANCH   4   7
ATOM      7  C   UNL     1       6.389   4.520  13.764  0.00  0.00    +0.000 C 
ATOM      8  O   UNL     1       7.290   4.837  12.993  0.00  0.00    +0.000 OA
ATOM      9  N   UNL     1       5.300   3.778  13.353  0.00  0.00    +0.000 N 
ATOM     10  H   UNL     1       4.750   3.224  14.001  0.00  0.00    +0.000 HD
BRANCH   9  11
ATOM     11  O   UNL     1       5.371   3.298  12.025  0.00  0.00    +0.000 OA
ATOM     12  H   UNL     1       5.054   2.372  12.119  0.00  0.00    +0.000 HD
ENDBRANCH   9  11
ENDBRANCH   4   7
BRANCH   1  14
ATOM     13  C   UNL     1       7.983   5.669  19.785  0.00  0.00    +0.000 C 
ATOM     14  O   UNL     1       6.683   5.824  19.249  0.00  0.00    +0.000 OA
ENDBRANCH   1  14
BRANCH   6  15
ATOM     15  O   UNL     1       4.704   7.205  17.505  0.00  0.00    +0.000 OA
BRANCH  15  16
ATOM     16  C   UNL     1       3.316   6.866  17.351  0.00  0.00    +0.000 C 
BRANCH  16  17
ATOM     17  C   UNL     1       2.827   5.776  18.278  0.00  0.00    +0.000 A 
ATOM     18  C   UNL     1       2.917   5.983  19.667  0.00  0.00    +0.000 A 
ATOM     19  C   UNL     1       2.377   5.062  20.563  0.00  0.00    +0.000 A 
ATOM     20  C   UNL     1       1.738   3.925  20.077  0.00  0.00    +0.000 A 
ATOM     21 CL   UNL     1       1.054   2.792  21.178  0.00  0.00    +0.000 Cl
ATOM     22  C   UNL     1       1.630   3.705  18.707  0.00  0.00    +0.000 A 
ATOM     23  C   UNL     1       2.170   4.634  17.806  0.00  0.00    +0.000 A 
ENDBRANCH  16  17
ENDBRANCH  15  16
ENDBRANCH   6  15
TORSDOF 6
ENDMDL
MODEL 9
REMARK VINA RESULT:      -7.0      1.976      2.833
REMARK  Name = 
REMARK  7 active torsions:
REMARK  status: ('A' for Active; 'I' for Inactive)
REMARK    1  A    between atoms: C_1  and  O_2
REMARK    2  A    between atoms: O_2  and  C_3
REMARK    3  A    between atoms: C_6  and  C_7
REMARK    4  A    between atoms: N_9  and  O_10
REMARK    5  A    between atoms: C_12  and  O_13
REMARK    6  A    between atoms: O_13  and  C_14
REMARK    7  A    between atoms: C_14  and  C_15
REMARK                            x       y       z     vdW  Elec       q    Type
REMARK                         _______ _______ _______ _____ _____    ______ ____
ROOT
ATOM      1  C   UNL     1       3.709   4.953  18.020  0.00  0.00    +0.000 A 
ATOM      2  C   UNL     1       4.002   3.719  17.409  0.00  0.00    +0.000 A 
ATOM      3  C   UNL     1       4.851   3.627  16.305  0.00  0.00    +0.000 A 
ATOM      4  C   UNL     1       5.467   4.779  15.828  0.00  0.00    +0.000 A 
ATOM      5  C   UNL     1       5.185   6.012  16.428  0.00  0.00    +0.000 A 
ATOM      6  C   UNL     1       4.275   6.129  17.500  0.00  0.00    +0.000 A 
ENDROOT
BRANCH   4   7
ATOM      7  C   UNL     1       6.399   4.760  14.677  0.00  0.00    +0.000 C 
ATOM      8  O   UNL     1       6.162   4.093  13.674  0.00  0.00    +0.000 OA
ATOM      9  N   UNL     1       7.508   5.576  14.768  0.00  0.00    +0.000 N 
ATOM     10  H   UNL     1       7.542   6.369  15.399  0.00  0.00    +0.000 HD
BRANCH   9  11
ATOM     11  O   UNL     1       8.266   5.690  13.580  0.00  0.00    +0.000 OA
ATOM     12  H   UNL     1       8.414   6.660  13.517  0.00  0.00    +0.000 HD
ENDBRANCH   9  11
ENDBRANCH   4   7
BRANCH   1  14
ATOM     13  C   UNL     1       2.494   3.481  19.487  0.00  0.00    +0.000 C 
ATOM     14  O   UNL     1       2.880   4.784  19.092  0.00  0.00    +0.000 OA
ENDBRANCH   1  14
BRANCH   6  15
ATOM     15  O   UNL     1       3.948   7.355  18.038  0.00  0.00    +0.000 OA
BRANCH  15  16
ATOM     16  C   UNL     1       2.679   7.872  17.604  0.00  0.00    +0.000 C 
BRANCH  16  17
ATOM     17  C   UNL     1       1.822   8.448  18.708  0.00  0.00    +0.000 A 
ATOM     18  C   UNL     1       1.914   7.884  19.995  0.00  0.00    +0.000 A 
ATOM     19  C   UNL     1       1.233   8.449  21.072  0.00  0.00    +0.000 A 
ATOM     20  C   UNL     1       0.457   9.587  20.873  0.00  0.00    +0.000 A 
ATOM     21 CL   UNL     1      -0.372  10.299  22.203  0.00  0.00    +0.000 Cl
ATOM     22  C   UNL     1       0.360  10.166  19.611  0.00  0.00    +0.000 A 
ATOM     23  C   UNL     1       1.048   9.599  18.529  0.00  0.00    +0.000 A 
ENDBRANCH  16  17
ENDBRANCH  15  16
ENDBRANCH   6  15
TORSDOF 6
ENDMDL
