MODEL 1
REMARK VINA RESULT:      -7.3      0.000      0.000
REMARK  Name = 
REMARK  12 active torsions:
REMARK  status: ('A' for Active; 'I' for Inactive)
REMARK    1  A    between atoms: C_1  and  C_2
REMARK    2  A    between atoms: C_5  and  C_6
REMARK    3  A    between atoms: C_6  and  N_7
REMARK    4  A    between atoms: N_7  and  C_8
REMARK    5  A    between atoms: N_7  and  C_9
REMARK    6  A    between atoms: C_9  and  C_10
REMARK    7  A    between atoms: C_10  and  C_11
REMARK    8  A    between atoms: C_14  and  N_15
REMARK    9  A    between atoms: N_15  and  S_16
REMARK   10  A    between atoms: N_15  and  S_20
REMARK   11  A    between atoms: S_16  and  C_17
REMARK   12  A    between atoms: S_20  and  C_21
REMARK                            x       y       z     vdW  Elec       q    Type
REMARK                         _______ _______ _______ _____ _____    ______ ____
ROOT
ATOM      1  C   UNL     1       2.211   7.273  19.632  0.00  0.00    +0.000 A 
ATOM      2  C   UNL     1       1.555   8.007  20.626  0.00  0.00    +0.000 A 
ATOM      3  C   UNL     1       0.965   9.259  20.347  0.00  0.00    +0.000 A 
ATOM      4  C   UNL     1       1.002   9.801  19.056  0.00  0.00    +0.000 A 
ATOM      5  C   UNL     1       1.713   9.099  18.076  0.00  0.00    +0.000 A 
ATOM      6  C   UNL     1       2.344   7.876  18.371  0.00  0.00    +0.000 A 
ENDROOT
BRANCH   1   7
ATOM      7  C   UNL     1       2.724   5.849  19.812  0.00  0.00    +0.000 C 
BRANCH   7   8
ATOM      8  C   UNL     1       2.138   4.698  18.948  0.00  0.00    +0.000 C 
BRANCH   8   9
ATOM      9  N   UNL     1       3.069   4.064  18.006  0.00  0.00    +0.000 NA
ATOM     10  C   UNL     1       2.519   2.857  17.400  0.00  0.00    +0.000 C 
BRANCH   9  11
ATOM     11  C   UNL     1       4.445   3.879  18.493  0.00  0.00    +0.000 C 
BRANCH  11  16
ATOM     12  C   UNL     1       8.149   8.312  17.598  0.00  0.00    +0.000 C 
ATOM     13  C   UNL     1       7.226   7.143  17.771  0.00  0.00    +0.000 A 
ATOM     14  C   UNL     1       6.089   6.990  16.972  0.00  0.00    +0.000 A 
ATOM     15  C   UNL     1       5.206   5.928  17.193  0.00  0.00    +0.000 A 
ATOM     16  C   UNL     1       5.442   4.990  18.213  0.00  0.00    +0.000 A 
ATOM     17  C   UNL     1       6.597   5.135  18.991  0.00  0.00    +0.000 A 
ATOM     18  C   UNL     1       7.478   6.199  18.774  0.00  0.00    +0.000 A 
ENDBRANCH  11  16
ENDBRANCH   9  11
ENDBRANCH   8   9
ENDBRANCH   7   8
ENDBRANCH   1   7
BRANCH   4  19
ATOM     19  N   UNL     1       0.380  11.065  18.733  0.00  0.00    +0.000 N 
BRANCH  19  20
ATOM     20  S   UNL     1       1.315  12.441  18.787  0.00  0.00    +0.000 S 
ATOM     21  C   UNL     1       1.646  12.690  20.529  0.00  0.00    +0.000 C 
ATOM     22  O   UNL     1       2.585  12.151  18.135  0.00  0.00    +0.000 OA
ATOM     23  O   UNL     1       0.540  13.591  18.356  0.00  0.00    +0.000 OA
ENDBRANCH  19  20
BRANCH  19  24
ATOM     24  S   UNL     1      -1.278  11.147  18.546  0.00  0.00    +0.000 S 
ATOM     25  C   UNL     1      -1.873  11.912  20.053  0.00  0.00    +0.000 C 
ATOM     26  O   UNL     1      -1.559  12.069  17.462  0.00  0.00    +0.000 OA
ATOM     27  O   UNL     1      -1.849   9.815  18.512  0.00  0.00    +0.000 OA
ENDBRANCH  19  24
ENDBRANCH   4  19
TORSDOF 8
ENDMDL
MODEL 2
REMARK VINA RESULT:      -7.3      4.489      9.199
REMARK  Name = 
REMARK  12 active torsions:
REMARK  status: ('A' for Active; 'I' for Inactive)
REMARK    1  A    between atoms: C_1  and  C_2
REMARK    2  A    between atoms: C_5  and  C_6
REMARK    3  A    between atoms: C_6  and  N_7
REMARK    4  A    between atoms: N_7  and  C_8
REMARK    5  A    between atoms: N_7  and  C_9
REMARK    6  A    between atoms: C_9  and  C_10
REMARK    7  A    between atoms: C_10  and  C_11
REMARK    8  A    between atoms: C_14  and  N_15
REMARK    9  A    between atoms: N_15  and  S_16
REMARK   10  A    between atoms: N_15  and  S_20
REMARK   11  A    between atoms: S_16  and  C_17
REMARK   12  A    between atoms: S_20  and  C_21
REMARK                            x       y       z     vdW  Elec       q    Type
REMARK                         _______ _______ _______ _____ _____    ______ ____
ROOT
ATOM      1  C   UNL     1       1.697   8.256  19.602  0.00  0.00    +0.000 A 
ATOM      2  C   UNL     1       2.229   8.031  18.327  0.00  0.00    +0.000 A 
ATOM      3  C   UNL     1       2.734   6.767  17.955  0.00  0.00    +0.000 A 
ATOM      4  C   UNL     1       2.704   5.687  18.846  0.00  0.00    +0.000 A 
ATOM      5  C   UNL     1       2.231   5.927  20.142  0.00  0.00    +0.000 A 
ATOM      6  C   UNL     1       1.777   7.202  20.527  0.00  0.00    +0.000 A 
ENDROOT
BRANCH   1   7
ATOM      7  C   UNL     1       0.985   9.536  20.023  0.00  0.00    +0.000 C 
BRANCH   7   8
ATOM      8  C   UNL     1       0.437  10.511  18.944  0.00  0.00    +0.000 C 
BRANCH   8   9
ATOM      9  N   UNL     1      -1.001  10.796  19.007  0.00  0.00    +0.000 NA
ATOM     10  C   UNL     1      -1.710  10.369  17.805  0.00  0.00    +0.000 C 
BRANCH   9  11
ATOM     11  C   UNL     1      -1.367  12.156  19.429  0.00  0.00    +0.000 C 
BRANCH  11  16
ATOM     12  C   UNL     1      -4.234  12.482  24.513  0.00  0.00    +0.000 C 
ATOM     13  C   UNL     1      -3.488  12.468  23.211  0.00  0.00    +0.000 A 
ATOM     14  C   UNL     1      -4.097  12.877  22.021  0.00  0.00    +0.000 A 
ATOM     15  C   UNL     1      -3.405  12.794  20.807  0.00  0.00    +0.000 A 
ATOM     16  C   UNL     1      -2.088  12.308  20.757  0.00  0.00    +0.000 A 
ATOM     17  C   UNL     1      -1.476  11.926  21.957  0.00  0.00    +0.000 A 
ATOM     18  C   UNL     1      -2.168  12.004  23.170  0.00  0.00    +0.000 A 
ENDBRANCH  11  16
ENDBRANCH   9  11
ENDBRANCH   8   9
ENDBRANCH   7   8
ENDBRANCH   1   7
BRANCH   4  19
ATOM     19  N   UNL     1       3.185   4.374  18.483  0.00  0.00    +0.000 N 
BRANCH  19  20
ATOM     20  S   UNL     1       2.066   3.189  18.150  0.00  0.00    +0.000 S 
ATOM     21  C   UNL     1       1.505   2.636  19.758  0.00  0.00    +0.000 C 
ATOM     22  O   UNL     1       0.932   3.812  17.480  0.00  0.00    +0.000 OA
ATOM     23  O   UNL     1       2.714   2.044  17.535  0.00  0.00    +0.000 OA
ENDBRANCH  19  20
BRANCH  19  24
ATOM     24  S   UNL     1       4.811   4.017  18.630  0.00  0.00    +0.000 S 
ATOM     25  C   UNL     1       5.541   5.490  19.345  0.00  0.00    +0.000 C 
ATOM     26  O   UNL     1       4.947   2.956  19.608  0.00  0.00    +0.000 OA
ATOM     27  O   UNL     1       5.413   3.859  17.320  0.00  0.00    +0.000 OA
ENDBRANCH  19  24
ENDBRANCH   4  19
TORSDOF 8
ENDMDL
MODEL 3
REMARK VINA RESULT:      -7.2      4.511      8.375
REMARK  Name = 
REMARK  12 active torsions:
REMARK  status: ('A' for Active; 'I' for Inactive)
REMARK    1  A    between atoms: C_1  and  C_2
REMARK    2  A    between atoms: C_5  and  C_6
REMARK    3  A    between atoms: C_6  and  N_7
REMARK    4  A    between atoms: N_7  and  C_8
REMARK    5  A    between atoms: N_7  and  C_9
REMARK    6  A    between atoms: C_9  and  C_10
REMARK    7  A    between atoms: C_10  and  C_11
REMARK    8  A    between atoms: C_14  and  N_15
REMARK    9  A    between atoms: N_15  and  S_16
REMARK   10  A    between atoms: N_15  and  S_20
REMARK   11  A    between atoms: S_16  and  C_17
REMARK   12  A    between atoms: S_20  and  C_21
REMARK                            x       y       z     vdW  Elec       q    Type
REMARK                         _______ _______ _______ _____ _____    ______ ____
ROOT
ATOM      1  C   UNL     1       1.565   8.633  19.731  0.00  0.00    +0.000 A 
ATOM      2  C   UNL     1       1.411   7.584  20.645  0.00  0.00    +0.000 A 
ATOM      3  C   UNL     1       1.831   6.272  20.335  0.00  0.00    +0.000 A 
ATOM      4  C   UNL     1       2.432   5.980  19.104  0.00  0.00    +0.000 A 
ATOM      5  C   UNL     1       2.528   7.014  18.166  0.00  0.00    +0.000 A 
ATOM      6  C   UNL     1       2.062   8.309  18.458  0.00  0.00    +0.000 A 
ENDROOT
BRANCH   1   7
ATOM      7  C   UNL     1       1.293  10.099  20.051  0.00  0.00    +0.000 C 
BRANCH   7   8
ATOM      8  C   UNL     1       0.845  11.069  18.924  0.00  0.00    +0.000 C 
BRANCH   8   9
ATOM      9  N   UNL     1      -0.381  11.833  19.185  0.00  0.00    +0.000 NA
ATOM     10  C   UNL     1      -0.250  12.731  20.327  0.00  0.00    +0.000 C 
BRANCH   9  11
ATOM     11  C   UNL     1      -1.628  11.053  19.215  0.00  0.00    +0.000 C 
BRANCH  11  16
ATOM     12  C   UNL     1      -4.058  10.097  13.986  0.00  0.00    +0.000 C 
ATOM     13  C   UNL     1      -3.486  10.303  15.357  0.00  0.00    +0.000 A 
ATOM     14  C   UNL     1      -4.051  11.217  16.250  0.00  0.00    +0.000 A 
ATOM     15  C   UNL     1      -3.463  11.443  17.500  0.00  0.00    +0.000 A 
ATOM     16  C   UNL     1      -2.300  10.755  17.887  0.00  0.00    +0.000 A 
ATOM     17  C   UNL     1      -1.756   9.821  16.997  0.00  0.00    +0.000 A 
ATOM     18  C   UNL     1      -2.340   9.599  15.746  0.00  0.00    +0.000 A 
ENDBRANCH  11  16
ENDBRANCH   9  11
ENDBRANCH   8   9
ENDBRANCH   7   8
ENDBRANCH   1   7
BRANCH   4  19
ATOM     19  N   UNL     1       2.900   4.654  18.771  0.00  0.00    +0.000 N 
BRANCH  19  20
ATOM     20  S   UNL     1       4.525   4.331  18.919  0.00  0.00    +0.000 S 
ATOM     21  C   UNL     1       4.595   2.796  19.839  0.00  0.00    +0.000 C 
ATOM     22  O   UNL     1       5.059   4.070  17.589  0.00  0.00    +0.000 OA
ATOM     23  O   UNL     1       5.162   5.332  19.757  0.00  0.00    +0.000 OA
ENDBRANCH  19  20
BRANCH  19  24
ATOM     24  S   UNL     1       1.862   3.570  18.036  0.00  0.00    +0.000 S 
ATOM     25  C   UNL     1       0.880   2.895  19.375  0.00  0.00    +0.000 C 
ATOM     26  O   UNL     1       0.961   4.323  17.186  0.00  0.00    +0.000 OA
ATOM     27  O   UNL     1       2.605   2.458  17.476  0.00  0.00    +0.000 OA
ENDBRANCH  19  24
ENDBRANCH   4  19
TORSDOF 8
ENDMDL
MODEL 4
REMARK VINA RESULT:      -7.2      2.424      4.239
REMARK  Name = 
REMARK  12 active torsions:
REMARK  status: ('A' for Active; 'I' for Inactive)
REMARK    1  A    between atoms: C_1  and  C_2
REMARK    2  A    between atoms: C_5  and  C_6
REMARK    3  A    between atoms: C_6  and  N_7
REMARK    4  A    between atoms: N_7  and  C_8
REMARK    5  A    between atoms: N_7  and  C_9
REMARK    6  A    between atoms: C_9  and  C_10
REMARK    7  A    between atoms: C_10  and  C_11
REMARK    8  A    between atoms: C_14  and  N_15
REMARK    9  A    between atoms: N_15  and  S_16
REMARK   10  A    between atoms: N_15  and  S_20
REMARK   11  A    between atoms: S_16  and  C_17
REMARK   12  A    between atoms: S_20  and  C_21
REMARK                            x       y       z     vdW  Elec       q    Type
REMARK                         _______ _______ _______ _____ _____    ______ ____
ROOT
ATOM      1  C   UNL     1       2.382   7.939  18.127  0.00  0.00    +0.000 A 
ATOM      2  C   UNL     1       1.626   9.050  17.735  0.00  0.00    +0.000 A 
ATOM      3  C   UNL     1       0.919   9.827  18.679  0.00  0.00    +0.000 A 
ATOM      4  C   UNL     1       0.965   9.521  20.045  0.00  0.00    +0.000 A 
ATOM      5  C   UNL     1       1.669   8.374  20.430  0.00  0.00    +0.000 A 
ATOM      6  C   UNL     1       2.329   7.571  19.481  0.00  0.00    +0.000 A 
ENDROOT
BRANCH   1   7
ATOM      7  C   UNL     1       3.301   7.154  17.198  0.00  0.00    +0.000 C 
BRANCH   7   8
ATOM      8  C   UNL     1       4.449   6.291  17.790  0.00  0.00    +0.000 C 
BRANCH   8   9
ATOM      9  N   UNL     1       4.987   5.247  16.909  0.00  0.00    +0.000 NA
ATOM     10  C   UNL     1       5.355   5.758  15.594  0.00  0.00    +0.000 C 
BRANCH   9  11
ATOM     11  C   UNL     1       4.203   4.004  16.837  0.00  0.00    +0.000 C 
BRANCH  11  16
ATOM     12  C   UNL     1       1.285   2.650  21.717  0.00  0.00    +0.000 C 
ATOM     13  C   UNL     1       2.034   2.929  20.448  0.00  0.00    +0.000 A 
ATOM     14  C   UNL     1       3.408   2.690  20.348  0.00  0.00    +0.000 A 
ATOM     15  C   UNL     1       4.101   3.018  19.178  0.00  0.00    +0.000 A 
ATOM     16  C   UNL     1       3.435   3.587  18.078  0.00  0.00    +0.000 A 
ATOM     17  C   UNL     1       2.055   3.798  18.176  0.00  0.00    +0.000 A 
ATOM     18  C   UNL     1       1.362   3.474  19.348  0.00  0.00    +0.000 A 
ENDBRANCH  11  16
ENDBRANCH   9  11
ENDBRANCH   8   9
ENDBRANCH   7   8
ENDBRANCH   1   7
BRANCH   4  19
ATOM     19  N   UNL     1       0.278  10.316  21.036  0.00  0.00    +0.000 N 
BRANCH  19  20
ATOM     20  S   UNL     1       0.171  11.959  20.794  0.00  0.00    +0.000 S 
ATOM     21  C   UNL     1       1.630  12.368  19.840  0.00  0.00    +0.000 C 
ATOM     22  O   UNL     1      -0.991  12.217  19.952  0.00  0.00    +0.000 OA
ATOM     23  O   UNL     1       0.304  12.662  22.057  0.00  0.00    +0.000 OA
ENDBRANCH  19  20
BRANCH  19  24
ATOM     24  S   UNL     1      -0.176   9.620  22.486  0.00  0.00    +0.000 S 
ATOM     25  C   UNL     1      -1.440  10.709  23.142  0.00  0.00    +0.000 C 
ATOM     26  O   UNL     1      -0.818   8.354  22.189  0.00  0.00    +0.000 OA
ATOM     27  O   UNL     1       0.923   9.656  23.431  0.00  0.00    +0.000 OA
ENDBRANCH  19  24
ENDBRANCH   4  19
TORSDOF 8
ENDMDL
MODEL 5
REMARK VINA RESULT:      -7.1      4.356      9.039
REMARK  Name = 
REMARK  12 active torsions:
REMARK  status: ('A' for Active; 'I' for Inactive)
REMARK    1  A    between atoms: C_1  and  C_2
REMARK    2  A    between atoms: C_5  and  C_6
REMARK    3  A    between atoms: C_6  and  N_7
REMARK    4  A    between atoms: N_7  and  C_8
REMARK    5  A    between atoms: N_7  and  C_9
REMARK    6  A    between atoms: C_9  and  C_10
REMARK    7  A    between atoms: C_10  and  C_11
REMARK    8  A    between atoms: C_14  and  N_15
REMARK    9  A    between atoms: N_15  and  S_16
REMARK   10  A    between atoms: N_15  and  S_20
REMARK   11  A    between atoms: S_16  and  C_17
REMARK   12  A    between atoms: S_20  and  C_21
REMARK                            x       y       z     vdW  Elec       q    Type
REMARK                         _______ _______ _______ _____ _____    ______ ____
ROOT
ATOM      1  C   UNL     1       1.650   8.568  19.218  0.00  0.00    +0.000 A 
ATOM      2  C   UNL     1       2.310   8.266  18.020  0.00  0.00    +0.000 A 
ATOM      3  C   UNL     1       2.894   7.000  17.802  0.00  0.00    +0.000 A 
ATOM      4  C   UNL     1       2.818   5.994  18.774  0.00  0.00    +0.000 A 
ATOM      5  C   UNL     1       2.215   6.315  19.996  0.00  0.00    +0.000 A 
ATOM      6  C   UNL     1       1.680   7.595  20.230  0.00  0.00    +0.000 A 
ENDROOT
BRANCH   1   7
ATOM      7  C   UNL     1       0.855   9.845  19.463  0.00  0.00    +0.000 C 
BRANCH   7   8
ATOM      8  C   UNL     1       1.280  11.169  18.771  0.00  0.00    +0.000 C 
BRANCH   8   9
ATOM      9  N   UNL     1       0.852  12.407  19.434  0.00  0.00    +0.000 NA
ATOM     10  C   UNL     1       1.367  13.602  18.776  0.00  0.00    +0.000 C 
BRANCH   9  11
ATOM     11  C   UNL     1       1.024  12.443  20.895  0.00  0.00    +0.000 C 
BRANCH  11  16
ATOM     12  C   UNL     1      -3.949  12.583  23.962  0.00  0.00    +0.000 C 
ATOM     13  C   UNL     1      -2.643  12.586  23.226  0.00  0.00    +0.000 A 
ATOM     14  C   UNL     1      -2.222  13.702  22.497  0.00  0.00    +0.000 A 
ATOM     15  C   UNL     1      -1.031  13.661  21.763  0.00  0.00    +0.000 A 
ATOM     16  C   UNL     1      -0.231  12.505  21.746  0.00  0.00    +0.000 A 
ATOM     17  C   UNL     1      -0.646  11.401  22.501  0.00  0.00    +0.000 A 
ATOM     18  C   UNL     1      -1.838  11.440  23.231  0.00  0.00    +0.000 A 
ENDBRANCH  11  16
ENDBRANCH   9  11
ENDBRANCH   8   9
ENDBRANCH   7   8
ENDBRANCH   1   7
BRANCH   4  19
ATOM     19  N   UNL     1       3.379   4.678  18.567  0.00  0.00    +0.000 N 
BRANCH  19  20
ATOM     20  S   UNL     1       2.349   3.439  18.152  0.00  0.00    +0.000 S 
ATOM     21  C   UNL     1       1.764   2.798  19.719  0.00  0.00    +0.000 C 
ATOM     22  O   UNL     1       1.205   4.014  17.458  0.00  0.00    +0.000 OA
ATOM     23  O   UNL     1       3.091   2.358  17.527  0.00  0.00    +0.000 OA
ENDBRANCH  19  20
BRANCH  19  24
ATOM     24  S   UNL     1       4.974   4.386  18.968  0.00  0.00    +0.000 S 
ATOM     25  C   UNL     1       5.835   4.303  17.398  0.00  0.00    +0.000 C 
ATOM     26  O   UNL     1       5.478   5.552  19.668  0.00  0.00    +0.000 OA
ATOM     27  O   UNL     1       5.111   3.077  19.576  0.00  0.00    +0.000 OA
ENDBRANCH  19  24
ENDBRANCH   4  19
TORSDOF 8
ENDMDL
MODEL 6
REMARK VINA RESULT:      -7.1      5.330      8.123
REMARK  Name = 
REMARK  12 active torsions:
REMARK  status: ('A' for Active; 'I' for Inactive)
REMARK    1  A    between atoms: C_1  and  C_2
REMARK    2  A    between atoms: C_5  and  C_6
REMARK    3  A    between atoms: C_6  and  N_7
REMARK    4  A    between atoms: N_7  and  C_8
REMARK    5  A    between atoms: N_7  and  C_9
REMARK    6  A    between atoms: C_9  and  C_10
REMARK    7  A    between atoms: C_10  and  C_11
REMARK    8  A    between atoms: C_14  and  N_15
REMARK    9  A    between atoms: N_15  and  S_16
REMARK   10  A    between atoms: N_15  and  S_20
REMARK   11  A    between atoms: S_16  and  C_17
REMARK   12  A    between atoms: S_20  and  C_21
REMARK                            x       y       z     vdW  Elec       q    Type
REMARK                         _______ _______ _______ _____ _____    ______ ____
ROOT
ATOM      1  C   UNL     1       8.920   9.957  18.655  0.00  0.00    +0.000 A 
ATOM      2  C   UNL     1       9.804  10.520  19.584  0.00  0.00    +0.000 A 
ATOM      3  C   UNL     1      10.063  11.907  19.605  0.00  0.00    +0.000 A 
ATOM      4  C   UNL     1       9.429  12.772  18.704  0.00  0.00    +0.000 A 
ATOM      5  C   UNL     1       8.595  12.204  17.734  0.00  0.00    +0.000 A 
ATOM      6  C   UNL     1       8.379  10.815  17.683  0.00  0.00    +0.000 A 
ENDROOT
BRANCH   1   7
ATOM      7  C   UNL     1       8.463   8.504  18.675  0.00  0.00    +0.000 C 
BRANCH   7   8
ATOM      8  C   UNL     1       7.739   7.901  17.440  0.00  0.00    +0.000 C 
BRANCH   8   9
ATOM      9  N   UNL     1       6.793   6.813  17.717  0.00  0.00    +0.000 NA
ATOM     10  C   UNL     1       7.461   5.574  18.099  0.00  0.00    +0.000 C 
BRANCH   9  11
ATOM     11  C   UNL     1       5.743   6.604  16.708  0.00  0.00    +0.000 C 
BRANCH  11  16
ATOM     12  C   UNL     1       1.269   3.284  18.476  0.00  0.00    +0.000 C 
ATOM     13  C   UNL     1       2.387   4.139  17.959  0.00  0.00    +0.000 A 
ATOM     14  C   UNL     1       3.400   3.604  17.158  0.00  0.00    +0.000 A 
ATOM     15  C   UNL     1       4.469   4.404  16.740  0.00  0.00    +0.000 A 
ATOM     16  C   UNL     1       4.547   5.759  17.108  0.00  0.00    +0.000 A 
ATOM     17  C   UNL     1       3.514   6.294  17.887  0.00  0.00    +0.000 A 
ATOM     18  C   UNL     1       2.447   5.493  18.309  0.00  0.00    +0.000 A 
ENDBRANCH  11  16
ENDBRANCH   9  11
ENDBRANCH   8   9
ENDBRANCH   7   8
ENDBRANCH   1   7
BRANCH   4  19
ATOM     19  N   UNL     1       9.650  14.200  18.722  0.00  0.00    +0.000 N 
BRANCH  19  20
ATOM     20  S   UNL     1       8.506  15.167  19.448  0.00  0.00    +0.000 S 
ATOM     21  C   UNL     1       7.332  15.529  18.145  0.00  0.00    +0.000 C 
ATOM     22  O   UNL     1       7.815  14.371  20.454  0.00  0.00    +0.000 OA
ATOM     23  O   UNL     1       9.093  16.440  19.827  0.00  0.00    +0.000 OA
ENDBRANCH  19  20
BRANCH  19  24
ATOM     24  S   UNL     1      10.901  14.855  17.829  0.00  0.00    +0.000 S 
ATOM     25  C   UNL     1      12.156  15.279  19.037  0.00  0.00    +0.000 C 
ATOM     26  O   UNL     1      11.451  13.804  16.995  0.00  0.00    +0.000 OA
ATOM     27  O   UNL     1      10.487  16.104  17.218  0.00  0.00    +0.000 OA
ENDBRANCH  19  24
ENDBRANCH   4  19
TORSDOF 8
ENDMDL
MODEL 7
REMARK VINA RESULT:      -7.1      4.500      9.086
REMARK  Name = 
REMARK  12 active torsions:
REMARK  status: ('A' for Active; 'I' for Inactive)
REMARK    1  A    between atoms: C_1  and  C_2
REMARK    2  A    between atoms: C_5  and  C_6
REMARK    3  A    between atoms: C_6  and  N_7
REMARK    4  A    between atoms: N_7  and  C_8
REMARK    5  A    between atoms: N_7  and  C_9
REMARK    6  A    between atoms: C_9  and  C_10
REMARK    7  A    between atoms: C_10  and  C_11
REMARK    8  A    between atoms: C_14  and  N_15
REMARK    9  A    between atoms: N_15  and  S_16
REMARK   10  A    between atoms: N_15  and  S_20
REMARK   11  A    between atoms: S_16  and  C_17
REMARK   12  A    between atoms: S_20  and  C_21
REMARK                            x       y       z     vdW  Elec       q    Type
REMARK                         _______ _______ _______ _____ _____    ______ ____
ROOT
ATOM      1  C   UNL     1       1.603   8.556  19.599  0.00  0.00    +0.000 A 
ATOM      2  C   UNL     1       2.201   8.242  18.373  0.00  0.00    +0.000 A 
ATOM      3  C   UNL     1       2.659   6.936  18.092  0.00  0.00    +0.000 A 
ATOM      4  C   UNL     1       2.515   5.905  19.028  0.00  0.00    +0.000 A 
ATOM      5  C   UNL     1       1.976   6.232  20.278  0.00  0.00    +0.000 A 
ATOM      6  C   UNL     1       1.568   7.545  20.574  0.00  0.00    +0.000 A 
ENDROOT
BRANCH   1   7
ATOM      7  C   UNL     1       0.936   9.889  19.914  0.00  0.00    +0.000 C 
BRANCH   7   8
ATOM      8  C   UNL     1       0.985  11.045  18.877  0.00  0.00    +0.000 C 
BRANCH   8   9
ATOM      9  N   UNL     1      -0.301  11.678  18.559  0.00  0.00    +0.000 NA
ATOM     10  C   UNL     1      -0.234  13.135  18.595  0.00  0.00    +0.000 C 
BRANCH   9  11
ATOM     11  C   UNL     1      -1.471  11.146  19.275  0.00  0.00    +0.000 C 
BRANCH  11  16
ATOM     12  C   UNL     1      -6.858  12.442  17.414  0.00  0.00    +0.000 C 
ATOM     13  C   UNL     1      -5.451  12.163  17.852  0.00  0.00    +0.000 A 
ATOM     14  C   UNL     1      -4.550  11.493  17.019  0.00  0.00    +0.000 A 
ATOM     15  C   UNL     1      -3.263  11.184  17.472  0.00  0.00    +0.000 A 
ATOM     16  C   UNL     1      -2.844  11.543  18.765  0.00  0.00    +0.000 A 
ATOM     17  C   UNL     1      -3.743  12.238  19.583  0.00  0.00    +0.000 A 
ATOM     18  C   UNL     1      -5.033  12.543  19.132  0.00  0.00    +0.000 A 
ENDBRANCH  11  16
ENDBRANCH   9  11
ENDBRANCH   8   9
ENDBRANCH   7   8
ENDBRANCH   1   7
BRANCH   4  19
ATOM     19  N   UNL     1       2.946   4.552  18.757  0.00  0.00    +0.000 N 
BRANCH  19  20
ATOM     20  S   UNL     1       4.564   4.194  18.908  0.00  0.00    +0.000 S 
ATOM     21  C   UNL     1       4.601   2.675  19.855  0.00  0.00    +0.000 C 
ATOM     22  O   UNL     1       5.087   3.898  17.581  0.00  0.00    +0.000 OA
ATOM     23  O   UNL     1       5.225   5.196  19.726  0.00  0.00    +0.000 OA
ENDBRANCH  19  20
BRANCH  19  24
ATOM     24  S   UNL     1       1.873   3.461  18.086  0.00  0.00    +0.000 S 
ATOM     25  C   UNL     1       0.895   2.870  19.467  0.00  0.00    +0.000 C 
ATOM     26  O   UNL     1       0.978   4.196  17.214  0.00  0.00    +0.000 OA
ATOM     27  O   UNL     1       2.583   2.308  17.568  0.00  0.00    +0.000 OA
ENDBRANCH  19  24
ENDBRANCH   4  19
TORSDOF 8
ENDMDL
MODEL 8
REMARK VINA RESULT:      -7.0      1.765      2.216
REMARK  Name = 
REMARK  12 active torsions:
REMARK  status: ('A' for Active; 'I' for Inactive)
REMARK    1  A    between atoms: C_1  and  C_2
REMARK    2  A    between atoms: C_5  and  C_6
REMARK    3  A    between atoms: C_6  and  N_7
REMARK    4  A    between atoms: N_7  and  C_8
REMARK    5  A    between atoms: N_7  and  C_9
REMARK    6  A    between atoms: C_9  and  C_10
REMARK    7  A    between atoms: C_10  and  C_11
REMARK    8  A    between atoms: C_14  and  N_15
REMARK    9  A    between atoms: N_15  and  S_16
REMARK   10  A    between atoms: N_15  and  S_20
REMARK   11  A    between atoms: S_16  and  C_17
REMARK   12  A    between atoms: S_20  and  C_21
REMARK                            x       y       z     vdW  Elec       q    Type
REMARK                         _______ _______ _______ _____ _____    ______ ____
ROOT
ATOM      1  C   UNL     1       2.258   7.684  18.987  0.00  0.00    +0.000 A 
ATOM      2  C   UNL     1       1.633   8.087  20.173  0.00  0.00    +0.000 A 
ATOM      3  C   UNL     1       1.010   9.349  20.282  0.00  0.00    +0.000 A 
ATOM      4  C   UNL     1       0.983  10.236  19.198  0.00  0.00    +0.000 A 
ATOM      5  C   UNL     1       1.663   9.860  18.034  0.00  0.00    +0.000 A 
ATOM      6  C   UNL     1       2.328   8.623  17.946  0.00  0.00    +0.000 A 
ENDROOT
BRANCH   1   7
ATOM      7  C   UNL     1       2.803   6.282  18.737  0.00  0.00    +0.000 C 
BRANCH   7   8
ATOM      8  C   UNL     1       2.799   5.232  19.881  0.00  0.00    +0.000 C 
BRANCH   8   9
ATOM      9  N   UNL     1       3.347   3.912  19.543  0.00  0.00    +0.000 NA
ATOM     10  C   UNL     1       2.795   2.847  20.374  0.00  0.00    +0.000 C 
BRANCH   9  11
ATOM     11  C   UNL     1       4.811   3.838  19.422  0.00  0.00    +0.000 C 
BRANCH  11  16
ATOM     12  C   UNL     1       7.024   4.908  14.119  0.00  0.00    +0.000 C 
ATOM     13  C   UNL     1       6.470   4.565  15.469  0.00  0.00    +0.000 A 
ATOM     14  C   UNL     1       5.192   4.016  15.612  0.00  0.00    +0.000 A 
ATOM     15  C   UNL     1       4.668   3.764  16.885  0.00  0.00    +0.000 A 
ATOM     16  C   UNL     1       5.410   4.050  18.044  0.00  0.00    +0.000 A 
ATOM     17  C   UNL     1       6.700   4.574  17.891  0.00  0.00    +0.000 A 
ATOM     18  C   UNL     1       7.223   4.830  16.619  0.00  0.00    +0.000 A 
ENDBRANCH  11  16
ENDBRANCH   9  11
ENDBRANCH   8   9
ENDBRANCH   7   8
ENDBRANCH   1   7
BRANCH   4  19
ATOM     19  N   UNL     1       0.326  11.521  19.270  0.00  0.00    +0.000 N 
BRANCH  19  20
ATOM     20  S   UNL     1       1.126  12.776  20.014  0.00  0.00    +0.000 S 
ATOM     21  C   UNL     1       2.510  13.130  18.934  0.00  0.00    +0.000 C 
ATOM     22  O   UNL     1       0.252  13.941  20.004  0.00  0.00    +0.000 OA
ATOM     23  O   UNL     1       1.700  12.329  21.271  0.00  0.00    +0.000 OA
ENDBRANCH  19  20
BRANCH  19  24
ATOM     24  S   UNL     1      -1.278  11.657  18.824  0.00  0.00    +0.000 S 
ATOM     25  C   UNL     1      -1.719  10.036  18.197  0.00  0.00    +0.000 C 
ATOM     26  O   UNL     1      -2.058  11.874  20.028  0.00  0.00    +0.000 OA
ATOM     27  O   UNL     1      -1.418  12.576  17.711  0.00  0.00    +0.000 OA
ENDBRANCH  19  24
ENDBRANCH   4  19
TORSDOF 8
ENDMDL
MODEL 9
REMARK VINA RESULT:      -7.0      4.496      9.271
REMARK  Name = 
REMARK  12 active torsions:
REMARK  status: ('A' for Active; 'I' for Inactive)
REMARK    1  A    between atoms: C_1  and  C_2
REMARK    2  A    between atoms: C_5  and  C_6
REMARK    3  A    between atoms: C_6  and  N_7
REMARK    4  A    between atoms: N_7  and  C_8
REMARK    5  A    between atoms: N_7  and  C_9
REMARK    6  A    between atoms: C_9  and  C_10
REMARK    7  A    between atoms: C_10  and  C_11
REMARK    8  A    between atoms: C_14  and  N_15
REMARK    9  A    between atoms: N_15  and  S_16
REMARK   10  A    between atoms: N_15  and  S_20
REMARK   11  A    between atoms: S_16  and  C_17
REMARK   12  A    between atoms: S_20  and  C_21
REMARK                            x       y       z     vdW  Elec       q    Type
REMARK                         _______ _______ _______ _____ _____    ______ ____
ROOT
ATOM      1  C   UNL     1       1.678   8.256  19.739  0.00  0.00    +0.000 A 
ATOM      2  C   UNL     1       2.224   8.075  18.463  0.00  0.00    +0.000 A 
ATOM      3  C   UNL     1       2.724   6.821  18.049  0.00  0.00    +0.000 A 
ATOM      4  C   UNL     1       2.676   5.709  18.899  0.00  0.00    +0.000 A 
ATOM      5  C   UNL     1       2.191   5.904  20.198  0.00  0.00    +0.000 A 
ATOM      6  C   UNL     1       1.740   7.167  20.625  0.00  0.00    +0.000 A 
ENDROOT
BRANCH   1   7
ATOM      7  C   UNL     1       0.970   9.525  20.200  0.00  0.00    +0.000 C 
BRANCH   7   8
ATOM      8  C   UNL     1      -0.270  10.047  19.423  0.00  0.00    +0.000 C 
BRANCH   8   9
ATOM      9  N   UNL     1      -0.115  11.352  18.768  0.00  0.00    +0.000 NA
ATOM     10  C   UNL     1       1.262  11.833  18.797  0.00  0.00    +0.000 C 
BRANCH   9  11
ATOM     11  C   UNL     1      -1.087  12.384  19.160  0.00  0.00    +0.000 C 
BRANCH  11  16
ATOM     12  C   UNL     1      -6.765  11.494  18.093  0.00  0.00    +0.000 C 
ATOM     13  C   UNL     1      -5.309  11.667  18.411  0.00  0.00    +0.000 A 
ATOM     14  C   UNL     1      -4.892  12.267  19.603  0.00  0.00    +0.000 A 
ATOM     15  C   UNL     1      -3.531  12.479  19.851  0.00  0.00    +0.000 A 
ATOM     16  C   UNL     1      -2.556  12.090  18.916  0.00  0.00    +0.000 A 
ATOM     17  C   UNL     1      -2.980  11.465  17.737  0.00  0.00    +0.000 A 
ATOM     18  C   UNL     1      -4.341  11.257  17.487  0.00  0.00    +0.000 A 
ENDBRANCH  11  16
ENDBRANCH   9  11
ENDBRANCH   8   9
ENDBRANCH   7   8
ENDBRANCH   1   7
BRANCH   4  19
ATOM     19  N   UNL     1       3.152   4.407  18.492  0.00  0.00    +0.000 N 
BRANCH  19  20
ATOM     20  S   UNL     1       2.028   3.235  18.128  0.00  0.00    +0.000 S 
ATOM     21  C   UNL     1       1.434   2.672  19.721  0.00  0.00    +0.000 C 
ATOM     22  O   UNL     1       0.912   3.876  17.444  0.00  0.00    +0.000 OA
ATOM     23  O   UNL     1       2.678   2.092  17.513  0.00  0.00    +0.000 OA
ENDBRANCH  19  20
BRANCH  19  24
ATOM     24  S   UNL     1       4.778   4.042  18.620  0.00  0.00    +0.000 S 
ATOM     25  C   UNL     1       5.532   5.529  19.280  0.00  0.00    +0.000 C 
ATOM     26  O   UNL     1       4.924   3.008  19.626  0.00  0.00    +0.000 OA
ATOM     27  O   UNL     1       5.356   3.842  17.305  0.00  0.00    +0.000 OA
ENDBRANCH  19  24
ENDBRANCH   4  19
TORSDOF 8
ENDMDL
