MODEL 1
REMARK VINA RESULT:      -7.5      0.000      0.000
REMARK  Name = 
REMARK  11 active torsions:
REMARK  status: ('A' for Active; 'I' for Inactive)
REMARK    1  A    between atoms: C_1  and  C_2
REMARK    2  A    between atoms: C_2  and  O_3
REMARK    3  A    between atoms: O_3  and  C_4
REMARK    4  A    between atoms: C_6  and  O_7
REMARK    5  A    between atoms: O_7  and  C_8
REMARK    6  A    between atoms: C_8  and  C_9
REMARK    7  A    between atoms: C_9  and  C_10
REMARK    8  A    between atoms: C_10  and  N_11
REMARK    9  A    between atoms: C_18  and  C_19
REMARK   10  A    between atoms: N_21  and  C_22
REMARK   11  A    between atoms: C_26  and  O_27
REMARK                            x       y       z     vdW  Elec       q    Type
REMARK                         _______ _______ _______ _____ _____    ______ ____
ROOT
ATOM      1  C   UNL     1       4.856   5.681  18.474  0.00  0.00    +0.000 A 
ATOM      2  C   UNL     1       4.033   5.652  19.618  0.00  0.00    +0.000 A 
ATOM      3  C   UNL     1       2.769   6.243  19.626  0.00  0.00    +0.000 A 
ATOM      4  C   UNL     1       2.342   6.940  18.502  0.00  0.00    +0.000 A 
ATOM      5  C   UNL     1       3.126   6.949  17.347  0.00  0.00    +0.000 A 
ATOM      6  C   UNL     1       4.377   6.308  17.309  0.00  0.00    +0.000 A 
ENDROOT
BRANCH   6   7
ATOM      7  C   UNL     1       5.062   6.213  15.987  0.00  0.00    +0.000 C 
ATOM      8  O   UNL     1       5.189   7.236  15.322  0.00  0.00    +0.000 OA
ATOM      9  N   UNL     1       5.549   4.960  15.626  0.00  0.00    +0.000 N 
ATOM     10  H   UNL     1       5.564   4.219  16.316  0.00  0.00    +0.000 HD
BRANCH   9  11
ATOM     11  C   UNL     1       6.131   4.641  14.382  0.00  0.00    +0.000 A 
ATOM     12  C   UNL     1       7.307   5.259  13.935  0.00  0.00    +0.000 A 
ATOM     13  C   UNL     1       7.873   4.915  12.709  0.00  0.00    +0.000 A 
ATOM     14  C   UNL     1       7.275   3.950  11.907  0.00  0.00    +0.000 A 
ATOM     15  C   UNL     1       6.092   3.350  12.337  0.00  0.00    +0.000 A 
ATOM     16  C   UNL     1       5.506   3.700  13.554  0.00  0.00    +0.000 A 
BRANCH  15  17
ATOM     17  O   UNL     1       5.484   2.395  11.575  0.00  0.00    +0.000 OA
ATOM     18  H   UNL     1       5.605   2.619  10.640  0.00  0.00    +0.000 HD
ENDBRANCH  15  17
ENDBRANCH   9  11
ENDBRANCH   6   7
BRANCH   1  19
ATOM     19  O   UNL     1       6.021   4.992  18.668  0.00  0.00    +0.000 OA
BRANCH  19  21
ATOM     20  C   UNL     1       7.786   6.592  18.472  0.00  0.00    +0.000 C 
ATOM     21  C   UNL     1       7.092   5.600  19.387  0.00  0.00    +0.000 C 
ENDBRANCH  19  21
ENDBRANCH   1  19
BRANCH   3  22
ATOM     22  O   UNL     1       2.018   6.068  20.760  0.00  0.00    +0.000 OA
BRANCH  22  23
ATOM     23  C   UNL     1       2.235   4.822  21.434  0.00  0.00    +0.000 C 
BRANCH  23  24
ATOM     24  C   UNL     1       1.329   3.740  20.844  0.00  0.00    +0.000 C 
BRANCH  24  25
ATOM     25  C   UNL     1       2.175   2.517  20.463  0.00  0.00    +0.000 C 
BRANCH  25  26
ATOM     26  N   UNL     1       1.875   1.899  19.160  0.00  0.00    +0.000 NA
ATOM     27  C   UNL     1       3.051   1.372  18.449  0.00  0.00    +0.000 C 
ATOM     28  C   UNL     1       3.627   2.556  17.700  0.00  0.00    +0.000 C 
ATOM     29  C   UNL     1       2.384   3.288  17.232  0.00  0.00    +0.000 C 
ATOM     30  C   UNL     1       1.305   2.917  18.246  0.00  0.00    +0.000 C 
ENDBRANCH  25  26
ENDBRANCH  24  25
ENDBRANCH  23  24
ENDBRANCH  22  23
ENDBRANCH   3  22
TORSDOF 10
ENDMDL
MODEL 2
REMARK VINA RESULT:      -6.5      6.040     10.064
REMARK  Name = 
REMARK  11 active torsions:
REMARK  status: ('A' for Active; 'I' for Inactive)
REMARK    1  A    between atoms: C_1  and  C_2
REMARK    2  A    between atoms: C_2  and  O_3
REMARK    3  A    between atoms: O_3  and  C_4
REMARK    4  A    between atoms: C_6  and  O_7
REMARK    5  A    between atoms: O_7  and  C_8
REMARK    6  A    between atoms: C_8  and  C_9
REMARK    7  A    between atoms: C_9  and  C_10
REMARK    8  A    between atoms: C_10  and  N_11
REMARK    9  A    between atoms: C_18  and  C_19
REMARK   10  A    between atoms: N_21  and  C_22
REMARK   11  A    between atoms: C_26  and  O_27
REMARK                            x       y       z     vdW  Elec       q    Type
REMARK                         _______ _______ _______ _____ _____    ______ ____
ROOT
ATOM      1  C   UNL     1       0.746  10.305  20.158  0.00  0.00    +0.000 A 
ATOM      2  C   UNL     1       1.315   9.465  19.178  0.00  0.00    +0.000 A 
ATOM      3  C   UNL     1       1.770   8.183  19.486  0.00  0.00    +0.000 A 
ATOM      4  C   UNL     1       1.727   7.751  20.806  0.00  0.00    +0.000 A 
ATOM      5  C   UNL     1       1.135   8.551  21.785  0.00  0.00    +0.000 A 
ATOM      6  C   UNL     1       0.621   9.823  21.474  0.00  0.00    +0.000 A 
ENDROOT
BRANCH   6   7
ATOM      7  C   UNL     1      -0.152  10.531  22.535  0.00  0.00    +0.000 C 
ATOM      8  O   UNL     1      -0.093  10.103  23.683  0.00  0.00    +0.000 OA
ATOM      9  N   UNL     1      -0.858  11.664  22.141  0.00  0.00    +0.000 N 
ATOM     10  H   UNL     1      -0.698  12.048  21.217  0.00  0.00    +0.000 HD
BRANCH   9  11
ATOM     11  C   UNL     1      -1.727  12.409  22.964  0.00  0.00    +0.000 A 
ATOM     12  C   UNL     1      -1.451  13.736  23.322  0.00  0.00    +0.000 A 
ATOM     13  C   UNL     1      -2.334  14.458  24.123  0.00  0.00    +0.000 A 
ATOM     14  C   UNL     1      -3.506  13.867  24.582  0.00  0.00    +0.000 A 
ATOM     15  C   UNL     1      -3.772  12.540  24.249  0.00  0.00    +0.000 A 
ATOM     16  C   UNL     1      -2.886  11.802  23.462  0.00  0.00    +0.000 A 
BRANCH  15  17
ATOM     17  O   UNL     1      -4.917  11.934  24.679  0.00  0.00    +0.000 OA
ATOM     18  H   UNL     1      -5.672  12.491  24.435  0.00  0.00    +0.000 HD
ENDBRANCH  15  17
ENDBRANCH   9  11
ENDBRANCH   6   7
BRANCH   1  19
ATOM     19  O   UNL     1       0.316  11.488  19.627  0.00  0.00    +0.000 OA
BRANCH  19  21
ATOM     20  C   UNL     1       1.961  13.110  20.240  0.00  0.00    +0.000 C 
ATOM     21  C   UNL     1       1.263  12.409  19.089  0.00  0.00    +0.000 C 
ENDBRANCH  19  21
ENDBRANCH   1  19
BRANCH   3  22
ATOM     22  O   UNL     1       2.212   7.421  18.436  0.00  0.00    +0.000 OA
BRANCH  22  23
ATOM     23  C   UNL     1       2.920   6.234  18.815  0.00  0.00    +0.000 C 
BRANCH  23  24
ATOM     24  C   UNL     1       2.914   5.228  17.662  0.00  0.00    +0.000 C 
BRANCH  24  25
ATOM     25  C   UNL     1       1.596   4.442  17.677  0.00  0.00    +0.000 C 
BRANCH  25  26
ATOM     26  N   UNL     1       1.714   2.975  17.726  0.00  0.00    +0.000 NA
ATOM     27  C   UNL     1       0.959   2.337  18.816  0.00  0.00    +0.000 C 
ATOM     28  C   UNL     1       1.871   2.401  20.023  0.00  0.00    +0.000 C 
ATOM     29  C   UNL     1       3.236   2.130  19.422  0.00  0.00    +0.000 C 
ATOM     30  C   UNL     1       3.126   2.596  17.972  0.00  0.00    +0.000 C 
ENDBRANCH  25  26
ENDBRANCH  24  25
ENDBRANCH  23  24
ENDBRANCH  22  23
ENDBRANCH   3  22
TORSDOF 10
ENDMDL
MODEL 3
REMARK VINA RESULT:      -6.4      3.086      5.924
REMARK  Name = 
REMARK  11 active torsions:
REMARK  status: ('A' for Active; 'I' for Inactive)
REMARK    1  A    between atoms: C_1  and  C_2
REMARK    2  A    between atoms: C_2  and  O_3
REMARK    3  A    between atoms: O_3  and  C_4
REMARK    4  A    between atoms: C_6  and  O_7
REMARK    5  A    between atoms: O_7  and  C_8
REMARK    6  A    between atoms: C_8  and  C_9
REMARK    7  A    between atoms: C_9  and  C_10
REMARK    8  A    between atoms: C_10  and  N_11
REMARK    9  A    between atoms: C_18  and  C_19
REMARK   10  A    between atoms: N_21  and  C_22
REMARK   11  A    between atoms: C_26  and  O_27
REMARK                            x       y       z     vdW  Elec       q    Type
REMARK                         _______ _______ _______ _____ _____    ______ ____
ROOT
ATOM      1  C   UNL     1       5.239   6.597  17.292  0.00  0.00    +0.000 A 
ATOM      2  C   UNL     1       4.429   5.526  16.861  0.00  0.00    +0.000 A 
ATOM      3  C   UNL     1       4.979   4.320  16.427  0.00  0.00    +0.000 A 
ATOM      4  C   UNL     1       6.361   4.197  16.350  0.00  0.00    +0.000 A 
ATOM      5  C   UNL     1       7.181   5.231  16.807  0.00  0.00    +0.000 A 
ATOM      6  C   UNL     1       6.636   6.430  17.299  0.00  0.00    +0.000 A 
ENDROOT
BRANCH   6   7
ATOM      7  C   UNL     1       7.574   7.404  17.930  0.00  0.00    +0.000 C 
ATOM      8  O   UNL     1       8.335   6.998  18.802  0.00  0.00    +0.000 OA
ATOM      9  N   UNL     1       7.540   8.707  17.443  0.00  0.00    +0.000 N 
ATOM     10  H   UNL     1       7.015   8.904  16.599  0.00  0.00    +0.000 HD
BRANCH   9  11
ATOM     11  C   UNL     1       8.267   9.793  17.972  0.00  0.00    +0.000 A 
ATOM     12  C   UNL     1       9.107   9.648  19.085  0.00  0.00    +0.000 A 
ATOM     13  C   UNL     1       9.829  10.733  19.580  0.00  0.00    +0.000 A 
ATOM     14  C   UNL     1       9.724  11.980  18.973  0.00  0.00    +0.000 A 
ATOM     15  C   UNL     1       8.872  12.133  17.881  0.00  0.00    +0.000 A 
ATOM     16  C   UNL     1       8.130  11.058  17.389  0.00  0.00    +0.000 A 
BRANCH  15  17
ATOM     17  O   UNL     1       8.753  13.343  17.260  0.00  0.00    +0.000 OA
ATOM     18  H   UNL     1       9.453  13.928  17.585  0.00  0.00    +0.000 HD
ENDBRANCH  15  17
ENDBRANCH   9  11
ENDBRANCH   6   7
BRANCH   1  19
ATOM     19  O   UNL     1       4.493   7.656  17.728  0.00  0.00    +0.000 OA
BRANCH  19  21
ATOM     20  C   UNL     1       2.372   8.756  17.791  0.00  0.00    +0.000 C 
ATOM     21  C   UNL     1       3.120   7.465  18.064  0.00  0.00    +0.000 C 
ENDBRANCH  19  21
ENDBRANCH   1  19
BRANCH   3  22
ATOM     22  O   UNL     1       4.095   3.316  16.126  0.00  0.00    +0.000 OA
BRANCH  22  23
ATOM     23  C   UNL     1       2.958   3.239  16.996  0.00  0.00    +0.000 C 
BRANCH  23  24
ATOM     24  C   UNL     1       3.067   2.008  17.897  0.00  0.00    +0.000 C 
BRANCH  24  25
ATOM     25  C   UNL     1       1.890   1.990  18.882  0.00  0.00    +0.000 C 
BRANCH  25  26
ATOM     26  N   UNL     1       2.193   2.399  20.264  0.00  0.00    +0.000 NA
ATOM     27  C   UNL     1       1.100   3.113  20.943  0.00  0.00    +0.000 C 
ATOM     28  C   UNL     1       1.256   4.562  20.532  0.00  0.00    +0.000 C 
ATOM     29  C   UNL     1       2.761   4.746  20.532  0.00  0.00    +0.000 C 
ATOM     30  C   UNL     1       3.327   3.354  20.264  0.00  0.00    +0.000 C 
ENDBRANCH  25  26
ENDBRANCH  24  25
ENDBRANCH  23  24
ENDBRANCH  22  23
ENDBRANCH   3  22
TORSDOF 10
ENDMDL
MODEL 4
REMARK VINA RESULT:      -6.3      3.134      7.880
REMARK  Name = 
REMARK  11 active torsions:
REMARK  status: ('A' for Active; 'I' for Inactive)
REMARK    1  A    between atoms: C_1  and  C_2
REMARK    2  A    between atoms: C_2  and  O_3
REMARK    3  A    between atoms: O_3  and  C_4
REMARK    4  A    between atoms: C_6  and  O_7
REMARK    5  A    between atoms: O_7  and  C_8
REMARK    6  A    between atoms: C_8  and  C_9
REMARK    7  A    between atoms: C_9  and  C_10
REMARK    8  A    between atoms: C_10  and  N_11
REMARK    9  A    between atoms: C_18  and  C_19
REMARK   10  A    between atoms: N_21  and  C_22
REMARK   11  A    between atoms: C_26  and  O_27
REMARK                            x       y       z     vdW  Elec       q    Type
REMARK                         _______ _______ _______ _____ _____    ______ ____
ROOT
ATOM      1  C   UNL     1       2.644   5.385  17.882  0.00  0.00    +0.000 A 
ATOM      2  C   UNL     1       3.578   4.481  17.335  0.00  0.00    +0.000 A 
ATOM      3  C   UNL     1       4.805   4.912  16.829  0.00  0.00    +0.000 A 
ATOM      4  C   UNL     1       5.082   6.274  16.798  0.00  0.00    +0.000 A 
ATOM      5  C   UNL     1       4.187   7.181  17.368  0.00  0.00    +0.000 A 
ATOM      6  C   UNL     1       2.973   6.752  17.932  0.00  0.00    +0.000 A 
ENDROOT
BRANCH   6   7
ATOM      7  C   UNL     1       2.164   7.762  18.676  0.00  0.00    +0.000 C 
ATOM      8  O   UNL     1       2.018   7.615  19.884  0.00  0.00    +0.000 OA
ATOM      9  N   UNL     1       1.667   8.830  17.935  0.00  0.00    +0.000 N 
ATOM     10  H   UNL     1       1.994   8.967  16.986  0.00  0.00    +0.000 HD
BRANCH   9  11
ATOM     11  C   UNL     1       0.801   9.828  18.427  0.00  0.00    +0.000 A 
ATOM     12  C   UNL     1      -0.550   9.883  18.055  0.00  0.00    +0.000 A 
ATOM     13  C   UNL     1      -1.391  10.869  18.567  0.00  0.00    +0.000 A 
ATOM     14  C   UNL     1      -0.900  11.816  19.459  0.00  0.00    +0.000 A 
ATOM     15  C   UNL     1       0.448  11.779  19.812  0.00  0.00    +0.000 A 
ATOM     16  C   UNL     1       1.304  10.808  19.291  0.00  0.00    +0.000 A 
BRANCH  15  17
ATOM     17  O   UNL     1       0.959  12.691  20.689  0.00  0.00    +0.000 OA
ATOM     18  H   UNL     1       1.874  12.446  20.894  0.00  0.00    +0.000 HD
ENDBRANCH  15  17
ENDBRANCH   9  11
ENDBRANCH   6   7
BRANCH   1  19
ATOM     19  O   UNL     1       1.541   4.743  18.371  0.00  0.00    +0.000 OA
BRANCH  19  21
ATOM     20  C   UNL     1       1.415   4.216  20.699  0.00  0.00    +0.000 C 
ATOM     21  C   UNL     1       1.697   3.679  19.308  0.00  0.00    +0.000 C 
ENDBRANCH  19  21
ENDBRANCH   1  19
BRANCH   3  22
ATOM     22  O   UNL     1       5.674   3.936  16.414  0.00  0.00    +0.000 OA
BRANCH  22  23
ATOM     23  C   UNL     1       6.941   4.420  15.954  0.00  0.00    +0.000 C 
BRANCH  23  24
ATOM     24  C   UNL     1       6.875   4.729  14.457  0.00  0.00    +0.000 C 
BRANCH  24  25
ATOM     25  C   UNL     1       5.982   3.692  13.761  0.00  0.00    +0.000 C 
BRANCH  25  26
ATOM     26  N   UNL     1       5.903   3.783  12.293  0.00  0.00    +0.000 NA
ATOM     27  C   UNL     1       5.035   2.775  11.664  0.00  0.00    +0.000 C 
ATOM     28  C   UNL     1       5.909   1.549  11.493  0.00  0.00    +0.000 C 
ATOM     29  C   UNL     1       7.244   2.147  11.097  0.00  0.00    +0.000 C 
ATOM     30  C   UNL     1       7.244   3.546  11.707  0.00  0.00    +0.000 C 
ENDBRANCH  25  26
ENDBRANCH  24  25
ENDBRANCH  23  24
ENDBRANCH  22  23
ENDBRANCH   3  22
TORSDOF 10
ENDMDL
MODEL 5
REMARK VINA RESULT:      -6.3      5.174      8.430
REMARK  Name = 
REMARK  11 active torsions:
REMARK  status: ('A' for Active; 'I' for Inactive)
REMARK    1  A    between atoms: C_1  and  C_2
REMARK    2  A    between atoms: C_2  and  O_3
REMARK    3  A    between atoms: O_3  and  C_4
REMARK    4  A    between atoms: C_6  and  O_7
REMARK    5  A    between atoms: O_7  and  C_8
REMARK    6  A    between atoms: C_8  and  C_9
REMARK    7  A    between atoms: C_9  and  C_10
REMARK    8  A    between atoms: C_10  and  N_11
REMARK    9  A    between atoms: C_18  and  C_19
REMARK   10  A    between atoms: N_21  and  C_22
REMARK   11  A    between atoms: C_26  and  O_27
REMARK                            x       y       z     vdW  Elec       q    Type
REMARK                         _______ _______ _______ _____ _____    ______ ____
ROOT
ATOM      1  C   UNL     1       1.315   8.811  20.286  0.00  0.00    +0.000 A 
ATOM      2  C   UNL     1       1.988   7.577  20.178  0.00  0.00    +0.000 A 
ATOM      3  C   UNL     1       2.474   7.112  18.955  0.00  0.00    +0.000 A 
ATOM      4  C   UNL     1       2.223   7.849  17.804  0.00  0.00    +0.000 A 
ATOM      5  C   UNL     1       1.591   9.091  17.894  0.00  0.00    +0.000 A 
ATOM      6  C   UNL     1       1.148   9.596  19.129  0.00  0.00    +0.000 A 
ENDROOT
BRANCH   6   7
ATOM      7  C   UNL     1       0.649  11.001  19.159  0.00  0.00    +0.000 C 
ATOM      8  O   UNL     1      -0.399  11.260  18.576  0.00  0.00    +0.000 OA
ATOM      9  N   UNL     1       1.400  11.914  19.893  0.00  0.00    +0.000 N 
ATOM     10  H   UNL     1       2.143  11.574  20.491  0.00  0.00    +0.000 HD
BRANCH   9  11
ATOM     11  C   UNL     1       1.156  13.301  19.960  0.00  0.00    +0.000 A 
ATOM     12  C   UNL     1       0.357  13.864  20.965  0.00  0.00    +0.000 A 
ATOM     13  C   UNL     1       0.144  15.240  21.020  0.00  0.00    +0.000 A 
ATOM     14  C   UNL     1       0.724  16.078  20.074  0.00  0.00    +0.000 A 
ATOM     15  C   UNL     1       1.499  15.520  19.059  0.00  0.00    +0.000 A 
ATOM     16  C   UNL     1       1.704  14.142  18.983  0.00  0.00    +0.000 A 
BRANCH  15  17
ATOM     17  O   UNL     1       2.087  16.316  18.119  0.00  0.00    +0.000 OA
ATOM     18  H   UNL     1       2.882  15.871  17.789  0.00  0.00    +0.000 HD
ENDBRANCH  15  17
ENDBRANCH   9  11
ENDBRANCH   6   7
BRANCH   1  19
ATOM     19  O   UNL     1       0.981   9.097  21.580  0.00  0.00    +0.000 OA
BRANCH  19  21
ATOM     20  C   UNL     1      -0.646   9.964  23.101  0.00  0.00    +0.000 C 
ATOM     21  C   UNL     1      -0.370   8.943  22.013  0.00  0.00    +0.000 C 
ENDBRANCH  19  21
ENDBRANCH   1  19
BRANCH   3  22
ATOM     22  O   UNL     1       3.198   5.948  18.986  0.00  0.00    +0.000 OA
BRANCH  22  23
ATOM     23  C   UNL     1       3.920   5.661  17.783  0.00  0.00    +0.000 C 
BRANCH  23  24
ATOM     24  C   UNL     1       3.914   4.155  17.512  0.00  0.00    +0.000 C 
BRANCH  24  25
ATOM     25  C   UNL     1       2.464   3.654  17.446  0.00  0.00    +0.000 C 
BRANCH  25  26
ATOM     26  N   UNL     1       2.133   2.507  18.309  0.00  0.00    +0.000 NA
ATOM     27  C   UNL     1       0.812   2.588  18.951  0.00  0.00    +0.000 C 
ATOM     28  C   UNL     1       1.029   3.406  20.207  0.00  0.00    +0.000 C 
ATOM     29  C   UNL     1       2.380   2.917  20.691  0.00  0.00    +0.000 C 
ATOM     30  C   UNL     1       3.097   2.433  19.433  0.00  0.00    +0.000 C 
ENDBRANCH  25  26
ENDBRANCH  24  25
ENDBRANCH  23  24
ENDBRANCH  22  23
ENDBRANCH   3  22
TORSDOF 10
ENDMDL
MODEL 6
REMARK VINA RESULT:      -6.3      3.385      8.182
REMARK  Name = 
REMARK  11 active torsions:
REMARK  status: ('A' for Active; 'I' for Inactive)
REMARK    1  A    between atoms: C_1  and  C_2
REMARK    2  A    between atoms: C_2  and  O_3
REMARK    3  A    between atoms: O_3  and  C_4
REMARK    4  A    between atoms: C_6  and  O_7
REMARK    5  A    between atoms: O_7  and  C_8
REMARK    6  A    between atoms: C_8  and  C_9
REMARK    7  A    between atoms: C_9  and  C_10
REMARK    8  A    between atoms: C_10  and  N_11
REMARK    9  A    between atoms: C_18  and  C_19
REMARK   10  A    between atoms: N_21  and  C_22
REMARK   11  A    between atoms: C_26  and  O_27
REMARK                            x       y       z     vdW  Elec       q    Type
REMARK                         _______ _______ _______ _____ _____    ______ ____
ROOT
ATOM      1  C   UNL     1       2.459   5.959  19.300  0.00  0.00    +0.000 A 
ATOM      2  C   UNL     1       3.431   5.027  18.883  0.00  0.00    +0.000 A 
ATOM      3  C   UNL     1       4.371   5.339  17.901  0.00  0.00    +0.000 A 
ATOM      4  C   UNL     1       4.302   6.574  17.267  0.00  0.00    +0.000 A 
ATOM      5  C   UNL     1       3.370   7.524  17.690  0.00  0.00    +0.000 A 
ATOM      6  C   UNL     1       2.454   7.240  18.718  0.00  0.00    +0.000 A 
ENDROOT
BRANCH   6   7
ATOM      7  C   UNL     1       1.620   8.367  19.227  0.00  0.00    +0.000 C 
ATOM      8  O   UNL     1       1.227   9.209  18.427  0.00  0.00    +0.000 OA
ATOM      9  N   UNL     1       1.312   8.351  20.585  0.00  0.00    +0.000 N 
ATOM     10  H   UNL     1       1.522   7.522  21.128  0.00  0.00    +0.000 HD
BRANCH   9  11
ATOM     11  C   UNL     1       0.628   9.372  21.276  0.00  0.00    +0.000 A 
ATOM     12  C   UNL     1      -0.154   9.103  22.408  0.00  0.00    +0.000 A 
ATOM     13  C   UNL     1      -0.807  10.131  23.085  0.00  0.00    +0.000 A 
ATOM     14  C   UNL     1      -0.693  11.445  22.643  0.00  0.00    +0.000 A 
ATOM     15  C   UNL     1       0.064  11.713  21.504  0.00  0.00    +0.000 A 
ATOM     16  C   UNL     1       0.708  10.689  20.808  0.00  0.00    +0.000 A 
BRANCH  15  17
ATOM     17  O   UNL     1       0.201  12.993  21.050  0.00  0.00    +0.000 OA
ATOM     18  H   UNL     1      -0.345  13.577  21.597  0.00  0.00    +0.000 HD
ENDBRANCH  15  17
ENDBRANCH   9  11
ENDBRANCH   6   7
BRANCH   1  19
ATOM     19  O   UNL     1       1.681   5.466  20.310  0.00  0.00    +0.000 OA
BRANCH  19  21
ATOM     20  C   UNL     1       1.264   3.247  21.096  0.00  0.00    +0.000 C 
ATOM     21  C   UNL     1       2.193   4.445  21.164  0.00  0.00    +0.000 C 
ENDBRANCH  19  21
ENDBRANCH   1  19
BRANCH   3  22
ATOM     22  O   UNL     1       5.330   4.392  17.647  0.00  0.00    +0.000 OA
BRANCH  22  23
ATOM     23  C   UNL     1       6.648   4.742  18.088  0.00  0.00    +0.000 C 
BRANCH  23  24
ATOM     24  C   UNL     1       7.526   5.099  16.887  0.00  0.00    +0.000 C 
BRANCH  24  25
ATOM     25  C   UNL     1       7.078   4.284  15.665  0.00  0.00    +0.000 C 
BRANCH  25  26
ATOM     26  N   UNL     1       6.556   5.055  14.525  0.00  0.00    +0.000 NA
ATOM     27  C   UNL     1       5.390   4.452  13.862  0.00  0.00    +0.000 C 
ATOM     28  C   UNL     1       5.964   3.464  12.867  0.00  0.00    +0.000 C 
ATOM     29  C   UNL     1       7.182   4.196  12.340  0.00  0.00    +0.000 C 
ATOM     30  C   UNL     1       7.590   5.142  13.466  0.00  0.00    +0.000 C 
ENDBRANCH  25  26
ENDBRANCH  24  25
ENDBRANCH  23  24
ENDBRANCH  22  23
ENDBRANCH   3  22
TORSDOF 10
ENDMDL
MODEL 7
REMARK VINA RESULT:      -6.3      3.483      5.154
REMARK  Name = 
REMARK  11 active torsions:
REMARK  status: ('A' for Active; 'I' for Inactive)
REMARK    1  A    between atoms: C_1  and  C_2
REMARK    2  A    between atoms: C_2  and  O_3
REMARK    3  A    between atoms: O_3  and  C_4
REMARK    4  A    between atoms: C_6  and  O_7
REMARK    5  A    between atoms: O_7  and  C_8
REMARK    6  A    between atoms: C_8  and  C_9
REMARK    7  A    between atoms: C_9  and  C_10
REMARK    8  A    between atoms: C_10  and  N_11
REMARK    9  A    between atoms: C_18  and  C_19
REMARK   10  A    between atoms: N_21  and  C_22
REMARK   11  A    between atoms: C_26  and  O_27
REMARK                            x       y       z     vdW  Elec       q    Type
REMARK                         _______ _______ _______ _____ _____    ______ ____
ROOT
ATOM      1  C   UNL     1       4.447   4.709  18.965  0.00  0.00    +0.000 A 
ATOM      2  C   UNL     1       3.459   5.218  19.835  0.00  0.00    +0.000 A 
ATOM      3  C   UNL     1       2.777   6.402  19.555  0.00  0.00    +0.000 A 
ATOM      4  C   UNL     1       3.130   7.136  18.429  0.00  0.00    +0.000 A 
ATOM      5  C   UNL     1       4.079   6.632  17.537  0.00  0.00    +0.000 A 
ATOM      6  C   UNL     1       4.732   5.411  17.779  0.00  0.00    +0.000 A 
ENDROOT
BRANCH   6   7
ATOM      7  C   UNL     1       5.593   4.863  16.691  0.00  0.00    +0.000 C 
ATOM      8  O   UNL     1       6.673   4.370  16.995  0.00  0.00    +0.000 OA
ATOM      9  N   UNL     1       5.075   4.916  15.400  0.00  0.00    +0.000 N 
ATOM     10  H   UNL     1       4.102   5.168  15.269  0.00  0.00    +0.000 HD
BRANCH   9  11
ATOM     11  C   UNL     1       5.768   4.548  14.229  0.00  0.00    +0.000 A 
ATOM     12  C   UNL     1       6.998   5.125  13.886  0.00  0.00    +0.000 A 
ATOM     13  C   UNL     1       7.673   4.733  12.731  0.00  0.00    +0.000 A 
ATOM     14  C   UNL     1       7.132   3.758  11.900  0.00  0.00    +0.000 A 
ATOM     15  C   UNL     1       5.897   3.199  12.226  0.00  0.00    +0.000 A 
ATOM     16  C   UNL     1       5.204   3.598  13.370  0.00  0.00    +0.000 A 
BRANCH  15  17
ATOM     17  O   UNL     1       5.343   2.235  11.433  0.00  0.00    +0.000 OA
ATOM     18  H   UNL     1       4.541   2.594  11.024  0.00  0.00    +0.000 HD
ENDBRANCH  15  17
ENDBRANCH   9  11
ENDBRANCH   6   7
BRANCH   1  19
ATOM     19  O   UNL     1       4.942   3.513  19.402  0.00  0.00    +0.000 OA
BRANCH  19  21
ATOM     20  C   UNL     1       3.583   1.728  18.576  0.00  0.00    +0.000 C 
ATOM     21  C   UNL     1       4.045   2.481  19.809  0.00  0.00    +0.000 C 
ENDBRANCH  19  21
ENDBRANCH   1  19
BRANCH   3  22
ATOM     22  O   UNL     1       1.770   6.747  20.419  0.00  0.00    +0.000 OA
BRANCH  22  23
ATOM     23  C   UNL     1       1.407   8.133  20.392  0.00  0.00    +0.000 C 
BRANCH  23  24
ATOM     24  C   UNL     1       1.236   8.660  21.818  0.00  0.00    +0.000 C 
BRANCH  24  25
ATOM     25  C   UNL     1      -0.034   9.519  21.897  0.00  0.00    +0.000 C 
BRANCH  25  26
ATOM     26  N   UNL     1       0.156  10.927  22.282  0.00  0.00    +0.000 NA
ATOM     27  C   UNL     1      -1.047  11.580  22.823  0.00  0.00    +0.000 C 
ATOM     28  C   UNL     1      -1.814  12.067  21.610  0.00  0.00    +0.000 C 
ATOM     29  C   UNL     1      -0.709  12.546  20.690  0.00  0.00    +0.000 C 
ATOM     30  C   UNL     1       0.516  11.727  21.087  0.00  0.00    +0.000 C 
ENDBRANCH  25  26
ENDBRANCH  24  25
ENDBRANCH  23  24
ENDBRANCH  22  23
ENDBRANCH   3  22
TORSDOF 10
ENDMDL
MODEL 8
REMARK VINA RESULT:      -6.2      6.013     10.291
REMARK  Name = 
REMARK  11 active torsions:
REMARK  status: ('A' for Active; 'I' for Inactive)
REMARK    1  A    between atoms: C_1  and  C_2
REMARK    2  A    between atoms: C_2  and  O_3
REMARK    3  A    between atoms: O_3  and  C_4
REMARK    4  A    between atoms: C_6  and  O_7
REMARK    5  A    between atoms: O_7  and  C_8
REMARK    6  A    between atoms: C_8  and  C_9
REMARK    7  A    between atoms: C_9  and  C_10
REMARK    8  A    between atoms: C_10  and  N_11
REMARK    9  A    between atoms: C_18  and  C_19
REMARK   10  A    between atoms: N_21  and  C_22
REMARK   11  A    between atoms: C_26  and  O_27
REMARK                            x       y       z     vdW  Elec       q    Type
REMARK                         _______ _______ _______ _____ _____    ______ ____
ROOT
ATOM      1  C   UNL     1       0.825  10.423  19.909  0.00  0.00    +0.000 A 
ATOM      2  C   UNL     1       1.367   9.610  18.892  0.00  0.00    +0.000 A 
ATOM      3  C   UNL     1       1.794   8.307  19.146  0.00  0.00    +0.000 A 
ATOM      4  C   UNL     1       1.751   7.824  20.449  0.00  0.00    +0.000 A 
ATOM      5  C   UNL     1       1.184   8.599  21.462  0.00  0.00    +0.000 A 
ATOM      6  C   UNL     1       0.698   9.893  21.206  0.00  0.00    +0.000 A 
ENDROOT
BRANCH   6   7
ATOM      7  C   UNL     1      -0.050  10.576  22.300  0.00  0.00    +0.000 C 
ATOM      8  O   UNL     1      -0.017  10.086  23.424  0.00  0.00    +0.000 OA
ATOM      9  N   UNL     1      -0.703  11.759  21.965  0.00  0.00    +0.000 N 
ATOM     10  H   UNL     1      -0.521  12.184  21.063  0.00  0.00    +0.000 HD
BRANCH   9  11
ATOM     11  C   UNL     1      -1.544  12.496  22.823  0.00  0.00    +0.000 A 
ATOM     12  C   UNL     1      -1.179  13.758  23.313  0.00  0.00    +0.000 A 
ATOM     13  C   UNL     1      -2.035  14.475  24.147  0.00  0.00    +0.000 A 
ATOM     14  C   UNL     1      -3.269  13.945  24.507  0.00  0.00    +0.000 A 
ATOM     15  C   UNL     1      -3.625  12.681  24.042  0.00  0.00    +0.000 A 
ATOM     16  C   UNL     1      -2.769  11.946  23.221  0.00  0.00    +0.000 A 
BRANCH  15  17
ATOM     17  O   UNL     1      -4.833  12.136  24.373  0.00  0.00    +0.000 OA
ATOM     18  H   UNL     1      -5.211  12.644  25.106  0.00  0.00    +0.000 HD
ENDBRANCH  15  17
ENDBRANCH   9  11
ENDBRANCH   6   7
BRANCH   1  19
ATOM     19  O   UNL     1       0.418  11.636  19.428  0.00  0.00    +0.000 OA
BRANCH  19  21
ATOM     20  C   UNL     1       2.040  13.289  20.019  0.00  0.00    +0.000 C 
ATOM     21  C   UNL     1       1.377  12.539  18.879  0.00  0.00    +0.000 C 
ENDBRANCH  19  21
ENDBRANCH   1  19
BRANCH   3  22
ATOM     22  O   UNL     1       2.210   7.576  18.063  0.00  0.00    +0.000 OA
BRANCH  22  23
ATOM     23  C   UNL     1       2.669   6.255  18.374  0.00  0.00    +0.000 C 
BRANCH  23  24
ATOM     24  C   UNL     1       4.190   6.178  18.228  0.00  0.00    +0.000 C 
BRANCH  24  25
ATOM     25  C   UNL     1       4.570   6.334  16.748  0.00  0.00    +0.000 C 
BRANCH  25  26
ATOM     26  N   UNL     1       5.999   6.544  16.462  0.00  0.00    +0.000 NA
ATOM     27  C   UNL     1       6.617   5.496  15.634  0.00  0.00    +0.000 C 
ATOM     28  C   UNL     1       7.022   4.408  16.606  0.00  0.00    +0.000 C 
ATOM     29  C   UNL     1       7.516   5.198  17.801  0.00  0.00    +0.000 C 
ATOM     30  C   UNL     1       6.769   6.528  17.729  0.00  0.00    +0.000 C 
ENDBRANCH  25  26
ENDBRANCH  24  25
ENDBRANCH  23  24
ENDBRANCH  22  23
ENDBRANCH   3  22
TORSDOF 10
ENDMDL
MODEL 9
REMARK VINA RESULT:      -6.2      5.348      7.271
REMARK  Name = 
REMARK  11 active torsions:
REMARK  status: ('A' for Active; 'I' for Inactive)
REMARK    1  A    between atoms: C_1  and  C_2
REMARK    2  A    between atoms: C_2  and  O_3
REMARK    3  A    between atoms: O_3  and  C_4
REMARK    4  A    between atoms: C_6  and  O_7
REMARK    5  A    between atoms: O_7  and  C_8
REMARK    6  A    between atoms: C_8  and  C_9
REMARK    7  A    between atoms: C_9  and  C_10
REMARK    8  A    between atoms: C_10  and  N_11
REMARK    9  A    between atoms: C_18  and  C_19
REMARK   10  A    between atoms: N_21  and  C_22
REMARK   11  A    between atoms: C_26  and  O_27
REMARK                            x       y       z     vdW  Elec       q    Type
REMARK                         _______ _______ _______ _____ _____    ______ ____
ROOT
ATOM      1  C   UNL     1       1.980   7.484  20.021  0.00  0.00    +0.000 A 
ATOM      2  C   UNL     1       1.107   8.435  20.588  0.00  0.00    +0.000 A 
ATOM      3  C   UNL     1       0.695   9.565  19.881  0.00  0.00    +0.000 A 
ATOM      4  C   UNL     1       1.215   9.794  18.612  0.00  0.00    +0.000 A 
ATOM      5  C   UNL     1       2.051   8.847  18.019  0.00  0.00    +0.000 A 
ATOM      6  C   UNL     1       2.428   7.677  18.701  0.00  0.00    +0.000 A 
ENDROOT
BRANCH   6   7
ATOM      7  C   UNL     1       3.172   6.639  17.929  0.00  0.00    +0.000 C 
ATOM      8  O   UNL     1       2.617   5.569  17.706  0.00  0.00    +0.000 OA
ATOM      9  N   UNL     1       4.442   6.989  17.480  0.00  0.00    +0.000 N 
ATOM     10  H   UNL     1       4.742   7.954  17.550  0.00  0.00    +0.000 HD
BRANCH   9  11
ATOM     11  C   UNL     1       5.342   6.121  16.827  0.00  0.00    +0.000 A 
ATOM     12  C   UNL     1       5.262   5.872  15.450  0.00  0.00    +0.000 A 
ATOM     13  C   UNL     1       6.173   5.023  14.824  0.00  0.00    +0.000 A 
ATOM     14  C   UNL     1       7.178   4.407  15.562  0.00  0.00    +0.000 A 
ATOM     15  C   UNL     1       7.246   4.634  16.936  0.00  0.00    +0.000 A 
ATOM     16  C   UNL     1       6.328   5.467  17.576  0.00  0.00    +0.000 A 
BRANCH  15  17
ATOM     17  O   UNL     1       8.225   4.049  17.686  0.00  0.00    +0.000 OA
ATOM     18  H   UNL     1       8.114   4.324  18.609  0.00  0.00    +0.000 HD
ENDBRANCH  15  17
ENDBRANCH   9  11
ENDBRANCH   6   7
BRANCH   1  19
ATOM     19  O   UNL     1       2.203   6.432  20.864  0.00  0.00    +0.000 OA
BRANCH  19  21
ATOM     20  C   UNL     1       2.295   4.046  20.972  0.00  0.00    +0.000 C 
ATOM     21  C   UNL     1       1.404   5.255  20.757  0.00  0.00    +0.000 C 
ENDBRANCH  19  21
ENDBRANCH   1  19
BRANCH   3  22
ATOM     22  O   UNL     1      -0.231  10.368  20.494  0.00  0.00    +0.000 OA
BRANCH  22  23
ATOM     23  C   UNL     1       0.324  11.378  21.346  0.00  0.00    +0.000 C 
BRANCH  23  24
ATOM     24  C   UNL     1      -0.714  11.823  22.379  0.00  0.00    +0.000 C 
BRANCH  24  25
ATOM     25  C   UNL     1      -2.022  12.188  21.664  0.00  0.00    +0.000 C 
BRANCH  25  26
ATOM     26  N   UNL     1      -2.742  13.362  22.186  0.00  0.00    +0.000 NA
ATOM     27  C   UNL     1      -2.723  13.489  23.652  0.00  0.00    +0.000 C 
ATOM     28  C   UNL     1      -3.871  12.630  24.140  0.00  0.00    +0.000 C 
ATOM     29  C   UNL     1      -4.943  12.886  23.100  0.00  0.00    +0.000 C 
ATOM     30  C   UNL     1      -4.179  13.264  21.833  0.00  0.00    +0.000 C 
ENDBRANCH  25  26
ENDBRANCH  24  25
ENDBRANCH  23  24
ENDBRANCH  22  23
ENDBRANCH   3  22
TORSDOF 10
ENDMDL
