MODEL 1
REMARK VINA RESULT:      -7.6      0.000      0.000
REMARK  Name = 
REMARK  3 active torsions:
REMARK  status: ('A' for Active; 'I' for Inactive)
REMARK    1  A    between atoms: C_2  and  N_3
REMARK    2  A    between atoms: C_2  and  N_11
REMARK    3  A    between atoms: N_3  and  C_4
REMARK                            x       y       z     vdW  Elec       q    Type
REMARK                         _______ _______ _______ _____ _____    ______ ____
ROOT
ATOM      1  N   UNL     1       3.437   5.459  17.898  0.00  0.00    +0.000 N 
ATOM      2  C   UNL     1       4.103   6.575  17.169  0.00  0.00    +0.000 C 
ATOM      3  C   UNL     1       5.514   6.184  16.643  0.00  0.00    +0.000 C 
ATOM      4  N   UNL     1       5.397   4.917  15.920  0.00  0.00    +0.000 N 
ATOM      5  C   UNL     1       6.078   4.696  14.746  0.00  0.00    +0.000 A 
ATOM      6  C   UNL     1       5.563   3.801  13.803  0.00  0.00    +0.000 A 
ATOM      7  C   UNL     1       6.208   3.612  12.585  0.00  0.00    +0.000 A 
ATOM      8  C   UNL     1       7.372   4.307  12.331  0.00  0.00    +0.000 A 
ATOM      9  C   UNL     1       7.829   5.178  13.306  0.00  0.00    +0.000 A 
ATOM     10  N   UNL     1       7.198   5.398  14.486  0.00  0.00    +0.000 NA
ATOM     11  C   UNL     1       4.881   3.806  16.720  0.00  0.00    +0.000 C 
ATOM     12  C   UNL     1       3.456   4.177  17.155  0.00  0.00    +0.000 C 
ENDROOT
BRANCH   1  14
ATOM     13  S   UNL     1       2.346   4.273  20.095  0.00  0.00    +0.000 S 
ATOM     14  C   UNL     1       3.017   5.558  19.230  0.00  0.00    +0.000 C 
BRANCH  14  15
ATOM     15  N   UNL     1       3.123   6.853  19.730  0.00  0.00    +0.000 N 
ATOM     16  H   UNL     1       4.074   7.202  19.720  0.00  0.00    +0.000 HD
BRANCH  15  17
ATOM     17  C   UNL     1       2.101   7.824  19.826  0.00  0.00    +0.000 A 
ATOM     18  C   UNL     1       1.786   8.663  18.753  0.00  0.00    +0.000 A 
ATOM     19  C   UNL     1       0.787   9.627  18.873  0.00  0.00    +0.000 A 
ATOM     20  C   UNL     1       0.078   9.746  20.065  0.00  0.00    +0.000 A 
ATOM     21  C   UNL     1       0.358   8.880  21.121  0.00  0.00    +0.000 A 
ATOM     22 CL   UNL     1      -0.530   9.023  22.590  0.00  0.00    +0.000 Cl
ATOM     23  C   UNL     1       1.352   7.907  21.004  0.00  0.00    +0.000 A 
ENDBRANCH  15  17
ENDBRANCH  14  15
ENDBRANCH   1  14
TORSDOF 3
ENDMDL
MODEL 2
REMARK VINA RESULT:      -7.3      1.166      1.561
REMARK  Name = 
REMARK  3 active torsions:
REMARK  status: ('A' for Active; 'I' for Inactive)
REMARK    1  A    between atoms: C_2  and  N_3
REMARK    2  A    between atoms: C_2  and  N_11
REMARK    3  A    between atoms: N_3  and  C_4
REMARK                            x       y       z     vdW  Elec       q    Type
REMARK                         _______ _______ _______ _____ _____    ______ ____
ROOT
ATOM      1  N   UNL     1       3.018   5.716  18.201  0.00  0.00    +0.000 N 
ATOM      2  C   UNL     1       3.752   6.794  17.481  0.00  0.00    +0.000 C 
ATOM      3  C   UNL     1       5.166   6.343  17.015  0.00  0.00    +0.000 C 
ATOM      4  N   UNL     1       5.030   5.070  16.307  0.00  0.00    +0.000 N 
ATOM      5  C   UNL     1       5.745   4.804  15.164  0.00  0.00    +0.000 A 
ATOM      6  C   UNL     1       5.232   3.913  14.216  0.00  0.00    +0.000 A 
ATOM      7  C   UNL     1       5.915   3.680  13.026  0.00  0.00    +0.000 A 
ATOM      8  C   UNL     1       7.113   4.328  12.805  0.00  0.00    +0.000 A 
ATOM      9  C   UNL     1       7.565   5.197  13.784  0.00  0.00    +0.000 A 
ATOM     10  N   UNL     1       6.900   5.461  14.935  0.00  0.00    +0.000 NA
ATOM     11  C   UNL     1       4.443   3.993  17.104  0.00  0.00    +0.000 C 
ATOM     12  C   UNL     1       3.018   4.422  17.479  0.00  0.00    +0.000 C 
ENDROOT
BRANCH   1  14
ATOM     13  S   UNL     1       1.794   4.611  20.370  0.00  0.00    +0.000 S 
ATOM     14  C   UNL     1       2.553   5.853  19.514  0.00  0.00    +0.000 C 
BRANCH  14  15
ATOM     15  N   UNL     1       2.696   7.150  20.001  0.00  0.00    +0.000 N 
ATOM     16  H   UNL     1       3.612   7.541  19.813  0.00  0.00    +0.000 HD
BRANCH  15  17
ATOM     17  C   UNL     1       1.670   8.073  20.303  0.00  0.00    +0.000 A 
ATOM     18  C   UNL     1       1.056   8.099  21.559  0.00  0.00    +0.000 A 
ATOM     19  C   UNL     1       0.033   9.005  21.832  0.00  0.00    +0.000 A 
ATOM     20  C   UNL     1      -0.370   9.910  20.855  0.00  0.00    +0.000 A 
ATOM     21  C   UNL     1       0.272   9.918  19.618  0.00  0.00    +0.000 A 
ATOM     22 CL   UNL     1      -0.222  11.049  18.416  0.00  0.00    +0.000 Cl
ATOM     23  C   UNL     1       1.303   9.019  19.341  0.00  0.00    +0.000 A 
ENDBRANCH  15  17
ENDBRANCH  14  15
ENDBRANCH   1  14
TORSDOF 3
ENDMDL
MODEL 3
REMARK VINA RESULT:      -7.2      3.489      7.676
REMARK  Name = 
REMARK  3 active torsions:
REMARK  status: ('A' for Active; 'I' for Inactive)
REMARK    1  A    between atoms: C_2  and  N_3
REMARK    2  A    between atoms: C_2  and  N_11
REMARK    3  A    between atoms: N_3  and  C_4
REMARK                            x       y       z     vdW  Elec       q    Type
REMARK                         _______ _______ _______ _____ _____    ______ ____
ROOT
ATOM      1  N   UNL     1       2.391   4.591  18.862  0.00  0.00    +0.000 N 
ATOM      2  C   UNL     1       1.534   4.688  20.076  0.00  0.00    +0.000 C 
ATOM      3  C   UNL     1       1.881   5.926  20.952  0.00  0.00    +0.000 C 
ATOM      4  N   UNL     1       1.911   7.105  20.087  0.00  0.00    +0.000 N 
ATOM      5  C   UNL     1       1.387   8.308  20.494  0.00  0.00    +0.000 A 
ATOM      6  C   UNL     1       0.904   9.212  19.543  0.00  0.00    +0.000 A 
ATOM      7  C   UNL     1       0.315  10.408  19.943  0.00  0.00    +0.000 A 
ATOM      8  C   UNL     1       0.230  10.693  21.290  0.00  0.00    +0.000 A 
ATOM      9  C   UNL     1       0.726   9.755  22.179  0.00  0.00    +0.000 A 
ATOM     10  N   UNL     1       1.276   8.572  21.811  0.00  0.00    +0.000 NA
ATOM     11  C   UNL     1       2.880   7.030  18.993  0.00  0.00    +0.000 C 
ATOM     12  C   UNL     1       2.467   5.856  18.094  0.00  0.00    +0.000 C 
ENDROOT
BRANCH   1  14
ATOM     13  S   UNL     1       2.620   2.043  17.923  0.00  0.00    +0.000 S 
ATOM     14  C   UNL     1       3.202   3.484  18.584  0.00  0.00    +0.000 C 
BRANCH  14  15
ATOM     15  N   UNL     1       4.518   3.667  19.000  0.00  0.00    +0.000 N 
ATOM     16  H   UNL     1       4.844   2.925  19.608  0.00  0.00    +0.000 HD
BRANCH  15  17
ATOM     17  C   UNL     1       5.515   4.453  18.380  0.00  0.00    +0.000 A 
ATOM     18  C   UNL     1       6.313   5.335  19.115  0.00  0.00    +0.000 A 
ATOM     19  C   UNL     1       7.279   6.115  18.482  0.00  0.00    +0.000 A 
ATOM     20  C   UNL     1       7.468   6.005  17.108  0.00  0.00    +0.000 A 
ATOM     21  C   UNL     1       6.706   5.092  16.380  0.00  0.00    +0.000 A 
ATOM     22 CL   UNL     1       6.954   4.950  14.681  0.00  0.00    +0.000 Cl
ATOM     23  C   UNL     1       5.743   4.302  17.008  0.00  0.00    +0.000 A 
ENDBRANCH  15  17
ENDBRANCH  14  15
ENDBRANCH   1  14
TORSDOF 3
ENDMDL
MODEL 4
REMARK VINA RESULT:      -7.2      3.095      7.538
REMARK  Name = 
REMARK  3 active torsions:
REMARK  status: ('A' for Active; 'I' for Inactive)
REMARK    1  A    between atoms: C_2  and  N_3
REMARK    2  A    between atoms: C_2  and  N_11
REMARK    3  A    between atoms: N_3  and  C_4
REMARK                            x       y       z     vdW  Elec       q    Type
REMARK                         _______ _______ _______ _____ _____    ______ ____
ROOT
ATOM      1  N   UNL     1       2.353   4.564  18.868  0.00  0.00    +0.000 N 
ATOM      2  C   UNL     1       1.504   4.675  20.087  0.00  0.00    +0.000 C 
ATOM      3  C   UNL     1       1.866   5.915  20.953  0.00  0.00    +0.000 C 
ATOM      4  N   UNL     1       1.901   7.089  20.081  0.00  0.00    +0.000 N 
ATOM      5  C   UNL     1       1.388   8.298  20.484  0.00  0.00    +0.000 A 
ATOM      6  C   UNL     1       0.907   9.201  19.531  0.00  0.00    +0.000 A 
ATOM      7  C   UNL     1       0.329  10.404  19.927  0.00  0.00    +0.000 A 
ATOM      8  C   UNL     1       0.255  10.698  21.273  0.00  0.00    +0.000 A 
ATOM      9  C   UNL     1       0.749   9.761  22.165  0.00  0.00    +0.000 A 
ATOM     10  N   UNL     1       1.287   8.571  21.801  0.00  0.00    +0.000 NA
ATOM     11  C   UNL     1       2.862   7.000  18.982  0.00  0.00    +0.000 C 
ATOM     12  C   UNL     1       2.435   5.824  18.092  0.00  0.00    +0.000 C 
ENDROOT
BRANCH   1  14
ATOM     13  S   UNL     1       2.537   1.953  18.109  0.00  0.00    +0.000 S 
ATOM     14  C   UNL     1       3.154   3.449  18.591  0.00  0.00    +0.000 C 
BRANCH  14  15
ATOM     15  N   UNL     1       4.502   3.681  18.851  0.00  0.00    +0.000 N 
ATOM     16  H   UNL     1       4.894   3.022  19.512  0.00  0.00    +0.000 HD
BRANCH  15  17
ATOM     17  C   UNL     1       5.426   4.381  18.041  0.00  0.00    +0.000 A 
ATOM     18  C   UNL     1       5.517   4.146  16.666  0.00  0.00    +0.000 A 
ATOM     19  C   UNL     1       6.447   4.832  15.888  0.00  0.00    +0.000 A 
ATOM     20  C   UNL     1       7.281   5.778  16.477  0.00  0.00    +0.000 A 
ATOM     21  C   UNL     1       7.159   6.049  17.839  0.00  0.00    +0.000 A 
ATOM     22 CL   UNL     1       8.184   7.229  18.561  0.00  0.00    +0.000 Cl
ATOM     23  C   UNL     1       6.225   5.370  18.623  0.00  0.00    +0.000 A 
ENDBRANCH  15  17
ENDBRANCH  14  15
ENDBRANCH   1  14
TORSDOF 3
ENDMDL
MODEL 5
REMARK VINA RESULT:      -7.1      4.418      7.713
REMARK  Name = 
REMARK  3 active torsions:
REMARK  status: ('A' for Active; 'I' for Inactive)
REMARK    1  A    between atoms: C_2  and  N_3
REMARK    2  A    between atoms: C_2  and  N_11
REMARK    3  A    between atoms: N_3  and  C_4
REMARK                            x       y       z     vdW  Elec       q    Type
REMARK                         _______ _______ _______ _____ _____    ______ ____
ROOT
ATOM      1  N   UNL     1       5.962   6.153  18.173  0.00  0.00    +0.000 N 
ATOM      2  C   UNL     1       4.595   6.478  17.679  0.00  0.00    +0.000 C 
ATOM      3  C   UNL     1       3.713   5.210  17.489  0.00  0.00    +0.000 C 
ATOM      4  N   UNL     1       3.785   4.415  18.715  0.00  0.00    +0.000 N 
ATOM      5  C   UNL     1       2.674   3.798  19.236  0.00  0.00    +0.000 A 
ATOM      6  C   UNL     1       2.596   3.552  20.610  0.00  0.00    +0.000 A 
ATOM      7  C   UNL     1       1.452   2.982  21.161  0.00  0.00    +0.000 A 
ATOM      8  C   UNL     1       0.405   2.649  20.329  0.00  0.00    +0.000 A 
ATOM      9  C   UNL     1       0.545   2.920  18.977  0.00  0.00    +0.000 A 
ATOM     10  N   UNL     1       1.638   3.501  18.426  0.00  0.00    +0.000 NA
ATOM     11  C   UNL     1       5.135   3.986  19.081  0.00  0.00    +0.000 C 
ATOM     12  C   UNL     1       5.963   5.251  19.348  0.00  0.00    +0.000 C 
ENDROOT
BRANCH   1  14
ATOM     13  S   UNL     1       7.767   8.059  17.442  0.00  0.00    +0.000 S 
ATOM     14  C   UNL     1       7.129   6.496  17.479  0.00  0.00    +0.000 C 
BRANCH  14  15
ATOM     15  N   UNL     1       7.648   5.433  16.746  0.00  0.00    +0.000 N 
ATOM     16  H   UNL     1       8.242   4.826  17.300  0.00  0.00    +0.000 HD
BRANCH  15  17
ATOM     17  C   UNL     1       7.141   4.886  15.545  0.00  0.00    +0.000 A 
ATOM     18  C   UNL     1       6.165   3.885  15.553  0.00  0.00    +0.000 A 
ATOM     19  C   UNL     1       5.690   3.346  14.359  0.00  0.00    +0.000 A 
ATOM     20  C   UNL     1       6.174   3.820  13.144  0.00  0.00    +0.000 A 
ATOM     21  C   UNL     1       7.112   4.851  13.132  0.00  0.00    +0.000 A 
ATOM     22 CL   UNL     1       7.699   5.443  11.625  0.00  0.00    +0.000 Cl
ATOM     23  C   UNL     1       7.586   5.400  14.324  0.00  0.00    +0.000 A 
ENDBRANCH  15  17
ENDBRANCH  14  15
ENDBRANCH   1  14
TORSDOF 3
ENDMDL
MODEL 6
REMARK VINA RESULT:      -7.0      3.218      7.752
REMARK  Name = 
REMARK  3 active torsions:
REMARK  status: ('A' for Active; 'I' for Inactive)
REMARK    1  A    between atoms: C_2  and  N_3
REMARK    2  A    between atoms: C_2  and  N_11
REMARK    3  A    between atoms: N_3  and  C_4
REMARK                            x       y       z     vdW  Elec       q    Type
REMARK                         _______ _______ _______ _____ _____    ______ ____
ROOT
ATOM      1  N   UNL     1       2.910   4.338  18.483  0.00  0.00    +0.000 N 
ATOM      2  C   UNL     1       1.819   4.389  19.496  0.00  0.00    +0.000 C 
ATOM      3  C   UNL     1       1.997   5.561  20.504  0.00  0.00    +0.000 C 
ATOM      4  N   UNL     1       2.230   6.789  19.741  0.00  0.00    +0.000 N 
ATOM      5  C   UNL     1       1.653   7.981  20.107  0.00  0.00    +0.000 A 
ATOM      6  C   UNL     1       1.398   8.955  19.137  0.00  0.00    +0.000 A 
ATOM      7  C   UNL     1       0.759  10.143  19.482  0.00  0.00    +0.000 A 
ATOM      8  C   UNL     1       0.399  10.350  20.797  0.00  0.00    +0.000 A 
ATOM      9  C   UNL     1       0.680   9.346  21.708  0.00  0.00    +0.000 A 
ATOM     10  N   UNL     1       1.274   8.170  21.387  0.00  0.00    +0.000 NA
ATOM     11  C   UNL     1       3.405   6.748  18.871  0.00  0.00    +0.000 C 
ATOM     12  C   UNL     1       3.169   5.643  17.832  0.00  0.00    +0.000 C 
ENDROOT
BRANCH   1  14
ATOM     13  S   UNL     1       3.190   1.630  18.368  0.00  0.00    +0.000 S 
ATOM     14  C   UNL     1       3.741   3.225  18.309  0.00  0.00    +0.000 C 
BRANCH  14  15
ATOM     15  N   UNL     1       5.083   3.574  18.180  0.00  0.00    +0.000 N 
ATOM     16  H   UNL     1       5.674   3.127  18.872  0.00  0.00    +0.000 HD
BRANCH  15  17
ATOM     17  C   UNL     1       5.734   4.077  17.031  0.00  0.00    +0.000 A 
ATOM     18  C   UNL     1       6.774   5.006  17.127  0.00  0.00    +0.000 A 
ATOM     19  C   UNL     1       7.392   5.504  15.982  0.00  0.00    +0.000 A 
ATOM     20  C   UNL     1       6.986   5.060  14.727  0.00  0.00    +0.000 A 
ATOM     21  C   UNL     1       5.981   4.098  14.629  0.00  0.00    +0.000 A 
ATOM     22 CL   UNL     1       5.491   3.543  13.074  0.00  0.00    +0.000 Cl
ATOM     23  C   UNL     1       5.364   3.590  15.773  0.00  0.00    +0.000 A 
ENDBRANCH  15  17
ENDBRANCH  14  15
ENDBRANCH   1  14
TORSDOF 3
ENDMDL
MODEL 7
REMARK VINA RESULT:      -6.9      3.274      7.932
REMARK  Name = 
REMARK  3 active torsions:
REMARK  status: ('A' for Active; 'I' for Inactive)
REMARK    1  A    between atoms: C_2  and  N_3
REMARK    2  A    between atoms: C_2  and  N_11
REMARK    3  A    between atoms: N_3  and  C_4
REMARK                            x       y       z     vdW  Elec       q    Type
REMARK                         _______ _______ _______ _____ _____    ______ ____
ROOT
ATOM      1  N   UNL     1       2.281   6.006  19.532  0.00  0.00    +0.000 N 
ATOM      2  C   UNL     1       1.479   6.467  20.700  0.00  0.00    +0.000 C 
ATOM      3  C   UNL     1       1.601   7.999  20.939  0.00  0.00    +0.000 C 
ATOM      4  N   UNL     1       1.346   8.682  19.670  0.00  0.00    +0.000 N 
ATOM      5  C   UNL     1       0.602   9.836  19.613  0.00  0.00    +0.000 A 
ATOM      6  C   UNL     1      -0.101  10.151  18.447  0.00  0.00    +0.000 A 
ATOM      7  C   UNL     1      -0.908  11.284  18.394  0.00  0.00    +0.000 A 
ATOM      8  C   UNL     1      -0.988  12.099  19.504  0.00  0.00    +0.000 A 
ATOM      9  C   UNL     1      -0.267  11.730  20.627  0.00  0.00    +0.000 A 
ATOM     10  N   UNL     1       0.499  10.615  20.709  0.00  0.00    +0.000 NA
ATOM     11  C   UNL     1       2.257   8.311  18.588  0.00  0.00    +0.000 C 
ATOM     12  C   UNL     1       2.057   6.815  18.311  0.00  0.00    +0.000 C 
ENDROOT
BRANCH   1  14
ATOM     13  S   UNL     1       3.012   3.441  20.091  0.00  0.00    +0.000 S 
ATOM     14  C   UNL     1       3.291   5.041  19.630  0.00  0.00    +0.000 C 
BRANCH  14  15
ATOM     15  N   UNL     1       4.559   5.569  19.400  0.00  0.00    +0.000 N 
ATOM     16  H   UNL     1       4.950   6.024  20.216  0.00  0.00    +0.000 HD
BRANCH  15  17
ATOM     17  C   UNL     1       5.476   5.194  18.392  0.00  0.00    +0.000 A 
ATOM     18  C   UNL     1       6.833   5.005  18.672  0.00  0.00    +0.000 A 
ATOM     19  C   UNL     1       7.725   4.653  17.661  0.00  0.00    +0.000 A 
ATOM     20  C   UNL     1       7.262   4.466  16.362  0.00  0.00    +0.000 A 
ATOM     21  C   UNL     1       5.902   4.607  16.089  0.00  0.00    +0.000 A 
ATOM     22 CL   UNL     1       5.333   4.362  14.482  0.00  0.00    +0.000 Cl
ATOM     23  C   UNL     1       5.002   4.952  17.099  0.00  0.00    +0.000 A 
ENDBRANCH  15  17
ENDBRANCH  14  15
ENDBRANCH   1  14
TORSDOF 3
ENDMDL
MODEL 8
REMARK VINA RESULT:      -6.9      4.586      6.830
REMARK  Name = 
REMARK  3 active torsions:
REMARK  status: ('A' for Active; 'I' for Inactive)
REMARK    1  A    between atoms: C_2  and  N_3
REMARK    2  A    between atoms: C_2  and  N_11
REMARK    3  A    between atoms: N_3  and  C_4
REMARK                            x       y       z     vdW  Elec       q    Type
REMARK                         _______ _______ _______ _____ _____    ______ ____
ROOT
ATOM      1  N   UNL     1       0.268  10.153  19.089  0.00  0.00    +0.000 N 
ATOM      2  C   UNL     1       0.866   9.379  17.965  0.00  0.00    +0.000 C 
ATOM      3  C   UNL     1       2.157   8.620  18.387  0.00  0.00    +0.000 C 
ATOM      4  N   UNL     1       1.867   7.868  19.609  0.00  0.00    +0.000 N 
ATOM      5  C   UNL     1       2.345   6.593  19.797  0.00  0.00    +0.000 A 
ATOM      6  C   UNL     1       1.646   5.704  20.619  0.00  0.00    +0.000 A 
ATOM      7  C   UNL     1       2.083   4.392  20.771  0.00  0.00    +0.000 A 
ATOM      8  C   UNL     1       3.226   3.988  20.113  0.00  0.00    +0.000 A 
ATOM      9  C   UNL     1       3.871   4.917  19.313  0.00  0.00    +0.000 A 
ATOM     10  N   UNL     1       3.444   6.190  19.128  0.00  0.00    +0.000 NA
ATOM     11  C   UNL     1       1.428   8.689  20.737  0.00  0.00    +0.000 C 
ATOM     12  C   UNL     1       0.108   9.360  20.330  0.00  0.00    +0.000 C 
ENDROOT
BRANCH   1  14
ATOM     13  S   UNL     1       1.306  12.655  18.790  0.00  0.00    +0.000 S 
ATOM     14  C   UNL     1       0.066  11.538  19.042  0.00  0.00    +0.000 C 
BRANCH  14  15
ATOM     15  N   UNL     1      -1.251  11.896  19.322  0.00  0.00    +0.000 N 
ATOM     16  H   UNL     1      -1.319  12.631  20.016  0.00  0.00    +0.000 HD
BRANCH  15  17
ATOM     17  C   UNL     1      -2.388  11.695  18.507  0.00  0.00    +0.000 A 
ATOM     18  C   UNL     1      -3.678  11.966  18.974  0.00  0.00    +0.000 A 
ATOM     19  C   UNL     1      -4.789  11.744  18.162  0.00  0.00    +0.000 A 
ATOM     20  C   UNL     1      -4.616  11.269  16.866  0.00  0.00    +0.000 A 
ATOM     21  C   UNL     1      -3.328  11.043  16.382  0.00  0.00    +0.000 A 
ATOM     22 CL   UNL     1      -3.119  10.466  14.772  0.00  0.00    +0.000 Cl
ATOM     23  C   UNL     1      -2.211  11.270  17.187  0.00  0.00    +0.000 A 
ENDBRANCH  15  17
ENDBRANCH  14  15
ENDBRANCH   1  14
TORSDOF 3
ENDMDL
MODEL 9
REMARK VINA RESULT:      -6.9      0.951      1.677
REMARK  Name = 
REMARK  3 active torsions:
REMARK  status: ('A' for Active; 'I' for Inactive)
REMARK    1  A    between atoms: C_2  and  N_3
REMARK    2  A    between atoms: C_2  and  N_11
REMARK    3  A    between atoms: N_3  and  C_4
REMARK                            x       y       z     vdW  Elec       q    Type
REMARK                         _______ _______ _______ _____ _____    ______ ____
ROOT
ATOM      1  N   UNL     1       3.991   4.844  18.663  0.00  0.00    +0.000 N 
ATOM      2  C   UNL     1       4.007   3.548  17.928  0.00  0.00    +0.000 C 
ATOM      3  C   UNL     1       3.906   3.737  16.387  0.00  0.00    +0.000 C 
ATOM      4  N   UNL     1       4.907   4.724  15.980  0.00  0.00    +0.000 N 
ATOM      5  C   UNL     1       5.646   4.565  14.833  0.00  0.00    +0.000 A 
ATOM      6  C   UNL     1       6.919   5.136  14.742  0.00  0.00    +0.000 A 
ATOM      7  C   UNL     1       7.704   4.933  13.611  0.00  0.00    +0.000 A 
ATOM      8  C   UNL     1       7.199   4.175  12.575  0.00  0.00    +0.000 A 
ATOM      9  C   UNL     1       5.932   3.637  12.728  0.00  0.00    +0.000 A 
ATOM     10  N   UNL     1       5.165   3.798  13.834  0.00  0.00    +0.000 NA
ATOM     11  C   UNL     1       4.761   6.034  16.615  0.00  0.00    +0.000 C 
ATOM     12  C   UNL     1       4.951   5.837  18.125  0.00  0.00    +0.000 C 
ENDROOT
BRANCH   1  14
ATOM     13  S   UNL     1       1.820   4.099  20.132  0.00  0.00    +0.000 S 
ATOM     14  C   UNL     1       3.030   5.164  19.630  0.00  0.00    +0.000 C 
BRANCH  14  15
ATOM     15  N   UNL     1       3.123   6.485  20.059  0.00  0.00    +0.000 N 
ATOM     16  H   UNL     1       4.045   6.723  20.406  0.00  0.00    +0.000 HD
BRANCH  15  17
ATOM     17  C   UNL     1       2.294   7.569  19.691  0.00  0.00    +0.000 A 
ATOM     18  C   UNL     1       2.244   8.037  18.374  0.00  0.00    +0.000 A 
ATOM     19  C   UNL     1       1.434   9.119  18.034  0.00  0.00    +0.000 A 
ATOM     20  C   UNL     1       0.649   9.730  19.007  0.00  0.00    +0.000 A 
ATOM     21  C   UNL     1       0.661   9.236  20.311  0.00  0.00    +0.000 A 
ATOM     22 CL   UNL     1      -0.321   9.989  21.509  0.00  0.00    +0.000 Cl
ATOM     23  C   UNL     1       1.464   8.148  20.656  0.00  0.00    +0.000 A 
ENDBRANCH  15  17
ENDBRANCH  14  15
ENDBRANCH   1  14
TORSDOF 3
ENDMDL
