MODEL 1
REMARK VINA RESULT:      -9.2      0.000      0.000
REMARK  Name = 
REMARK  5 active torsions:
REMARK  status: ('A' for Active; 'I' for Inactive)
REMARK    1  A    between atoms: C_1  and  N_2
REMARK    2  A    between atoms: N_6  and  C_7
REMARK    3  A    between atoms: C_7  and  C_8
REMARK    4  A    between atoms: C_11  and  N_12
REMARK    5  A    between atoms: C_13  and  C_15
REMARK                            x       y       z     vdW  Elec       q    Type
REMARK                         _______ _______ _______ _____ _____    ______ ____
ROOT
ATOM      1  C   UNL     1       1.725   9.171  18.844  0.00  0.00    +0.000 A 
ATOM      2  C   UNL     1       1.366   8.764  20.129  0.00  0.00    +0.000 A 
ATOM      3  C   UNL     1       0.675   9.621  20.982  0.00  0.00    +0.000 A 
ATOM      4  C   UNL     1       0.331  10.910  20.582  0.00  0.00    +0.000 A 
ATOM      5  C   UNL     1       0.661  11.324  19.281  0.00  0.00    +0.000 A 
ATOM      6  C   UNL     1       1.368  10.465  18.425  0.00  0.00    +0.000 A 
ENDROOT
BRANCH   4   7
ATOM      7  N   UNL     1      -0.354  11.813  21.425  0.00  0.00    +0.000 N 
ATOM      8  C   UNL     1      -1.055  11.442  22.561  0.00  0.00    +0.000 C 
ATOM      9  O   UNL     1      -1.081  10.327  23.060  0.00  0.00    +0.000 OA
ATOM     10  H   UNL     1      -0.296  12.791  21.176  0.00  0.00    +0.000 HD
BRANCH   8  11
ATOM     11  C   UNL     1      -1.867  12.500  23.233  0.00  0.00    +0.000 A 
ATOM     12  C   UNL     1      -1.238  13.738  23.453  0.00  0.00    +0.000 A 
ATOM     13  C   UNL     1      -1.908  14.764  24.117  0.00  0.00    +0.000 A 
ATOM     14  C   UNL     1      -3.210  14.556  24.549  0.00  0.00    +0.000 A 
ATOM     15  F   UNL     1      -3.853  15.528  25.202  0.00  0.00    +0.000 F 
ATOM     16  C   UNL     1      -3.862  13.347  24.305  0.00  0.00    +0.000 A 
ATOM     17  C   UNL     1      -3.193  12.314  23.643  0.00  0.00    +0.000 A 
ENDBRANCH   8  11
ENDBRANCH   4   7
BRANCH   1  18
ATOM     18  C   UNL     1       2.502   8.224  17.952  0.00  0.00    +0.000 C 
BRANCH  18  24
ATOM     19  C   UNL     1       6.869   7.087  17.362  0.00  0.00    +0.000 C 
ATOM     20  N   UNL     1       6.487   5.808  16.806  0.00  0.00    +0.000 N 
ATOM     21  C   UNL     1       5.219   5.390  17.197  0.00  0.00    +0.000 A 
ATOM     22  N   UNL     1       4.267   6.292  17.447  0.00  0.00    +0.000 NA
ATOM     23  C   UNL     1       3.060   5.864  17.850  0.00  0.00    +0.000 A 
ATOM     24  N   UNL     1       2.131   6.842  18.261  0.00  0.00    +0.000 N 
ATOM     25  C   UNL     1       2.780   4.491  17.993  0.00  0.00    +0.000 A 
ATOM     26  C   UNL     1       1.540   3.918  18.394  0.00  0.00    +0.000 A 
ATOM     27  C   UNL     1       1.393   2.535  18.519  0.00  0.00    +0.000 A 
ATOM     28  C   UNL     1       2.475   1.706  18.264  0.00  0.00    +0.000 A 
ATOM     29  C   UNL     1       3.690   2.264  17.866  0.00  0.00    +0.000 A 
ATOM     30  C   UNL     1       3.857   3.637  17.718  0.00  0.00    +0.000 A 
ATOM     31  N   UNL     1       5.057   4.074  17.331  0.00  0.00    +0.000 NA
ATOM     32  H   UNL     1       7.111   5.035  17.010  0.00  0.00    +0.000 HD
ATOM     33  H   UNL     1       1.179   6.621  17.996  0.00  0.00    +0.000 HD
ENDBRANCH  18  24
ENDBRANCH   1  18
TORSDOF 4
ENDMDL
MODEL 2
REMARK VINA RESULT:      -9.2      4.489     10.700
REMARK  Name = 
REMARK  5 active torsions:
REMARK  status: ('A' for Active; 'I' for Inactive)
REMARK    1  A    between atoms: C_1  and  N_2
REMARK    2  A    between atoms: N_6  and  C_7
REMARK    3  A    between atoms: C_7  and  C_8
REMARK    4  A    between atoms: C_11  and  N_12
REMARK    5  A    between atoms: C_13  and  C_15
REMARK                            x       y       z     vdW  Elec       q    Type
REMARK                         _______ _______ _______ _____ _____    ______ ____
ROOT
ATOM      1  C   UNL     1      -0.277  11.783  18.908  0.00  0.00    +0.000 A 
ATOM      2  C   UNL     1       1.116  11.798  18.995  0.00  0.00    +0.000 A 
ATOM      3  C   UNL     1       1.869  10.711  18.559  0.00  0.00    +0.000 A 
ATOM      4  C   UNL     1       1.256   9.576  18.036  0.00  0.00    +0.000 A 
ATOM      5  C   UNL     1      -0.142   9.557  17.916  0.00  0.00    +0.000 A 
ATOM      6  C   UNL     1      -0.903  10.648  18.366  0.00  0.00    +0.000 A 
ENDROOT
BRANCH   4   7
ATOM      7  N   UNL     1       1.987   8.447  17.600  0.00  0.00    +0.000 N 
ATOM      8  C   UNL     1       2.500   7.477  18.445  0.00  0.00    +0.000 C 
ATOM      9  O   UNL     1       2.298   7.385  19.647  0.00  0.00    +0.000 OA
ATOM     10  H   UNL     1       2.109   8.351  16.602  0.00  0.00    +0.000 HD
BRANCH   8  11
ATOM     11  C   UNL     1       3.396   6.450  17.833  0.00  0.00    +0.000 A 
ATOM     12  C   UNL     1       4.467   6.926  17.055  0.00  0.00    +0.000 A 
ATOM     13  C   UNL     1       5.322   6.034  16.409  0.00  0.00    +0.000 A 
ATOM     14  C   UNL     1       5.114   4.670  16.552  0.00  0.00    +0.000 A 
ATOM     15  F   UNL     1       5.919   3.809  15.921  0.00  0.00    +0.000 F 
ATOM     16  C   UNL     1       4.080   4.182  17.351  0.00  0.00    +0.000 A 
ATOM     17  C   UNL     1       3.218   5.071  17.998  0.00  0.00    +0.000 A 
ENDBRANCH   8  11
ENDBRANCH   4   7
BRANCH   1  18
ATOM     18  C   UNL     1      -1.068  12.971  19.418  0.00  0.00    +0.000 C 
BRANCH  18  24
ATOM     19  C   UNL     1      -2.185  13.829  23.745  0.00  0.00    +0.000 C 
ATOM     20  N   UNL     1      -3.308  12.921  23.661  0.00  0.00    +0.000 N 
ATOM     21  C   UNL     1      -3.761  12.718  22.362  0.00  0.00    +0.000 A 
ATOM     22  N   UNL     1      -2.903  12.775  21.340  0.00  0.00    +0.000 NA
ATOM     23  C   UNL     1      -3.370  12.604  20.093  0.00  0.00    +0.000 A 
ATOM     24  N   UNL     1      -2.472  12.830  19.030  0.00  0.00    +0.000 N 
ATOM     25  C   UNL     1      -4.733  12.348  19.851  0.00  0.00    +0.000 A 
ATOM     26  C   UNL     1      -5.341  12.132  18.581  0.00  0.00    +0.000 A 
ATOM     27  C   UNL     1      -6.715  11.908  18.469  0.00  0.00    +0.000 A 
ATOM     28  C   UNL     1      -7.504  11.910  19.610  0.00  0.00    +0.000 A 
ATOM     29  C   UNL     1      -6.911  12.116  20.855  0.00  0.00    +0.000 A 
ATOM     30  C   UNL     1      -5.543  12.325  20.996  0.00  0.00    +0.000 A 
ATOM     31  N   UNL     1      -5.070  12.510  22.229  0.00  0.00    +0.000 NA
ATOM     32  H   UNL     1      -4.124  13.180  24.205  0.00  0.00    +0.000 HD
ATOM     33  H   UNL     1      -2.605  12.191  18.256  0.00  0.00    +0.000 HD
ENDBRANCH  18  24
ENDBRANCH   1  18
TORSDOF 4
ENDMDL
MODEL 3
REMARK VINA RESULT:      -9.1      0.848      1.245
REMARK  Name = 
REMARK  5 active torsions:
REMARK  status: ('A' for Active; 'I' for Inactive)
REMARK    1  A    between atoms: C_1  and  N_2
REMARK    2  A    between atoms: N_6  and  C_7
REMARK    3  A    between atoms: C_7  and  C_8
REMARK    4  A    between atoms: C_11  and  N_12
REMARK    5  A    between atoms: C_13  and  C_15
REMARK                            x       y       z     vdW  Elec       q    Type
REMARK                         _______ _______ _______ _____ _____    ______ ____
ROOT
ATOM      1  C   UNL     1       1.660   9.133  18.816  0.00  0.00    +0.000 A 
ATOM      2  C   UNL     1       1.237  10.356  18.295  0.00  0.00    +0.000 A 
ATOM      3  C   UNL     1       0.459  11.224  19.056  0.00  0.00    +0.000 A 
ATOM      4  C   UNL     1       0.072  10.893  20.352  0.00  0.00    +0.000 A 
ATOM      5  C   UNL     1       0.513   9.678  20.900  0.00  0.00    +0.000 A 
ATOM      6  C   UNL     1       1.288   8.797  20.129  0.00  0.00    +0.000 A 
ENDROOT
BRANCH   4   7
ATOM      7  N   UNL     1      -0.732  11.740  21.148  0.00  0.00    +0.000 N 
ATOM      8  C   UNL     1      -0.253  12.830  21.857  0.00  0.00    +0.000 C 
ATOM      9  O   UNL     1       0.879  13.285  21.803  0.00  0.00    +0.000 OA
ATOM     10  H   UNL     1      -1.721  11.532  21.167  0.00  0.00    +0.000 HD
BRANCH   8  11
ATOM     11  C   UNL     1      -1.208  13.507  22.786  0.00  0.00    +0.000 A 
ATOM     12  C   UNL     1      -0.829  14.769  23.275  0.00  0.00    +0.000 A 
ATOM     13  C   UNL     1      -1.640  15.448  24.184  0.00  0.00    +0.000 A 
ATOM     14  C   UNL     1      -2.833  14.870  24.592  0.00  0.00    +0.000 A 
ATOM     15  F   UNL     1      -3.607  15.505  25.477  0.00  0.00    +0.000 F 
ATOM     16  C   UNL     1      -3.241  13.634  24.087  0.00  0.00    +0.000 A 
ATOM     17  C   UNL     1      -2.431  12.949  23.178  0.00  0.00    +0.000 A 
ENDBRANCH   8  11
ENDBRANCH   4   7
BRANCH   1  18
ATOM     18  C   UNL     1       2.483   8.199  17.950  0.00  0.00    +0.000 C 
BRANCH  18  24
ATOM     19  C   UNL     1       6.866   7.135  17.343  0.00  0.00    +0.000 C 
ATOM     20  N   UNL     1       6.502   5.851  16.784  0.00  0.00    +0.000 N 
ATOM     21  C   UNL     1       5.243   5.411  17.178  0.00  0.00    +0.000 A 
ATOM     22  N   UNL     1       4.277   6.298  17.433  0.00  0.00    +0.000 NA
ATOM     23  C   UNL     1       3.078   5.849  17.839  0.00  0.00    +0.000 A 
ATOM     24  N   UNL     1       2.135   6.811  18.256  0.00  0.00    +0.000 N 
ATOM     25  C   UNL     1       2.821   4.471  17.979  0.00  0.00    +0.000 A 
ATOM     26  C   UNL     1       1.592   3.876  18.382  0.00  0.00    +0.000 A 
ATOM     27  C   UNL     1       1.468   2.491  18.503  0.00  0.00    +0.000 A 
ATOM     28  C   UNL     1       2.562   1.681  18.241  0.00  0.00    +0.000 A 
ATOM     29  C   UNL     1       3.767   2.260  17.842  0.00  0.00    +0.000 A 
ATOM     30  C   UNL     1       3.911   3.635  17.697  0.00  0.00    +0.000 A 
ATOM     31  N   UNL     1       5.102   4.093  17.307  0.00  0.00    +0.000 NA
ATOM     32  H   UNL     1       7.140   5.088  16.983  0.00  0.00    +0.000 HD
ATOM     33  H   UNL     1       1.186   6.575  17.993  0.00  0.00    +0.000 HD
ENDBRANCH  18  24
ENDBRANCH   1  18
TORSDOF 4
ENDMDL
MODEL 4
REMARK VINA RESULT:      -9.1      0.378      1.294
REMARK  Name = 
REMARK  5 active torsions:
REMARK  status: ('A' for Active; 'I' for Inactive)
REMARK    1  A    between atoms: C_1  and  N_2
REMARK    2  A    between atoms: N_6  and  C_7
REMARK    3  A    between atoms: C_7  and  C_8
REMARK    4  A    between atoms: C_11  and  N_12
REMARK    5  A    between atoms: C_13  and  C_15
REMARK                            x       y       z     vdW  Elec       q    Type
REMARK                         _______ _______ _______ _____ _____    ______ ____
ROOT
ATOM      1  C   UNL     1       1.759   9.052  18.718  0.00  0.00    +0.000 A 
ATOM      2  C   UNL     1       1.429  10.303  18.196  0.00  0.00    +0.000 A 
ATOM      3  C   UNL     1       0.722  11.230  18.956  0.00  0.00    +0.000 A 
ATOM      4  C   UNL     1       0.314  10.932  20.254  0.00  0.00    +0.000 A 
ATOM      5  C   UNL     1       0.662   9.688  20.804  0.00  0.00    +0.000 A 
ATOM      6  C   UNL     1       1.366   8.749  20.032  0.00  0.00    +0.000 A 
ENDROOT
BRANCH   4   7
ATOM      7  N   UNL     1      -0.421  11.839  21.050  0.00  0.00    +0.000 N 
ATOM      8  C   UNL     1      -0.678  11.663  22.400  0.00  0.00    +0.000 C 
ATOM      9  O   UNL     1      -0.216  10.785  23.114  0.00  0.00    +0.000 OA
ATOM     10  H   UNL     1      -0.751  12.676  20.588  0.00  0.00    +0.000 HD
BRANCH   8  11
ATOM     11  C   UNL     1      -1.619  12.628  23.043  0.00  0.00    +0.000 A 
ATOM     12  C   UNL     1      -2.901  12.147  23.363  0.00  0.00    +0.000 A 
ATOM     13  C   UNL     1      -3.856  12.995  23.922  0.00  0.00    +0.000 A 
ATOM     14  C   UNL     1      -3.525  14.319  24.171  0.00  0.00    +0.000 A 
ATOM     15  F   UNL     1      -4.440  15.143  24.689  0.00  0.00    +0.000 F 
ATOM     16  C   UNL     1      -2.245  14.802  23.894  0.00  0.00    +0.000 A 
ATOM     17  C   UNL     1      -1.286  13.957  23.332  0.00  0.00    +0.000 A 
ENDBRANCH   8  11
ENDBRANCH   4   7
BRANCH   1  18
ATOM     18  C   UNL     1       2.506   8.057  17.853  0.00  0.00    +0.000 C 
BRANCH  18  24
ATOM     19  C   UNL     1       6.848   6.817  17.291  0.00  0.00    +0.000 C 
ATOM     20  N   UNL     1       6.440   5.524  16.786  0.00  0.00    +0.000 N 
ATOM     21  C   UNL     1       5.167   5.145  17.198  0.00  0.00    +0.000 A 
ATOM     22  N   UNL     1       4.233   6.074  17.416  0.00  0.00    +0.000 NA
ATOM     23  C   UNL     1       3.020   5.685  17.841  0.00  0.00    +0.000 A 
ATOM     24  N   UNL     1       2.111   6.695  18.216  0.00  0.00    +0.000 N 
ATOM     25  C   UNL     1       2.715   4.324  18.037  0.00  0.00    +0.000 A 
ATOM     26  C   UNL     1       1.466   3.789  18.465  0.00  0.00    +0.000 A 
ATOM     27  C   UNL     1       1.294   2.415  18.644  0.00  0.00    +0.000 A 
ATOM     28  C   UNL     1       2.360   1.557  18.417  0.00  0.00    +0.000 A 
ATOM     29  C   UNL     1       3.583   2.077  17.993  0.00  0.00    +0.000 A 
ATOM     30  C   UNL     1       3.775   3.440  17.791  0.00  0.00    +0.000 A 
ATOM     31  N   UNL     1       4.981   3.839  17.383  0.00  0.00    +0.000 NA
ATOM     32  H   UNL     1       7.051   4.748  17.017  0.00  0.00    +0.000 HD
ATOM     33  H   UNL     1       1.154   6.481  17.963  0.00  0.00    +0.000 HD
ENDBRANCH  18  24
ENDBRANCH   1  18
TORSDOF 4
ENDMDL
MODEL 5
REMARK VINA RESULT:      -9.0      4.087     10.604
REMARK  Name = 
REMARK  5 active torsions:
REMARK  status: ('A' for Active; 'I' for Inactive)
REMARK    1  A    between atoms: C_1  and  N_2
REMARK    2  A    between atoms: N_6  and  C_7
REMARK    3  A    between atoms: C_7  and  C_8
REMARK    4  A    between atoms: C_11  and  N_12
REMARK    5  A    between atoms: C_13  and  C_15
REMARK                            x       y       z     vdW  Elec       q    Type
REMARK                         _______ _______ _______ _____ _____    ______ ____
ROOT
ATOM      1  C   UNL     1       0.630  10.788  20.638  0.00  0.00    +0.000 A 
ATOM      2  C   UNL     1       0.926  10.342  19.350  0.00  0.00    +0.000 A 
ATOM      3  C   UNL     1       1.386   9.046  19.132  0.00  0.00    +0.000 A 
ATOM      4  C   UNL     1       1.574   8.163  20.191  0.00  0.00    +0.000 A 
ATOM      5  C   UNL     1       1.253   8.587  21.490  0.00  0.00    +0.000 A 
ATOM      6  C   UNL     1       0.800   9.898  21.712  0.00  0.00    +0.000 A 
ENDROOT
BRANCH   4   7
ATOM      7  N   UNL     1       2.056   6.846  20.011  0.00  0.00    +0.000 N 
ATOM      8  C   UNL     1       2.888   6.455  18.974  0.00  0.00    +0.000 C 
ATOM      9  O   UNL     1       3.415   7.192  18.155  0.00  0.00    +0.000 OA
ATOM     10  H   UNL     1       1.783   6.169  20.709  0.00  0.00    +0.000 HD
BRANCH   8  11
ATOM     11  C   UNL     1       3.155   4.992  18.835  0.00  0.00    +0.000 A 
ATOM     12  C   UNL     1       2.242   4.250  18.065  0.00  0.00    +0.000 A 
ATOM     13  C   UNL     1       2.392   2.872  17.924  0.00  0.00    +0.000 A 
ATOM     14  C   UNL     1       3.460   2.238  18.542  0.00  0.00    +0.000 A 
ATOM     15  F   UNL     1       3.600   0.915  18.427  0.00  0.00    +0.000 F 
ATOM     16  C   UNL     1       4.396   2.965  19.278  0.00  0.00    +0.000 A 
ATOM     17  C   UNL     1       4.249   4.347  19.424  0.00  0.00    +0.000 A 
ENDBRANCH   8  11
ENDBRANCH   4   7
BRANCH   1  18
ATOM     18  C   UNL     1       0.157  12.213  20.843  0.00  0.00    +0.000 C 
BRANCH  18  24
ATOM     19  C   UNL     1      -2.973  11.479  17.622  0.00  0.00    +0.000 C 
ATOM     20  N   UNL     1      -3.926  12.309  18.324  0.00  0.00    +0.000 N 
ATOM     21  C   UNL     1      -3.664  12.426  19.685  0.00  0.00    +0.000 A 
ATOM     22  N   UNL     1      -2.404  12.378  20.127  0.00  0.00    +0.000 NA
ATOM     23  C   UNL     1      -2.179  12.464  21.448  0.00  0.00    +0.000 A 
ATOM     24  N   UNL     1      -0.860  12.248  21.895  0.00  0.00    +0.000 N 
ATOM     25  C   UNL     1      -3.239  12.623  22.363  0.00  0.00    +0.000 A 
ATOM     26  C   UNL     1      -3.125  12.743  23.777  0.00  0.00    +0.000 A 
ATOM     27  C   UNL     1      -4.258  12.876  24.582  0.00  0.00    +0.000 A 
ATOM     28  C   UNL     1      -5.516  12.875  23.998  0.00  0.00    +0.000 A 
ATOM     29  C   UNL     1      -5.631  12.761  22.613  0.00  0.00    +0.000 A 
ATOM     30  C   UNL     1      -4.517  12.646  21.787  0.00  0.00    +0.000 A 
ATOM     31  N   UNL     1      -4.730  12.545  20.474  0.00  0.00    +0.000 NA
ATOM     32  H   UNL     1      -4.897  12.024  18.250  0.00  0.00    +0.000 HD
ATOM     33  H   UNL     1      -0.602  12.843  22.673  0.00  0.00    +0.000 HD
ENDBRANCH  18  24
ENDBRANCH   1  18
TORSDOF 4
ENDMDL
MODEL 6
REMARK VINA RESULT:      -8.9      4.180     10.441
REMARK  Name = 
REMARK  5 active torsions:
REMARK  status: ('A' for Active; 'I' for Inactive)
REMARK    1  A    between atoms: C_1  and  N_2
REMARK    2  A    between atoms: N_6  and  C_7
REMARK    3  A    between atoms: C_7  and  C_8
REMARK    4  A    between atoms: C_11  and  N_12
REMARK    5  A    between atoms: C_13  and  C_15
REMARK                            x       y       z     vdW  Elec       q    Type
REMARK                         _______ _______ _______ _____ _____    ______ ____
ROOT
ATOM      1  C   UNL     1      -0.431  11.704  22.124  0.00  0.00    +0.000 A 
ATOM      2  C   UNL     1       0.406  11.551  21.019  0.00  0.00    +0.000 A 
ATOM      3  C   UNL     1       0.988  10.319  20.730  0.00  0.00    +0.000 A 
ATOM      4  C   UNL     1       0.761   9.210  21.540  0.00  0.00    +0.000 A 
ATOM      5  C   UNL     1      -0.102   9.341  22.639  0.00  0.00    +0.000 A 
ATOM      6  C   UNL     1      -0.680  10.585  22.938  0.00  0.00    +0.000 A 
ENDROOT
BRANCH   4   7
ATOM      7  N   UNL     1       1.348   7.949  21.289  0.00  0.00    +0.000 N 
ATOM      8  C   UNL     1       1.875   7.563  20.067  0.00  0.00    +0.000 C 
ATOM      9  O   UNL     1       2.022   8.277  19.087  0.00  0.00    +0.000 OA
ATOM     10  H   UNL     1       1.395   7.313  22.072  0.00  0.00    +0.000 HD
BRANCH   8  11
ATOM     11  C   UNL     1       2.293   6.136  19.929  0.00  0.00    +0.000 A 
ATOM     12  C   UNL     1       3.071   5.808  18.804  0.00  0.00    +0.000 A 
ATOM     13  C   UNL     1       3.462   4.490  18.575  0.00  0.00    +0.000 A 
ATOM     14  C   UNL     1       3.087   3.504  19.476  0.00  0.00    +0.000 A 
ATOM     15  F   UNL     1       3.443   2.235  19.254  0.00  0.00    +0.000 F 
ATOM     16  C   UNL     1       2.348   3.819  20.617  0.00  0.00    +0.000 A 
ATOM     17  C   UNL     1       1.950   5.138  20.849  0.00  0.00    +0.000 A 
ENDBRANCH   8  11
ENDBRANCH   4   7
BRANCH   1  18
ATOM     18  C   UNL     1      -1.026  13.065  22.426  0.00  0.00    +0.000 C 
BRANCH  18  24
ATOM     19  C   UNL     1      -2.430  11.678  18.325  0.00  0.00    +0.000 C 
ATOM     20  N   UNL     1      -3.718  12.304  18.527  0.00  0.00    +0.000 N 
ATOM     21  C   UNL     1      -4.043  12.484  19.868  0.00  0.00    +0.000 A 
ATOM     22  N   UNL     1      -3.077  12.697  20.764  0.00  0.00    +0.000 NA
ATOM     23  C   UNL     1      -3.414  12.840  22.057  0.00  0.00    +0.000 A 
ATOM     24  N   UNL     1      -2.364  12.902  22.996  0.00  0.00    +0.000 N 
ATOM     25  C   UNL     1      -4.759  12.788  22.472  0.00  0.00    +0.000 A 
ATOM     26  C   UNL     1      -5.239  12.943  23.804  0.00  0.00    +0.000 A 
ATOM     27  C   UNL     1      -6.602  12.849  24.093  0.00  0.00    +0.000 A 
ATOM     28  C   UNL     1      -7.502  12.586  23.071  0.00  0.00    +0.000 A 
ATOM     29  C   UNL     1      -7.035  12.439  21.765  0.00  0.00    +0.000 A 
ATOM     30  C   UNL     1      -5.685  12.545  21.448  0.00  0.00    +0.000 A 
ATOM     31  N   UNL     1      -5.337  12.391  20.169  0.00  0.00    +0.000 NA
ATOM     32  H   UNL     1      -4.510  11.826  18.109  0.00  0.00    +0.000 HD
ATOM     33  H   UNL     1      -2.550  13.544  23.756  0.00  0.00    +0.000 HD
ENDBRANCH  18  24
ENDBRANCH   1  18
TORSDOF 4
ENDMDL
MODEL 7
REMARK VINA RESULT:      -8.8      4.506     10.793
REMARK  Name = 
REMARK  5 active torsions:
REMARK  status: ('A' for Active; 'I' for Inactive)
REMARK    1  A    between atoms: C_1  and  N_2
REMARK    2  A    between atoms: N_6  and  C_7
REMARK    3  A    between atoms: C_7  and  C_8
REMARK    4  A    between atoms: C_11  and  N_12
REMARK    5  A    between atoms: C_13  and  C_15
REMARK                            x       y       z     vdW  Elec       q    Type
REMARK                         _______ _______ _______ _____ _____    ______ ____
ROOT
ATOM      1  C   UNL     1      -1.060  12.062  19.896  0.00  0.00    +0.000 A 
ATOM      2  C   UNL     1      -1.175  11.276  18.750  0.00  0.00    +0.000 A 
ATOM      3  C   UNL     1      -0.351  10.170  18.558  0.00  0.00    +0.000 A 
ATOM      4  C   UNL     1       0.617   9.824  19.497  0.00  0.00    +0.000 A 
ATOM      5  C   UNL     1       0.726  10.589  20.669  0.00  0.00    +0.000 A 
ATOM      6  C   UNL     1      -0.096  11.711  20.857  0.00  0.00    +0.000 A 
ENDROOT
BRANCH   4   7
ATOM      7  N   UNL     1       1.483   8.720  19.328  0.00  0.00    +0.000 N 
ATOM      8  C   UNL     1       2.238   8.487  18.189  0.00  0.00    +0.000 C 
ATOM      9  O   UNL     1       2.362   9.244  17.239  0.00  0.00    +0.000 OA
ATOM     10  H   UNL     1       1.558   8.085  20.111  0.00  0.00    +0.000 HD
BRANCH   8  11
ATOM     11  C   UNL     1       2.960   7.182  18.110  0.00  0.00    +0.000 A 
ATOM     12  C   UNL     1       2.399   6.102  18.814  0.00  0.00    +0.000 A 
ATOM     13  C   UNL     1       3.035   4.862  18.831  0.00  0.00    +0.000 A 
ATOM     14  C   UNL     1       4.223   4.699  18.136  0.00  0.00    +0.000 A 
ATOM     15  F   UNL     1       4.848   3.518  18.163  0.00  0.00    +0.000 F 
ATOM     16  C   UNL     1       4.774   5.749  17.401  0.00  0.00    +0.000 A 
ATOM     17  C   UNL     1       4.143   6.996  17.383  0.00  0.00    +0.000 A 
ENDBRANCH   8  11
ENDBRANCH   4   7
BRANCH   1  18
ATOM     18  C   UNL     1      -1.953  13.275  20.060  0.00  0.00    +0.000 C 
BRANCH  18  24
ATOM     19  C   UNL     1      -4.878  11.488  17.066  0.00  0.00    +0.000 C 
ATOM     20  N   UNL     1      -6.000  12.030  17.801  0.00  0.00    +0.000 N 
ATOM     21  C   UNL     1      -5.716  12.285  19.138  0.00  0.00    +0.000 A 
ATOM     22  N   UNL     1      -4.479  12.635  19.502  0.00  0.00    +0.000 NA
ATOM     23  C   UNL     1      -4.224  12.849  20.803  0.00  0.00    +0.000 A 
ATOM     24  N   UNL     1      -2.880  13.057  21.172  0.00  0.00    +0.000 N 
ATOM     25  C   UNL     1      -5.235  12.729  21.777  0.00  0.00    +0.000 A 
ATOM     26  C   UNL     1      -5.091  12.946  23.177  0.00  0.00    +0.000 A 
ATOM     27  C   UNL     1      -6.169  12.774  24.047  0.00  0.00    +0.000 A 
ATOM     28  C   UNL     1      -7.397  12.371  23.543  0.00  0.00    +0.000 A 
ATOM     29  C   UNL     1      -7.542  12.162  22.172  0.00  0.00    +0.000 A 
ATOM     30  C   UNL     1      -6.489  12.343  21.282  0.00  0.00    +0.000 A 
ATOM     31  N   UNL     1      -6.727  12.120  19.989  0.00  0.00    +0.000 NA
ATOM     32  H   UNL     1      -6.843  11.466  17.796  0.00  0.00    +0.000 HD
ATOM     33  H   UNL     1      -2.773  13.739  21.914  0.00  0.00    +0.000 HD
ENDBRANCH  18  24
ENDBRANCH   1  18
TORSDOF 4
ENDMDL
MODEL 8
REMARK VINA RESULT:      -8.8      1.710      2.018
REMARK  Name = 
REMARK  5 active torsions:
REMARK  status: ('A' for Active; 'I' for Inactive)
REMARK    1  A    between atoms: C_1  and  N_2
REMARK    2  A    between atoms: N_6  and  C_7
REMARK    3  A    between atoms: C_7  and  C_8
REMARK    4  A    between atoms: C_11  and  N_12
REMARK    5  A    between atoms: C_13  and  C_15
REMARK                            x       y       z     vdW  Elec       q    Type
REMARK                         _______ _______ _______ _____ _____    ______ ____
ROOT
ATOM      1  C   UNL     1       1.091   9.291  19.878  0.00  0.00    +0.000 A 
ATOM      2  C   UNL     1       0.687   9.070  21.195  0.00  0.00    +0.000 A 
ATOM      3  C   UNL     1      -0.093  10.005  21.869  0.00  0.00    +0.000 A 
ATOM      4  C   UNL     1      -0.483  11.192  21.253  0.00  0.00    +0.000 A 
ATOM      5  C   UNL     1      -0.109  11.416  19.919  0.00  0.00    +0.000 A 
ATOM      6  C   UNL     1       0.688  10.478  19.243  0.00  0.00    +0.000 A 
ENDROOT
BRANCH   4   7
ATOM      7  N   UNL     1      -1.260  12.173  21.911  0.00  0.00    +0.000 N 
ATOM      8  C   UNL     1      -0.736  13.296  22.530  0.00  0.00    +0.000 C 
ATOM      9  O   UNL     1       0.429  13.664  22.494  0.00  0.00    +0.000 OA
ATOM     10  H   UNL     1      -2.261  12.037  21.896  0.00  0.00    +0.000 HD
BRANCH   8  11
ATOM     11  C   UNL     1      -1.681  14.133  23.328  0.00  0.00    +0.000 A 
ATOM     12  C   UNL     1      -3.055  13.916  23.117  0.00  0.00    +0.000 A 
ATOM     13  C   UNL     1      -4.003  14.687  23.787  0.00  0.00    +0.000 A 
ATOM     14  C   UNL     1      -3.580  15.665  24.674  0.00  0.00    +0.000 A 
ATOM     15  F   UNL     1      -4.483  16.421  25.305  0.00  0.00    +0.000 F 
ATOM     16  C   UNL     1      -2.222  15.868  24.923  0.00  0.00    +0.000 A 
ATOM     17  C   UNL     1      -1.266  15.100  24.253  0.00  0.00    +0.000 A 
ENDBRANCH   8  11
ENDBRANCH   4   7
BRANCH   1  18
ATOM     18  C   UNL     1       1.963   8.265  19.184  0.00  0.00    +0.000 C 
BRANCH  18  24
ATOM     19  C   UNL     1       5.187   6.768  16.341  0.00  0.00    +0.000 C 
ATOM     20  N   UNL     1       4.740   5.403  16.513  0.00  0.00    +0.000 N 
ATOM     21  C   UNL     1       4.048   5.192  17.701  0.00  0.00    +0.000 A 
ATOM     22  N   UNL     1       3.322   6.178  18.234  0.00  0.00    +0.000 NA
ATOM     23  C   UNL     1       2.686   5.958  19.396  0.00  0.00    +0.000 A 
ATOM     24  N   UNL     1       2.065   7.063  20.013  0.00  0.00    +0.000 N 
ATOM     25  C   UNL     1       2.757   4.709  20.044  0.00  0.00    +0.000 A 
ATOM     26  C   UNL     1       2.115   4.352  21.264  0.00  0.00    +0.000 A 
ATOM     27  C   UNL     1       2.280   3.081  21.819  0.00  0.00    +0.000 A 
ATOM     28  C   UNL     1       3.093   2.156  21.182  0.00  0.00    +0.000 A 
ATOM     29  C   UNL     1       3.719   2.502  19.984  0.00  0.00    +0.000 A 
ATOM     30  C   UNL     1       3.558   3.754  19.402  0.00  0.00    +0.000 A 
ATOM     31  N   UNL     1       4.196   3.989  18.254  0.00  0.00    +0.000 NA
ATOM     32  H   UNL     1       5.466   4.695  16.483  0.00  0.00    +0.000 HD
ATOM     33  H   UNL     1       1.193   6.824  20.468  0.00  0.00    +0.000 HD
ENDBRANCH  18  24
ENDBRANCH   1  18
TORSDOF 4
ENDMDL
MODEL 9
REMARK VINA RESULT:      -8.7      2.065      3.514
REMARK  Name = 
REMARK  5 active torsions:
REMARK  status: ('A' for Active; 'I' for Inactive)
REMARK    1  A    between atoms: C_1  and  N_2
REMARK    2  A    between atoms: N_6  and  C_7
REMARK    3  A    between atoms: C_7  and  C_8
REMARK    4  A    between atoms: C_11  and  N_12
REMARK    5  A    between atoms: C_13  and  C_15
REMARK                            x       y       z     vdW  Elec       q    Type
REMARK                         _______ _______ _______ _____ _____    ______ ____
ROOT
ATOM      1  C   UNL     1       0.836   8.643  21.305  0.00  0.00    +0.000 A 
ATOM      2  C   UNL     1       0.679   9.475  20.196  0.00  0.00    +0.000 A 
ATOM      3  C   UNL     1       0.021  10.697  20.308  0.00  0.00    +0.000 A 
ATOM      4  C   UNL     1      -0.508  11.119  21.525  0.00  0.00    +0.000 A 
ATOM      5  C   UNL     1      -0.333  10.305  22.656  0.00  0.00    +0.000 A 
ATOM      6  C   UNL     1       0.320   9.068  22.541  0.00  0.00    +0.000 A 
ENDROOT
BRANCH   4   7
ATOM      7  N   UNL     1      -1.197  12.343  21.674  0.00  0.00    +0.000 N 
ATOM      8  C   UNL     1      -0.615  13.516  22.126  0.00  0.00    +0.000 C 
ATOM      9  O   UNL     1       0.574  13.696  22.339  0.00  0.00    +0.000 OA
ATOM     10  H   UNL     1      -2.171  12.345  21.404  0.00  0.00    +0.000 HD
BRANCH   8  11
ATOM     11  C   UNL     1      -1.529  14.668  22.392  0.00  0.00    +0.000 A 
ATOM     12  C   UNL     1      -2.445  14.521  23.448  0.00  0.00    +0.000 A 
ATOM     13  C   UNL     1      -3.365  15.529  23.732  0.00  0.00    +0.000 A 
ATOM     14  C   UNL     1      -3.360  16.687  22.968  0.00  0.00    +0.000 A 
ATOM     15  F   UNL     1      -4.251  17.650  23.221  0.00  0.00    +0.000 F 
ATOM     16  C   UNL     1      -2.433  16.864  21.940  0.00  0.00    +0.000 A 
ATOM     17  C   UNL     1      -1.511  15.856  21.650  0.00  0.00    +0.000 A 
ENDBRANCH   8  11
ENDBRANCH   4   7
BRANCH   1  18
ATOM     18  C   UNL     1       1.533   7.307  21.142  0.00  0.00    +0.000 C 
BRANCH  18  24
ATOM     19  C   UNL     1       1.504   2.766  21.441  0.00  0.00    +0.000 C 
ATOM     20  N   UNL     1       2.793   2.690  20.790  0.00  0.00    +0.000 N 
ATOM     21  C   UNL     1       3.085   3.802  20.006  0.00  0.00    +0.000 A 
ATOM     22  N   UNL     1       2.607   5.001  20.347  0.00  0.00    +0.000 NA
ATOM     23  C   UNL     1       2.879   6.054  19.559  0.00  0.00    +0.000 A 
ATOM     24  N   UNL     1       2.228   7.269  19.854  0.00  0.00    +0.000 N 
ATOM     25  C   UNL     1       3.671   5.916  18.402  0.00  0.00    +0.000 A 
ATOM     26  C   UNL     1       4.042   6.956  17.502  0.00  0.00    +0.000 A 
ATOM     27  C   UNL     1       4.818   6.688  16.372  0.00  0.00    +0.000 A 
ATOM     28  C   UNL     1       5.221   5.387  16.113  0.00  0.00    +0.000 A 
ATOM     29  C   UNL     1       4.864   4.367  16.995  0.00  0.00    +0.000 A 
ATOM     30  C   UNL     1       4.107   4.610  18.136  0.00  0.00    +0.000 A 
ATOM     31  N   UNL     1       3.818   3.570  18.919  0.00  0.00    +0.000 NA
ATOM     32  H   UNL     1       2.938   1.882  20.194  0.00  0.00    +0.000 HD
ATOM     33  H   UNL     1       2.813   8.080  19.698  0.00  0.00    +0.000 HD
ENDBRANCH  18  24
ENDBRANCH   1  18
TORSDOF 4
ENDMDL
