MODEL 1
REMARK VINA RESULT:      -6.3      0.000      0.000
REMARK  Name = 
REMARK  18 active torsions:
REMARK  status: ('A' for Active; 'I' for Inactive)
REMARK    1  A    between atoms: C_1  and  O_2
REMARK    2  A    between atoms: O_2  and  C_3
REMARK    3  A    between atoms: C_4  and  C_5
REMARK    4  A    between atoms: C_6  and  C_7
REMARK    5  A    between atoms: C_7  and  C_8
REMARK    6  A    between atoms: C_8  and  C_9
REMARK    7  A    between atoms: C_9  and  C_10
REMARK    8  A    between atoms: C_10  and  C_11
REMARK    9  A    between atoms: C_11  and  C_12
REMARK   10  A    between atoms: C_12  and  C_13
REMARK   11  A    between atoms: C_13  and  C_14
REMARK   12  A    between atoms: C_14  and  C_15
REMARK   13  A    between atoms: C_15  and  C_16
REMARK   14  A    between atoms: C_16  and  S_17
REMARK   15  A    between atoms: S_17  and  C_18
REMARK   16  A    between atoms: C_18  and  C_19
REMARK   17  A    between atoms: C_24  and  O_25
REMARK   18  A    between atoms: O_25  and  C_26
REMARK                            x       y       z     vdW  Elec       q    Type
REMARK                         _______ _______ _______ _____ _____    ______ ____
ROOT
ATOM      1  C   UNL     1       1.956   6.789  19.937  0.00  0.00    +0.000 C 
ENDROOT
BRANCH   1   5
ATOM      2  C   UNL     1       0.884  10.480  19.949  0.00  0.00    +0.000 A 
ATOM      3  C   UNL     1       1.343   9.195  19.432  0.00  0.00    +0.000 A 
ATOM      4  C   UNL     1       1.609   9.018  17.956  0.00  0.00    +0.000 C 
ATOM      5  C   UNL     1       1.511   8.177  20.290  0.00  0.00    +0.000 A 
ATOM      6  O   UNL     1       1.298   8.332  21.665  0.00  0.00    +0.000 OA
ATOM      7  C   UNL     1       0.965   9.535  22.212  0.00  0.00    +0.000 A 
ATOM      8  O   UNL     1       0.900   9.628  23.439  0.00  0.00    +0.000 OA
ATOM      9  C   UNL     1       0.685  10.678  21.276  0.00  0.00    +0.000 A 
BRANCH   2  11
ATOM     10  C   UNL     1       1.585  12.453  18.710  0.00  0.00    +0.000 C 
ATOM     11  O   UNL     1       0.684  11.382  18.929  0.00  0.00    +0.000 OA
ENDBRANCH   2  11
BRANCH   9  12
ATOM     12  O   UNL     1       0.207  11.907  21.737  0.00  0.00    +0.000 OA
ATOM     13  C   UNL     1      -1.201  12.071  21.870  0.00  0.00    +0.000 C 
ENDBRANCH   9  12
ENDBRANCH   1   5
BRANCH   1  14
ATOM     14  C   UNL     1       1.740   5.840  21.114  0.00  0.00    +0.000 C 
BRANCH  14  15
ATOM     15  C   UNL     1       2.395   4.493  20.833  0.00  0.00    +0.000 C 
BRANCH  15  16
ATOM     16  C   UNL     1       1.412   3.364  21.106  0.00  0.00    +0.000 C 
BRANCH  16  17
ATOM     17  C   UNL     1       0.638   2.977  19.847  0.00  0.00    +0.000 C 
BRANCH  17  18
ATOM     18  C   UNL     1       1.565   2.601  18.689  0.00  0.00    +0.000 C 
BRANCH  18  19
ATOM     19  C   UNL     1       1.719   3.734  17.675  0.00  0.00    +0.000 C 
BRANCH  19  20
ATOM     20  C   UNL     1       3.021   3.630  16.887  0.00  0.00    +0.000 C 
BRANCH  20  21
ATOM     21  C   UNL     1       4.127   4.414  17.598  0.00  0.00    +0.000 C 
BRANCH  21  22
ATOM     22  C   UNL     1       5.237   4.808  16.630  0.00  0.00    +0.000 C 
BRANCH  22  23
ATOM     23  S   UNL     1       5.517   6.602  16.731  0.00  0.00    +0.000 S 
BRANCH  23  24
ATOM     24  C   UNL     1       7.178   6.598  17.309  0.00  0.00    +0.000 C 
ATOM     25  C   UNL     1       7.746   7.956  17.613  0.00  0.00    +0.000 C 
ATOM     26  O   UNL     1       7.819   5.564  17.454  0.00  0.00    +0.000 OA
ENDBRANCH  23  24
ENDBRANCH  22  23
ENDBRANCH  21  22
ENDBRANCH  20  21
ENDBRANCH  19  20
ENDBRANCH  18  19
ENDBRANCH  17  18
ENDBRANCH  16  17
ENDBRANCH  15  16
ENDBRANCH  14  15
ENDBRANCH   1  14
TORSDOF 14
ENDMDL
MODEL 2
REMARK VINA RESULT:      -6.0      1.653      2.806
REMARK  Name = 
REMARK  18 active torsions:
REMARK  status: ('A' for Active; 'I' for Inactive)
REMARK    1  A    between atoms: C_1  and  O_2
REMARK    2  A    between atoms: O_2  and  C_3
REMARK    3  A    between atoms: C_4  and  C_5
REMARK    4  A    between atoms: C_6  and  C_7
REMARK    5  A    between atoms: C_7  and  C_8
REMARK    6  A    between atoms: C_8  and  C_9
REMARK    7  A    between atoms: C_9  and  C_10
REMARK    8  A    between atoms: C_10  and  C_11
REMARK    9  A    between atoms: C_11  and  C_12
REMARK   10  A    between atoms: C_12  and  C_13
REMARK   11  A    between atoms: C_13  and  C_14
REMARK   12  A    between atoms: C_14  and  C_15
REMARK   13  A    between atoms: C_15  and  C_16
REMARK   14  A    between atoms: C_16  and  S_17
REMARK   15  A    between atoms: S_17  and  C_18
REMARK   16  A    between atoms: C_18  and  C_19
REMARK   17  A    between atoms: C_24  and  O_25
REMARK   18  A    between atoms: O_25  and  C_26
REMARK                            x       y       z     vdW  Elec       q    Type
REMARK                         _______ _______ _______ _____ _____    ______ ____
ROOT
ATOM      1  C   UNL     1       1.450   7.078  21.301  0.00  0.00    +0.000 C 
ENDROOT
BRANCH   1   5
ATOM      2  C   UNL     1       0.693  10.815  20.817  0.00  0.00    +0.000 A 
ATOM      3  C   UNL     1       0.801   9.521  21.483  0.00  0.00    +0.000 A 
ATOM      4  C   UNL     1       0.419   9.376  22.936  0.00  0.00    +0.000 C 
ATOM      5  C   UNL     1       1.257   8.471  20.781  0.00  0.00    +0.000 A 
ATOM      6  O   UNL     1       1.587   8.582  19.424  0.00  0.00    +0.000 OA
ATOM      7  C   UNL     1       1.409   9.741  18.731  0.00  0.00    +0.000 A 
ATOM      8  O   UNL     1       1.615   9.740  17.516  0.00  0.00    +0.000 OA
ATOM      9  C   UNL     1       0.982  10.960  19.500  0.00  0.00    +0.000 A 
BRANCH   2  11
ATOM     10  C   UNL     1      -1.066  12.183  21.797  0.00  0.00    +0.000 C 
ATOM     11  O   UNL     1       0.293  11.793  21.700  0.00  0.00    +0.000 OA
ENDBRANCH   2  11
BRANCH   9  12
ATOM     12  O   UNL     1       0.908  12.220  18.902  0.00  0.00    +0.000 OA
ATOM     13  C   UNL     1      -0.338  12.624  18.344  0.00  0.00    +0.000 C 
ENDBRANCH   9  12
ENDBRANCH   1   5
BRANCH   1  14
ATOM     14  C   UNL     1       1.864   6.136  20.173  0.00  0.00    +0.000 C 
BRANCH  14  15
ATOM     15  C   UNL     1       1.097   4.822  20.274  0.00  0.00    +0.000 C 
BRANCH  15  16
ATOM     16  C   UNL     1       1.878   3.823  21.116  0.00  0.00    +0.000 C 
BRANCH  16  17
ATOM     17  C   UNL     1       2.113   2.516  20.360  0.00  0.00    +0.000 C 
BRANCH  17  18
ATOM     18  C   UNL     1       1.358   2.471  19.029  0.00  0.00    +0.000 C 
BRANCH  18  19
ATOM     19  C   UNL     1       2.294   2.273  17.837  0.00  0.00    +0.000 C 
BRANCH  19  20
ATOM     20  C   UNL     1       3.715   2.741  18.135  0.00  0.00    +0.000 C 
BRANCH  20  21
ATOM     21  C   UNL     1       4.030   4.004  17.330  0.00  0.00    +0.000 C 
BRANCH  21  22
ATOM     22  C   UNL     1       5.245   4.733  17.894  0.00  0.00    +0.000 C 
BRANCH  22  23
ATOM     23  S   UNL     1       6.628   4.596  16.723  0.00  0.00    +0.000 S 
BRANCH  23  24
ATOM     24  C   UNL     1       5.858   5.266  15.291  0.00  0.00    +0.000 C 
ATOM     25  C   UNL     1       5.712   4.308  14.144  0.00  0.00    +0.000 C 
ATOM     26  O   UNL     1       5.469   6.427  15.240  0.00  0.00    +0.000 OA
ENDBRANCH  23  24
ENDBRANCH  22  23
ENDBRANCH  21  22
ENDBRANCH  20  21
ENDBRANCH  19  20
ENDBRANCH  18  19
ENDBRANCH  17  18
ENDBRANCH  16  17
ENDBRANCH  15  16
ENDBRANCH  14  15
ENDBRANCH   1  14
TORSDOF 14
ENDMDL
MODEL 3
REMARK VINA RESULT:      -6.0      3.286      7.631
REMARK  Name = 
REMARK  18 active torsions:
REMARK  status: ('A' for Active; 'I' for Inactive)
REMARK    1  A    between atoms: C_1  and  O_2
REMARK    2  A    between atoms: O_2  and  C_3
REMARK    3  A    between atoms: C_4  and  C_5
REMARK    4  A    between atoms: C_6  and  C_7
REMARK    5  A    between atoms: C_7  and  C_8
REMARK    6  A    between atoms: C_8  and  C_9
REMARK    7  A    between atoms: C_9  and  C_10
REMARK    8  A    between atoms: C_10  and  C_11
REMARK    9  A    between atoms: C_11  and  C_12
REMARK   10  A    between atoms: C_12  and  C_13
REMARK   11  A    between atoms: C_13  and  C_14
REMARK   12  A    between atoms: C_14  and  C_15
REMARK   13  A    between atoms: C_15  and  C_16
REMARK   14  A    between atoms: C_16  and  S_17
REMARK   15  A    between atoms: S_17  and  C_18
REMARK   16  A    between atoms: C_18  and  C_19
REMARK   17  A    between atoms: C_24  and  O_25
REMARK   18  A    between atoms: O_25  and  C_26
REMARK                            x       y       z     vdW  Elec       q    Type
REMARK                         _______ _______ _______ _____ _____    ______ ____
ROOT
ATOM      1  C   UNL     1       3.493   3.114  19.849  0.00  0.00    +0.000 C 
ENDROOT
BRANCH   1   5
ATOM      2  C   UNL     1       5.557   4.864  17.120  0.00  0.00    +0.000 A 
ATOM      3  C   UNL     1       4.500   4.061  17.725  0.00  0.00    +0.000 A 
ATOM      4  C   UNL     1       3.419   3.450  16.866  0.00  0.00    +0.000 C 
ATOM      5  C   UNL     1       4.504   3.888  19.057  0.00  0.00    +0.000 A 
ATOM      6  O   UNL     1       5.516   4.423  19.864  0.00  0.00    +0.000 OA
ATOM      7  C   UNL     1       6.577   5.095  19.339  0.00  0.00    +0.000 A 
ATOM      8  O   UNL     1       7.487   5.443  20.093  0.00  0.00    +0.000 OA
ATOM      9  C   UNL     1       6.566   5.383  17.863  0.00  0.00    +0.000 A 
BRANCH   2  11
ATOM     10  C   UNL     1       6.238   4.424  14.825  0.00  0.00    +0.000 C 
ATOM     11  O   UNL     1       5.354   5.010  15.766  0.00  0.00    +0.000 OA
ENDBRANCH   2  11
BRANCH   9  12
ATOM     12  O   UNL     1       7.541   6.181  17.261  0.00  0.00    +0.000 OA
ATOM     13  C   UNL     1       7.521   7.579  17.527  0.00  0.00    +0.000 C 
ENDBRANCH   9  12
ENDBRANCH   1   5
BRANCH   1  14
ATOM     14  C   UNL     1       2.196   3.907  19.985  0.00  0.00    +0.000 C 
BRANCH  14  15
ATOM     15  C   UNL     1       2.391   5.080  20.939  0.00  0.00    +0.000 C 
BRANCH  15  16
ATOM     16  C   UNL     1       1.605   6.289  20.452  0.00  0.00    +0.000 C 
BRANCH  16  17
ATOM     17  C   UNL     1       1.906   6.600  18.987  0.00  0.00    +0.000 C 
BRANCH  17  18
ATOM     18  C   UNL     1       2.493   8.000  18.800  0.00  0.00    +0.000 C 
BRANCH  18  19
ATOM     19  C   UNL     1       1.792   8.781  17.687  0.00  0.00    +0.000 C 
BRANCH  19  20
ATOM     20  C   UNL     1       1.307  10.147  18.160  0.00  0.00    +0.000 C 
BRANCH  20  21
ATOM     21  C   UNL     1       0.579  10.009  19.500  0.00  0.00    +0.000 C 
BRANCH  21  22
ATOM     22  C   UNL     1      -0.930  10.132  19.325  0.00  0.00    +0.000 C 
BRANCH  22  23
ATOM     23  S   UNL     1      -1.301  11.545  18.243  0.00  0.00    +0.000 S 
BRANCH  23  24
ATOM     24  C   UNL     1      -2.366  10.750  17.091  0.00  0.00    +0.000 C 
ATOM     25  C   UNL     1      -3.174   9.615  17.653  0.00  0.00    +0.000 C 
ATOM     26  O   UNL     1      -2.442  11.102  15.919  0.00  0.00    +0.000 OA
ENDBRANCH  23  24
ENDBRANCH  22  23
ENDBRANCH  21  22
ENDBRANCH  20  21
ENDBRANCH  19  20
ENDBRANCH  18  19
ENDBRANCH  17  18
ENDBRANCH  16  17
ENDBRANCH  15  16
ENDBRANCH  14  15
ENDBRANCH   1  14
TORSDOF 14
ENDMDL
MODEL 4
REMARK VINA RESULT:      -6.0      1.705      3.041
REMARK  Name = 
REMARK  18 active torsions:
REMARK  status: ('A' for Active; 'I' for Inactive)
REMARK    1  A    between atoms: C_1  and  O_2
REMARK    2  A    between atoms: O_2  and  C_3
REMARK    3  A    between atoms: C_4  and  C_5
REMARK    4  A    between atoms: C_6  and  C_7
REMARK    5  A    between atoms: C_7  and  C_8
REMARK    6  A    between atoms: C_8  and  C_9
REMARK    7  A    between atoms: C_9  and  C_10
REMARK    8  A    between atoms: C_10  and  C_11
REMARK    9  A    between atoms: C_11  and  C_12
REMARK   10  A    between atoms: C_12  and  C_13
REMARK   11  A    between atoms: C_13  and  C_14
REMARK   12  A    between atoms: C_14  and  C_15
REMARK   13  A    between atoms: C_15  and  C_16
REMARK   14  A    between atoms: C_16  and  S_17
REMARK   15  A    between atoms: S_17  and  C_18
REMARK   16  A    between atoms: C_18  and  C_19
REMARK   17  A    between atoms: C_24  and  O_25
REMARK   18  A    between atoms: O_25  and  C_26
REMARK                            x       y       z     vdW  Elec       q    Type
REMARK                         _______ _______ _______ _____ _____    ______ ____
ROOT
ATOM      1  C   UNL     1       1.043   8.089  21.097  0.00  0.00    +0.000 C 
ENDROOT
BRANCH   1   5
ATOM      2  C   UNL     1      -0.070  11.675  21.916  0.00  0.00    +0.000 A 
ATOM      3  C   UNL     1       0.130  10.239  22.078  0.00  0.00    +0.000 A 
ATOM      4  C   UNL     1      -0.332   9.542  23.336  0.00  0.00    +0.000 C 
ATOM      5  C   UNL     1       0.739   9.557  21.096  0.00  0.00    +0.000 A 
ATOM      6  O   UNL     1       1.146  10.183  19.911  0.00  0.00    +0.000 OA
ATOM      7  C   UNL     1       0.894  11.500  19.667  0.00  0.00    +0.000 A 
ATOM      8  O   UNL     1       1.180  11.961  18.561  0.00  0.00    +0.000 OA
ATOM      9  C   UNL     1       0.291  12.316  20.776  0.00  0.00    +0.000 A 
BRANCH   2  11
ATOM     10  C   UNL     1      -2.005  12.564  23.096  0.00  0.00    +0.000 C 
ATOM     11  O   UNL     1      -0.628  12.228  23.047  0.00  0.00    +0.000 OA
ENDBRANCH   2  11
BRANCH   9  12
ATOM     12  O   UNL     1       0.124  13.698  20.667  0.00  0.00    +0.000 OA
ATOM     13  C   UNL     1      -1.016  14.182  19.965  0.00  0.00    +0.000 C 
ENDBRANCH   9  12
ENDBRANCH   1   5
BRANCH   1  14
ATOM     14  C   UNL     1       1.984   7.735  19.948  0.00  0.00    +0.000 C 
BRANCH  14  15
ATOM     15  C   UNL     1       2.560   6.337  20.148  0.00  0.00    +0.000 C 
BRANCH  15  16
ATOM     16  C   UNL     1       1.473   5.385  20.626  0.00  0.00    +0.000 C 
BRANCH  16  17
ATOM     17  C   UNL     1       2.064   4.078  21.151  0.00  0.00    +0.000 C 
BRANCH  17  18
ATOM     18  C   UNL     1       1.295   2.852  20.654  0.00  0.00    +0.000 C 
BRANCH  18  19
ATOM     19  C   UNL     1       1.048   2.893  19.145  0.00  0.00    +0.000 C 
BRANCH  19  20
ATOM     20  C   UNL     1       2.203   2.283  18.356  0.00  0.00    +0.000 C 
BRANCH  20  21
ATOM     21  C   UNL     1       2.598   3.212  17.205  0.00  0.00    +0.000 C 
BRANCH  21  22
ATOM     22  C   UNL     1       3.757   4.120  17.600  0.00  0.00    +0.000 C 
BRANCH  22  23
ATOM     23  S   UNL     1       4.987   4.146  16.262  0.00  0.00    +0.000 S 
BRANCH  23  24
ATOM     24  C   UNL     1       5.217   5.884  16.118  0.00  0.00    +0.000 C 
ATOM     25  C   UNL     1       4.634   6.694  17.240  0.00  0.00    +0.000 C 
ATOM     26  O   UNL     1       5.810   6.389  15.173  0.00  0.00    +0.000 OA
ENDBRANCH  23  24
ENDBRANCH  22  23
ENDBRANCH  21  22
ENDBRANCH  20  21
ENDBRANCH  19  20
ENDBRANCH  18  19
ENDBRANCH  17  18
ENDBRANCH  16  17
ENDBRANCH  15  16
ENDBRANCH  14  15
ENDBRANCH   1  14
TORSDOF 14
ENDMDL
MODEL 5
REMARK VINA RESULT:      -5.9      1.998      3.819
REMARK  Name = 
REMARK  18 active torsions:
REMARK  status: ('A' for Active; 'I' for Inactive)
REMARK    1  A    between atoms: C_1  and  O_2
REMARK    2  A    between atoms: O_2  and  C_3
REMARK    3  A    between atoms: C_4  and  C_5
REMARK    4  A    between atoms: C_6  and  C_7
REMARK    5  A    between atoms: C_7  and  C_8
REMARK    6  A    between atoms: C_8  and  C_9
REMARK    7  A    between atoms: C_9  and  C_10
REMARK    8  A    between atoms: C_10  and  C_11
REMARK    9  A    between atoms: C_11  and  C_12
REMARK   10  A    between atoms: C_12  and  C_13
REMARK   11  A    between atoms: C_13  and  C_14
REMARK   12  A    between atoms: C_14  and  C_15
REMARK   13  A    between atoms: C_15  and  C_16
REMARK   14  A    between atoms: C_16  and  S_17
REMARK   15  A    between atoms: S_17  and  C_18
REMARK   16  A    between atoms: C_18  and  C_19
REMARK   17  A    between atoms: C_24  and  O_25
REMARK   18  A    between atoms: O_25  and  C_26
REMARK                            x       y       z     vdW  Elec       q    Type
REMARK                         _______ _______ _______ _____ _____    ______ ____
ROOT
ATOM      1  C   UNL     1       1.068   9.122  18.353  0.00  0.00    +0.000 C 
ENDROOT
BRANCH   1   5
ATOM      2  C   UNL     1       0.403  11.327  21.430  0.00  0.00    +0.000 A 
ATOM      3  C   UNL     1       0.435  10.137  20.587  0.00  0.00    +0.000 A 
ATOM      4  C   UNL     1      -0.078   8.817  21.112  0.00  0.00    +0.000 C 
ATOM      5  C   UNL     1       0.939  10.238  19.347  0.00  0.00    +0.000 A 
ATOM      6  O   UNL     1       1.391  11.460  18.835  0.00  0.00    +0.000 OA
ATOM      7  C   UNL     1       1.291  12.620  19.543  0.00  0.00    +0.000 A 
ATOM      8  O   UNL     1       1.606  13.676  18.993  0.00  0.00    +0.000 OA
ATOM      9  C   UNL     1       0.812  12.535  20.966  0.00  0.00    +0.000 A 
BRANCH   2  11
ATOM     10  C   UNL     1      -1.408  11.281  23.055  0.00  0.00    +0.000 C 
ATOM     11  O   UNL     1      -0.061  11.029  22.691  0.00  0.00    +0.000 OA
ENDBRANCH   2  11
BRANCH   9  12
ATOM     12  O   UNL     1       0.807  13.647  21.809  0.00  0.00    +0.000 OA
ATOM     13  C   UNL     1      -0.304  14.535  21.742  0.00  0.00    +0.000 C 
ENDBRANCH   9  12
ENDBRANCH   1   5
BRANCH   1  14
ATOM     14  C   UNL     1       2.444   9.148  17.692  0.00  0.00    +0.000 C 
BRANCH  14  15
ATOM     15  C   UNL     1       3.062   7.755  17.704  0.00  0.00    +0.000 C 
BRANCH  15  16
ATOM     16  C   UNL     1       2.150   6.782  18.438  0.00  0.00    +0.000 C 
BRANCH  16  17
ATOM     17  C   UNL     1       2.690   6.446  19.827  0.00  0.00    +0.000 C 
BRANCH  17  18
ATOM     18  C   UNL     1       1.690   5.640  20.659  0.00  0.00    +0.000 C 
BRANCH  18  19
ATOM     19  C   UNL     1       2.086   4.168  20.778  0.00  0.00    +0.000 C 
BRANCH  19  20
ATOM     20  C   UNL     1       0.963   3.232  20.342  0.00  0.00    +0.000 C 
BRANCH  20  21
ATOM     21  C   UNL     1       1.516   2.149  19.413  0.00  0.00    +0.000 C 
BRANCH  21  22
ATOM     22  C   UNL     1       2.933   2.481  18.958  0.00  0.00    +0.000 C 
BRANCH  22  23
ATOM     23  S   UNL     1       2.873   3.275  17.324  0.00  0.00    +0.000 S 
BRANCH  23  24
ATOM     24  C   UNL     1       4.530   3.858  17.228  0.00  0.00    +0.000 C 
ATOM     25  C   UNL     1       5.179   4.141  18.553  0.00  0.00    +0.000 C 
ATOM     26  O   UNL     1       5.107   4.017  16.159  0.00  0.00    +0.000 OA
ENDBRANCH  23  24
ENDBRANCH  22  23
ENDBRANCH  21  22
ENDBRANCH  20  21
ENDBRANCH  19  20
ENDBRANCH  18  19
ENDBRANCH  17  18
ENDBRANCH  16  17
ENDBRANCH  15  16
ENDBRANCH  14  15
ENDBRANCH   1  14
TORSDOF 14
ENDMDL
MODEL 6
REMARK VINA RESULT:      -5.9      1.378      2.502
REMARK  Name = 
REMARK  18 active torsions:
REMARK  status: ('A' for Active; 'I' for Inactive)
REMARK    1  A    between atoms: C_1  and  O_2
REMARK    2  A    between atoms: O_2  and  C_3
REMARK    3  A    between atoms: C_4  and  C_5
REMARK    4  A    between atoms: C_6  and  C_7
REMARK    5  A    between atoms: C_7  and  C_8
REMARK    6  A    between atoms: C_8  and  C_9
REMARK    7  A    between atoms: C_9  and  C_10
REMARK    8  A    between atoms: C_10  and  C_11
REMARK    9  A    between atoms: C_11  and  C_12
REMARK   10  A    between atoms: C_12  and  C_13
REMARK   11  A    between atoms: C_13  and  C_14
REMARK   12  A    between atoms: C_14  and  C_15
REMARK   13  A    between atoms: C_15  and  C_16
REMARK   14  A    between atoms: C_16  and  S_17
REMARK   15  A    between atoms: S_17  and  C_18
REMARK   16  A    between atoms: C_18  and  C_19
REMARK   17  A    between atoms: C_24  and  O_25
REMARK   18  A    between atoms: O_25  and  C_26
REMARK                            x       y       z     vdW  Elec       q    Type
REMARK                         _______ _______ _______ _____ _____    ______ ____
ROOT
ATOM      1  C   UNL     1       1.467   7.253  20.837  0.00  0.00    +0.000 C 
ENDROOT
BRANCH   1   5
ATOM      2  C   UNL     1       0.119  10.825  20.396  0.00  0.00    +0.000 A 
ATOM      3  C   UNL     1       0.311   9.503  20.983  0.00  0.00    +0.000 A 
ATOM      4  C   UNL     1      -0.400   9.125  22.260  0.00  0.00    +0.000 C 
ATOM      5  C   UNL     1       1.137   8.640  20.371  0.00  0.00    +0.000 A 
ATOM      6  O   UNL     1       1.780   8.964  19.170  0.00  0.00    +0.000 OA
ATOM      7  C   UNL     1       1.558  10.145  18.529  0.00  0.00    +0.000 A 
ATOM      8  O   UNL     1       2.069  10.322  17.422  0.00  0.00    +0.000 OA
ATOM      9  C   UNL     1       0.707  11.171  19.223  0.00  0.00    +0.000 A 
BRANCH   2  11
ATOM     10  C   UNL     1      -0.169  12.737  21.874  0.00  0.00    +0.000 C 
ATOM     11  O   UNL     1      -0.687  11.608  21.192  0.00  0.00    +0.000 OA
ENDBRANCH   2  11
BRANCH   9  12
ATOM     12  O   UNL     1       0.536  12.458  18.708  0.00  0.00    +0.000 OA
ATOM     13  C   UNL     1      -0.746  12.813  18.203  0.00  0.00    +0.000 C 
ENDBRANCH   9  12
ENDBRANCH   1   5
BRANCH   1  14
ATOM     14  C   UNL     1       2.528   6.623  19.937  0.00  0.00    +0.000 C 
BRANCH  14  15
ATOM     15  C   UNL     1       2.678   5.140  20.256  0.00  0.00    +0.000 C 
BRANCH  15  16
ATOM     16  C   UNL     1       1.311   4.472  20.299  0.00  0.00    +0.000 C 
BRANCH  16  17
ATOM     17  C   UNL     1       1.183   3.387  19.230  0.00  0.00    +0.000 C 
BRANCH  17  18
ATOM     18  C   UNL     1       1.746   3.834  17.880  0.00  0.00    +0.000 C 
BRANCH  18  19
ATOM     19  C   UNL     1       2.800   2.868  17.340  0.00  0.00    +0.000 C 
BRANCH  19  20
ATOM     20  C   UNL     1       4.214   3.421  17.478  0.00  0.00    +0.000 C 
BRANCH  20  21
ATOM     21  C   UNL     1       4.720   3.910  16.119  0.00  0.00    +0.000 C 
BRANCH  21  22
ATOM     22  C   UNL     1       5.935   4.818  16.274  0.00  0.00    +0.000 C 
BRANCH  22  23
ATOM     23  S   UNL     1       5.444   6.344  17.132  0.00  0.00    +0.000 S 
BRANCH  23  24
ATOM     24  C   UNL     1       7.030   6.911  17.638  0.00  0.00    +0.000 C 
ATOM     25  C   UNL     1       7.682   6.091  18.714  0.00  0.00    +0.000 C 
ATOM     26  O   UNL     1       7.560   7.899  17.144  0.00  0.00    +0.000 OA
ENDBRANCH  23  24
ENDBRANCH  22  23
ENDBRANCH  21  22
ENDBRANCH  20  21
ENDBRANCH  19  20
ENDBRANCH  18  19
ENDBRANCH  17  18
ENDBRANCH  16  17
ENDBRANCH  15  16
ENDBRANCH  14  15
ENDBRANCH   1  14
TORSDOF 14
ENDMDL
MODEL 7
REMARK VINA RESULT:      -5.7      4.440      8.911
REMARK  Name = 
REMARK  18 active torsions:
REMARK  status: ('A' for Active; 'I' for Inactive)
REMARK    1  A    between atoms: C_1  and  O_2
REMARK    2  A    between atoms: O_2  and  C_3
REMARK    3  A    between atoms: C_4  and  C_5
REMARK    4  A    between atoms: C_6  and  C_7
REMARK    5  A    between atoms: C_7  and  C_8
REMARK    6  A    between atoms: C_8  and  C_9
REMARK    7  A    between atoms: C_9  and  C_10
REMARK    8  A    between atoms: C_10  and  C_11
REMARK    9  A    between atoms: C_11  and  C_12
REMARK   10  A    between atoms: C_12  and  C_13
REMARK   11  A    between atoms: C_13  and  C_14
REMARK   12  A    between atoms: C_14  and  C_15
REMARK   13  A    between atoms: C_15  and  C_16
REMARK   14  A    between atoms: C_16  and  S_17
REMARK   15  A    between atoms: S_17  and  C_18
REMARK   16  A    between atoms: C_18  and  C_19
REMARK   17  A    between atoms: C_24  and  O_25
REMARK   18  A    between atoms: O_25  and  C_26
REMARK                            x       y       z     vdW  Elec       q    Type
REMARK                         _______ _______ _______ _____ _____    ______ ____
ROOT
ATOM      1  C   UNL     1       7.449   7.345  16.976  0.00  0.00    +0.000 C 
ENDROOT
BRANCH   1   5
ATOM      2  C   UNL     1       4.758   4.835  18.084  0.00  0.00    +0.000 A 
ATOM      3  C   UNL     1       6.064   5.342  17.676  0.00  0.00    +0.000 A 
ATOM      4  C   UNL     1       7.251   4.413  17.591  0.00  0.00    +0.000 C 
ATOM      5  C   UNL     1       6.188   6.648  17.391  0.00  0.00    +0.000 A 
ATOM      6  O   UNL     1       5.091   7.518  17.437  0.00  0.00    +0.000 OA
ATOM      7  C   UNL     1       3.832   7.077  17.714  0.00  0.00    +0.000 A 
ATOM      8  O   UNL     1       2.896   7.872  17.629  0.00  0.00    +0.000 OA
ATOM      9  C   UNL     1       3.666   5.639  18.121  0.00  0.00    +0.000 A 
BRANCH   2  11
ATOM     10  C   UNL     1       4.568   3.063  19.742  0.00  0.00    +0.000 C 
ATOM     11  O   UNL     1       4.827   3.501  18.419  0.00  0.00    +0.000 OA
ENDBRANCH   2  11
BRANCH   9  12
ATOM     12  O   UNL     1       2.438   5.133  18.554  0.00  0.00    +0.000 OA
ATOM     13  C   UNL     1       1.614   4.469  17.603  0.00  0.00    +0.000 C 
ENDBRANCH   9  12
ENDBRANCH   1   5
BRANCH   1  14
ATOM     14  C   UNL     1       8.125   7.996  18.180  0.00  0.00    +0.000 C 
BRANCH  14  15
ATOM     15  C   UNL     1       8.252   9.500  17.966  0.00  0.00    +0.000 C 
BRANCH  15  16
ATOM     16  C   UNL     1       9.215  10.095  18.983  0.00  0.00    +0.000 C 
BRANCH  16  17
ATOM     17  C   UNL     1      10.093  11.178  18.357  0.00  0.00    +0.000 C 
BRANCH  17  18
ATOM     18  C   UNL     1      11.343  11.466  19.192  0.00  0.00    +0.000 C 
BRANCH  18  19
ATOM     19  C   UNL     1      11.027  12.270  20.453  0.00  0.00    +0.000 C 
BRANCH  19  20
ATOM     20  C   UNL     1      10.250  13.546  20.144  0.00  0.00    +0.000 C 
BRANCH  20  21
ATOM     21  C   UNL     1       8.976  13.601  20.991  0.00  0.00    +0.000 C 
BRANCH  21  22
ATOM     22  C   UNL     1       7.934  14.522  20.366  0.00  0.00    +0.000 C 
BRANCH  22  23
ATOM     23  S   UNL     1       8.440  14.944  18.672  0.00  0.00    +0.000 S 
BRANCH  23  24
ATOM     24  C   UNL     1       7.179  14.102  17.780  0.00  0.00    +0.000 C 
ATOM     25  C   UNL     1       5.824  14.750  17.834  0.00  0.00    +0.000 C 
ATOM     26  O   UNL     1       7.395  13.067  17.161  0.00  0.00    +0.000 OA
ENDBRANCH  23  24
ENDBRANCH  22  23
ENDBRANCH  21  22
ENDBRANCH  20  21
ENDBRANCH  19  20
ENDBRANCH  18  19
ENDBRANCH  17  18
ENDBRANCH  16  17
ENDBRANCH  15  16
ENDBRANCH  14  15
ENDBRANCH   1  14
TORSDOF 14
ENDMDL
MODEL 8
REMARK VINA RESULT:      -5.7      6.016     10.220
REMARK  Name = 
REMARK  18 active torsions:
REMARK  status: ('A' for Active; 'I' for Inactive)
REMARK    1  A    between atoms: C_1  and  O_2
REMARK    2  A    between atoms: O_2  and  C_3
REMARK    3  A    between atoms: C_4  and  C_5
REMARK    4  A    between atoms: C_6  and  C_7
REMARK    5  A    between atoms: C_7  and  C_8
REMARK    6  A    between atoms: C_8  and  C_9
REMARK    7  A    between atoms: C_9  and  C_10
REMARK    8  A    between atoms: C_10  and  C_11
REMARK    9  A    between atoms: C_11  and  C_12
REMARK   10  A    between atoms: C_12  and  C_13
REMARK   11  A    between atoms: C_13  and  C_14
REMARK   12  A    between atoms: C_14  and  C_15
REMARK   13  A    between atoms: C_15  and  C_16
REMARK   14  A    between atoms: C_16  and  S_17
REMARK   15  A    between atoms: S_17  and  C_18
REMARK   16  A    between atoms: C_18  and  C_19
REMARK   17  A    between atoms: C_24  and  O_25
REMARK   18  A    between atoms: O_25  and  C_26
REMARK                            x       y       z     vdW  Elec       q    Type
REMARK                         _______ _______ _______ _____ _____    ______ ____
ROOT
ATOM      1  C   UNL     1       8.060   7.477  18.301  0.00  0.00    +0.000 C 
ENDROOT
BRANCH   1   5
ATOM      2  C   UNL     1       6.012   4.488  17.017  0.00  0.00    +0.000 A 
ATOM      3  C   UNL     1       6.557   5.466  17.953  0.00  0.00    +0.000 A 
ATOM      4  C   UNL     1       6.146   5.443  19.406  0.00  0.00    +0.000 C 
ATOM      5  C   UNL     1       7.417   6.389  17.493  0.00  0.00    +0.000 A 
ATOM      6  O   UNL     1       7.831   6.406  16.155  0.00  0.00    +0.000 OA
ATOM      7  C   UNL     1       7.431   5.456  15.265  0.00  0.00    +0.000 A 
ATOM      8  O   UNL     1       7.918   5.465  14.133  0.00  0.00    +0.000 OA
ATOM      9  C   UNL     1       6.402   4.457  15.718  0.00  0.00    +0.000 A 
BRANCH   2  11
ATOM     10  C   UNL     1       3.703   3.797  17.352  0.00  0.00    +0.000 C 
ATOM     11  O   UNL     1       5.087   3.676  17.633  0.00  0.00    +0.000 OA
ENDBRANCH   2  11
BRANCH   9  12
ATOM     12  O   UNL     1       5.833   3.535  14.838  0.00  0.00    +0.000 OA
ATOM     13  C   UNL     1       5.385   4.006  13.571  0.00  0.00    +0.000 C 
ENDBRANCH   9  12
ENDBRANCH   1   5
BRANCH   1  14
ATOM     14  C   UNL     1       7.680   8.849  17.751  0.00  0.00    +0.000 C 
BRANCH  14  15
ATOM     15  C   UNL     1       8.832   9.831  17.939  0.00  0.00    +0.000 C 
BRANCH  15  16
ATOM     16  C   UNL     1       9.208   9.924  19.411  0.00  0.00    +0.000 C 
BRANCH  16  17
ATOM     17  C   UNL     1       9.218  11.372  19.896  0.00  0.00    +0.000 C 
BRANCH  17  18
ATOM     18  C   UNL     1      10.535  11.746  20.579  0.00  0.00    +0.000 C 
BRANCH  18  19
ATOM     19  C   UNL     1      11.741  11.561  19.658  0.00  0.00    +0.000 C 
BRANCH  19  20
ATOM     20  C   UNL     1      12.083  12.836  18.893  0.00  0.00    +0.000 C 
BRANCH  20  21
ATOM     21  C   UNL     1      11.724  12.670  17.414  0.00  0.00    +0.000 C 
BRANCH  21  22
ATOM     22  C   UNL     1      11.143  13.957  16.837  0.00  0.00    +0.000 C 
BRANCH  22  23
ATOM     23  S   UNL     1       9.909  14.632  17.989  0.00  0.00    +0.000 S 
BRANCH  23  24
ATOM     24  C   UNL     1      10.352  16.333  17.918  0.00  0.00    +0.000 C 
ATOM     25  C   UNL     1      10.323  17.050  19.238  0.00  0.00    +0.000 C 
ATOM     26  O   UNL     1      10.663  16.885  16.869  0.00  0.00    +0.000 OA
ENDBRANCH  23  24
ENDBRANCH  22  23
ENDBRANCH  21  22
ENDBRANCH  20  21
ENDBRANCH  19  20
ENDBRANCH  18  19
ENDBRANCH  17  18
ENDBRANCH  16  17
ENDBRANCH  15  16
ENDBRANCH  14  15
ENDBRANCH   1  14
TORSDOF 14
ENDMDL
MODEL 9
REMARK VINA RESULT:      -5.7      2.553      3.870
REMARK  Name = 
REMARK  18 active torsions:
REMARK  status: ('A' for Active; 'I' for Inactive)
REMARK    1  A    between atoms: C_1  and  O_2
REMARK    2  A    between atoms: O_2  and  C_3
REMARK    3  A    between atoms: C_4  and  C_5
REMARK    4  A    between atoms: C_6  and  C_7
REMARK    5  A    between atoms: C_7  and  C_8
REMARK    6  A    between atoms: C_8  and  C_9
REMARK    7  A    between atoms: C_9  and  C_10
REMARK    8  A    between atoms: C_10  and  C_11
REMARK    9  A    between atoms: C_11  and  C_12
REMARK   10  A    between atoms: C_12  and  C_13
REMARK   11  A    between atoms: C_13  and  C_14
REMARK   12  A    between atoms: C_14  and  C_15
REMARK   13  A    between atoms: C_15  and  C_16
REMARK   14  A    between atoms: C_16  and  S_17
REMARK   15  A    between atoms: S_17  and  C_18
REMARK   16  A    between atoms: C_18  and  C_19
REMARK   17  A    between atoms: C_24  and  O_25
REMARK   18  A    between atoms: O_25  and  C_26
REMARK                            x       y       z     vdW  Elec       q    Type
REMARK                         _______ _______ _______ _____ _____    ______ ____
ROOT
ATOM      1  C   UNL     1       1.137  10.006  19.357  0.00  0.00    +0.000 C 
ENDROOT
BRANCH   1   5
ATOM      2  C   UNL     1      -2.201  11.900  19.162  0.00  0.00    +0.000 A 
ATOM      3  C   UNL     1      -0.907  11.468  19.679  0.00  0.00    +0.000 A 
ATOM      4  C   UNL     1      -0.363  12.056  20.959  0.00  0.00    +0.000 C 
ATOM      5  C   UNL     1      -0.210  10.551  18.989  0.00  0.00    +0.000 A 
ATOM      6  O   UNL     1      -0.715   9.975  17.817  0.00  0.00    +0.000 OA
ATOM      7  C   UNL     1      -1.959  10.268  17.346  0.00  0.00    +0.000 A 
ATOM      8  O   UNL     1      -2.384   9.645  16.372  0.00  0.00    +0.000 OA
ATOM      9  C   UNL     1      -2.735  11.352  18.041  0.00  0.00    +0.000 A 
BRANCH   2  11
ATOM     10  C   UNL     1      -3.793  12.637  20.850  0.00  0.00    +0.000 C 
ATOM     11  O   UNL     1      -2.737  12.901  19.941  0.00  0.00    +0.000 OA
ENDBRANCH   2  11
BRANCH   9  12
ATOM     12  O   UNL     1      -3.957  11.815  17.549  0.00  0.00    +0.000 OA
ATOM     13  C   UNL     1      -5.127  11.059  17.841  0.00  0.00    +0.000 C 
ENDBRANCH   9  12
ENDBRANCH   1   5
BRANCH   1  14
ATOM     14  C   UNL     1       0.998   8.862  20.359  0.00  0.00    +0.000 C 
BRANCH  14  15
ATOM     15  C   UNL     1       1.921   7.710  19.977  0.00  0.00    +0.000 C 
BRANCH  15  16
ATOM     16  C   UNL     1       1.629   6.494  20.845  0.00  0.00    +0.000 C 
BRANCH  16  17
ATOM     17  C   UNL     1       2.190   5.215  20.225  0.00  0.00    +0.000 C 
BRANCH  17  18
ATOM     18  C   UNL     1       1.138   4.108  20.126  0.00  0.00    +0.000 C 
BRANCH  18  19
ATOM     19  C   UNL     1       1.191   3.374  18.787  0.00  0.00    +0.000 C 
BRANCH  19  20
ATOM     20  C   UNL     1       1.961   4.159  17.729  0.00  0.00    +0.000 C 
BRANCH  20  21
ATOM     21  C   UNL     1       3.108   3.308  17.178  0.00  0.00    +0.000 C 
BRANCH  21  22
ATOM     22  C   UNL     1       4.460   3.956  17.455  0.00  0.00    +0.000 C 
BRANCH  22  23
ATOM     23  S   UNL     1       5.261   4.380  15.879  0.00  0.00    +0.000 S 
BRANCH  23  24
ATOM     24  C   UNL     1       6.157   5.805  16.388  0.00  0.00    +0.000 C 
ATOM     25  C   UNL     1       5.367   6.795  17.195  0.00  0.00    +0.000 C 
ATOM     26  O   UNL     1       7.338   5.971  16.105  0.00  0.00    +0.000 OA
ENDBRANCH  23  24
ENDBRANCH  22  23
ENDBRANCH  21  22
ENDBRANCH  20  21
ENDBRANCH  19  20
ENDBRANCH  18  19
ENDBRANCH  17  18
ENDBRANCH  16  17
ENDBRANCH  15  16
ENDBRANCH  14  15
ENDBRANCH   1  14
TORSDOF 14
ENDMDL
