MODEL 1
REMARK VINA RESULT:      -8.1      0.000      0.000
REMARK  Name = 
REMARK  4 active torsions:
REMARK  status: ('A' for Active; 'I' for Inactive)
REMARK    1  A    between atoms: C_1  and  N_2
REMARK    2  A    between atoms: N_5  and  C_6
REMARK    3  A    between atoms: C_10  and  C_11
REMARK    4  A    between atoms: C_13  and  C_14
REMARK                            x       y       z     vdW  Elec       q    Type
REMARK                         _______ _______ _______ _____ _____    ______ ____
ROOT
ATOM      1  C   UNL     1      -0.004  10.176  19.061  0.00  0.00    +0.000 A 
ATOM      2  C   UNL     1      -0.130  10.404  20.435  0.00  0.00    +0.000 A 
ATOM      3  C   UNL     1       0.583   9.636  21.348  0.00  0.00    +0.000 A 
ATOM      4  C   UNL     1       1.439   8.638  20.893  0.00  0.00    +0.000 A 
ATOM      5  C   UNL     1       1.588   8.395  19.519  0.00  0.00    +0.000 A 
ATOM      6  C   UNL     1       0.831   9.150  18.611  0.00  0.00    +0.000 A 
ENDROOT
BRANCH   1  11
ATOM      7  C   UNL     1      -3.372  11.182  15.699  0.00  0.00    +0.000 C 
ATOM      8  N   UNL     1      -2.206  11.488  16.493  0.00  0.00    +0.000 N 
ATOM      9  C   UNL     1      -1.809  10.558  17.426  0.00  0.00    +0.000 C 
ATOM     10  O   UNL     1      -2.445   9.526  17.616  0.00  0.00    +0.000 OA
ATOM     11  N   UNL     1      -0.682  10.952  18.097  0.00  0.00    +0.000 N 
ATOM     12  H   UNL     1      -1.454  11.984  16.033  0.00  0.00    +0.000 HD
ATOM     13  H   UNL     1      -0.514  11.949  18.109  0.00  0.00    +0.000 HD
ENDBRANCH   1  11
BRANCH   5  14
ATOM     14  C   UNL     1       2.536   7.390  19.063  0.00  0.00    +0.000 A 
ATOM     15  C   UNL     1       3.114   7.100  17.854  0.00  0.00    +0.000 A 
ATOM     16  C   UNL     1       4.011   6.030  18.108  0.00  0.00    +0.000 A 
ATOM     17  N   UNL     1       3.927   5.667  19.397  0.00  0.00    +0.000 NA
ATOM     18  O   UNL     1       2.995   6.499  19.981  0.00  0.00    +0.000 OA
BRANCH  16  19
ATOM     19  C   UNL     1       4.939   5.389  17.168  0.00  0.00    +0.000 A 
ATOM     20  C   UNL     1       6.182   5.986  16.850  0.00  0.00    +0.000 A 
ATOM     21 CL   UNL     1       6.779   7.439  17.593  0.00  0.00    +0.000 Cl
ATOM     22  C   UNL     1       7.053   5.400  15.923  0.00  0.00    +0.000 A 
ATOM     23  C   UNL     1       6.731   4.192  15.319  0.00  0.00    +0.000 A 
ATOM     24  C   UNL     1       5.529   3.569  15.638  0.00  0.00    +0.000 A 
ATOM     25  C   UNL     1       4.634   4.161  16.542  0.00  0.00    +0.000 A 
ATOM     26 CL   UNL     1       3.147   3.297  16.778  0.00  0.00    +0.000 Cl
ENDBRANCH  16  19
ENDBRANCH   5  14
TORSDOF 3
ENDMDL
MODEL 2
REMARK VINA RESULT:      -7.6      1.783      2.244
REMARK  Name = 
REMARK  4 active torsions:
REMARK  status: ('A' for Active; 'I' for Inactive)
REMARK    1  A    between atoms: C_1  and  N_2
REMARK    2  A    between atoms: N_5  and  C_6
REMARK    3  A    between atoms: C_10  and  C_11
REMARK    4  A    between atoms: C_13  and  C_14
REMARK                            x       y       z     vdW  Elec       q    Type
REMARK                         _______ _______ _______ _____ _____    ______ ____
ROOT
ATOM      1  C   UNL     1      -0.772  11.666  18.776  0.00  0.00    +0.000 A 
ATOM      2  C   UNL     1       0.066  12.773  18.606  0.00  0.00    +0.000 A 
ATOM      3  C   UNL     1       1.441  12.608  18.488  0.00  0.00    +0.000 A 
ATOM      4  C   UNL     1       1.991  11.331  18.529  0.00  0.00    +0.000 A 
ATOM      5  C   UNL     1       1.171  10.204  18.693  0.00  0.00    +0.000 A 
ATOM      6  C   UNL     1      -0.210  10.389  18.851  0.00  0.00    +0.000 A 
ENDROOT
BRANCH   1  11
ATOM      7  C   UNL     1      -5.356  11.831  17.158  0.00  0.00    +0.000 C 
ATOM      8  N   UNL     1      -4.344  11.900  18.186  0.00  0.00    +0.000 N 
ATOM      9  C   UNL     1      -3.041  11.666  17.811  0.00  0.00    +0.000 C 
ATOM     10  O   UNL     1      -2.746  11.363  16.660  0.00  0.00    +0.000 OA
ATOM     11  N   UNL     1      -2.175  11.782  18.867  0.00  0.00    +0.000 N 
ATOM     12  H   UNL     1      -4.466  12.600  18.905  0.00  0.00    +0.000 HD
ATOM     13  H   UNL     1      -2.589  11.650  19.780  0.00  0.00    +0.000 HD
ENDBRANCH   1  11
BRANCH   5  14
ATOM     14  C   UNL     1       1.760   8.875  18.669  0.00  0.00    +0.000 A 
ATOM     15  C   UNL     1       2.283   8.079  17.683  0.00  0.00    +0.000 A 
ATOM     16  C   UNL     1       2.759   6.916  18.344  0.00  0.00    +0.000 A 
ATOM     17  N   UNL     1       2.480   6.997  19.655  0.00  0.00    +0.000 NA
ATOM     18  O   UNL     1       1.841   8.203  19.848  0.00  0.00    +0.000 OA
BRANCH  16  19
ATOM     19  C   UNL     1       3.479   5.778  17.760  0.00  0.00    +0.000 A 
ATOM     20  C   UNL     1       4.791   5.929  17.252  0.00  0.00    +0.000 A 
ATOM     21 CL   UNL     1       5.708   7.401  17.356  0.00  0.00    +0.000 Cl
ATOM     22  C   UNL     1       5.467   4.857  16.657  0.00  0.00    +0.000 A 
ATOM     23  C   UNL     1       4.876   3.602  16.587  0.00  0.00    +0.000 A 
ATOM     24  C   UNL     1       3.599   3.420  17.107  0.00  0.00    +0.000 A 
ATOM     25  C   UNL     1       2.899   4.493  17.678  0.00  0.00    +0.000 A 
ATOM     26 CL   UNL     1       1.291   4.121  18.215  0.00  0.00    +0.000 Cl
ENDBRANCH  16  19
ENDBRANCH   5  14
TORSDOF 3
ENDMDL
MODEL 3
REMARK VINA RESULT:      -7.6      0.675      2.007
REMARK  Name = 
REMARK  4 active torsions:
REMARK  status: ('A' for Active; 'I' for Inactive)
REMARK    1  A    between atoms: C_1  and  N_2
REMARK    2  A    between atoms: N_5  and  C_6
REMARK    3  A    between atoms: C_10  and  C_11
REMARK    4  A    between atoms: C_13  and  C_14
REMARK                            x       y       z     vdW  Elec       q    Type
REMARK                         _______ _______ _______ _____ _____    ______ ____
ROOT
ATOM      1  C   UNL     1      -0.298  10.665  18.423  0.00  0.00    +0.000 A 
ATOM      2  C   UNL     1      -0.310  11.187  19.720  0.00  0.00    +0.000 A 
ATOM      3  C   UNL     1       0.484  10.629  20.715  0.00  0.00    +0.000 A 
ATOM      4  C   UNL     1       1.308   9.548  20.418  0.00  0.00    +0.000 A 
ATOM      5  C   UNL     1       1.342   9.010  19.122  0.00  0.00    +0.000 A 
ATOM      6  C   UNL     1       0.505   9.558  18.139  0.00  0.00    +0.000 A 
ENDROOT
BRANCH   1  11
ATOM      7  C   UNL     1      -4.073  11.089  15.385  0.00  0.00    +0.000 C 
ATOM      8  N   UNL     1      -2.776  11.466  15.898  0.00  0.00    +0.000 N 
ATOM      9  C   UNL     1      -2.306  10.788  16.998  0.00  0.00    +0.000 C 
ATOM     10  O   UNL     1      -2.977   9.928  17.559  0.00  0.00    +0.000 OA
ATOM     11  N   UNL     1      -1.061  11.219  17.374  0.00  0.00    +0.000 N 
ATOM     12  H   UNL     1      -2.072  11.727  15.220  0.00  0.00    +0.000 HD
ATOM     13  H   UNL     1      -0.822  12.155  17.076  0.00  0.00    +0.000 HD
ENDBRANCH   1  11
BRANCH   5  14
ATOM     14  C   UNL     1       2.257   7.921  18.818  0.00  0.00    +0.000 A 
ATOM     15  C   UNL     1       2.934   7.528  17.693  0.00  0.00    +0.000 A 
ATOM     16  C   UNL     1       3.721   6.415  18.091  0.00  0.00    +0.000 A 
ATOM     17  N   UNL     1       3.479   6.130  19.380  0.00  0.00    +0.000 NA
ATOM     18  O   UNL     1       2.554   7.053  19.822  0.00  0.00    +0.000 OA
BRANCH  16  19
ATOM     19  C   UNL     1       4.692   5.664  17.286  0.00  0.00    +0.000 A 
ATOM     20  C   UNL     1       4.367   4.396  16.749  0.00  0.00    +0.000 A 
ATOM     21 CL   UNL     1       2.800   3.658  16.884  0.00  0.00    +0.000 Cl
ATOM     22  C   UNL     1       5.303   3.656  16.016  0.00  0.00    +0.000 A 
ATOM     23  C   UNL     1       6.568   4.172  15.765  0.00  0.00    +0.000 A 
ATOM     24  C   UNL     1       6.902   5.429  16.255  0.00  0.00    +0.000 A 
ATOM     25  C   UNL     1       5.983   6.167  17.018  0.00  0.00    +0.000 A 
ATOM     26 CL   UNL     1       6.575   7.684  17.618  0.00  0.00    +0.000 Cl
ENDBRANCH  16  19
ENDBRANCH   5  14
TORSDOF 3
ENDMDL
MODEL 4
REMARK VINA RESULT:      -7.6      1.782      2.889
REMARK  Name = 
REMARK  4 active torsions:
REMARK  status: ('A' for Active; 'I' for Inactive)
REMARK    1  A    between atoms: C_1  and  N_2
REMARK    2  A    between atoms: N_5  and  C_6
REMARK    3  A    between atoms: C_10  and  C_11
REMARK    4  A    between atoms: C_13  and  C_14
REMARK                            x       y       z     vdW  Elec       q    Type
REMARK                         _______ _______ _______ _____ _____    ______ ____
ROOT
ATOM      1  C   UNL     1      -0.781  11.658  18.782  0.00  0.00    +0.000 A 
ATOM      2  C   UNL     1       0.052  12.769  18.616  0.00  0.00    +0.000 A 
ATOM      3  C   UNL     1       1.428  12.611  18.498  0.00  0.00    +0.000 A 
ATOM      4  C   UNL     1       1.983  11.336  18.534  0.00  0.00    +0.000 A 
ATOM      5  C   UNL     1       1.168  10.205  18.693  0.00  0.00    +0.000 A 
ATOM      6  C   UNL     1      -0.214  10.383  18.852  0.00  0.00    +0.000 A 
ENDROOT
BRANCH   1  11
ATOM      7  C   UNL     1      -5.364  11.837  17.161  0.00  0.00    +0.000 C 
ATOM      8  N   UNL     1      -4.353  11.890  18.191  0.00  0.00    +0.000 N 
ATOM      9  C   UNL     1      -3.049  11.668  17.814  0.00  0.00    +0.000 C 
ATOM     10  O   UNL     1      -2.752  11.387  16.658  0.00  0.00    +0.000 OA
ATOM     11  N   UNL     1      -2.184  11.768  18.873  0.00  0.00    +0.000 N 
ATOM     12  H   UNL     1      -4.478  12.578  18.922  0.00  0.00    +0.000 HD
ATOM     13  H   UNL     1      -2.599  11.618  19.783  0.00  0.00    +0.000 HD
ENDBRANCH   1  11
BRANCH   5  14
ATOM     14  C   UNL     1       1.763   8.878  18.664  0.00  0.00    +0.000 A 
ATOM     15  C   UNL     1       2.294   8.090  17.676  0.00  0.00    +0.000 A 
ATOM     16  C   UNL     1       2.772   6.926  18.333  0.00  0.00    +0.000 A 
ATOM     17  N   UNL     1       2.485   6.997  19.643  0.00  0.00    +0.000 NA
ATOM     18  O   UNL     1       1.841   8.200  19.840  0.00  0.00    +0.000 OA
BRANCH  16  19
ATOM     19  C   UNL     1       3.500   5.794  17.746  0.00  0.00    +0.000 A 
ATOM     20  C   UNL     1       2.901   4.517  17.644  0.00  0.00    +0.000 A 
ATOM     21 CL   UNL     1       1.254   4.178  18.085  0.00  0.00    +0.000 Cl
ATOM     22  C   UNL     1       3.605   3.424  17.122  0.00  0.00    +0.000 A 
ATOM     23  C   UNL     1       4.903   3.580  16.656  0.00  0.00    +0.000 A 
ATOM     24  C   UNL     1       5.504   4.833  16.717  0.00  0.00    +0.000 A 
ATOM     25  C   UNL     1       4.820   5.929  17.265  0.00  0.00    +0.000 A 
ATOM     26 CL   UNL     1       5.731   7.404  17.336  0.00  0.00    +0.000 Cl
ENDBRANCH  16  19
ENDBRANCH   5  14
TORSDOF 3
ENDMDL
MODEL 5
REMARK VINA RESULT:      -7.4      2.218      2.652
REMARK  Name = 
REMARK  4 active torsions:
REMARK  status: ('A' for Active; 'I' for Inactive)
REMARK    1  A    between atoms: C_1  and  N_2
REMARK    2  A    between atoms: N_5  and  C_6
REMARK    3  A    between atoms: C_10  and  C_11
REMARK    4  A    between atoms: C_13  and  C_14
REMARK                            x       y       z     vdW  Elec       q    Type
REMARK                         _______ _______ _______ _____ _____    ______ ____
ROOT
ATOM      1  C   UNL     1      -0.859  11.839  18.402  0.00  0.00    +0.000 A 
ATOM      2  C   UNL     1      -0.010  12.950  18.434  0.00  0.00    +0.000 A 
ATOM      3  C   UNL     1       1.366  12.787  18.544  0.00  0.00    +0.000 A 
ATOM      4  C   UNL     1       1.907  11.507  18.613  0.00  0.00    +0.000 A 
ATOM      5  C   UNL     1       1.077  10.377  18.577  0.00  0.00    +0.000 A 
ATOM      6  C   UNL     1      -0.312  10.558  18.507  0.00  0.00    +0.000 A 
ENDROOT
BRANCH   1  11
ATOM      7  C   UNL     1      -5.469  12.397  19.848  0.00  0.00    +0.000 C 
ATOM      8  N   UNL     1      -4.442  12.182  18.857  0.00  0.00    +0.000 N 
ATOM      9  C   UNL     1      -3.134  12.193  19.284  0.00  0.00    +0.000 C 
ATOM     10  O   UNL     1      -2.840  12.425  20.452  0.00  0.00    +0.000 OA
ATOM     11  N   UNL     1      -2.257  11.955  18.258  0.00  0.00    +0.000 N 
ATOM     12  H   UNL     1      -4.648  11.522  18.118  0.00  0.00    +0.000 HD
ATOM     13  H   UNL     1      -2.608  12.169  17.334  0.00  0.00    +0.000 HD
ENDBRANCH   1  11
BRANCH   5  14
ATOM     14  C   UNL     1       1.668   9.048  18.587  0.00  0.00    +0.000 A 
ATOM     15  C   UNL     1       2.226   8.243  17.627  0.00  0.00    +0.000 A 
ATOM     16  C   UNL     1       2.681   7.088  18.315  0.00  0.00    +0.000 A 
ATOM     17  N   UNL     1       2.357   7.181  19.615  0.00  0.00    +0.000 NA
ATOM     18  O   UNL     1       1.710   8.388  19.775  0.00  0.00    +0.000 OA
BRANCH  16  19
ATOM     19  C   UNL     1       3.422   5.945  17.768  0.00  0.00    +0.000 A 
ATOM     20  C   UNL     1       4.745   6.097  17.291  0.00  0.00    +0.000 A 
ATOM     21 CL   UNL     1       5.652   7.576  17.395  0.00  0.00    +0.000 Cl
ATOM     22  C   UNL     1       5.443   5.019  16.730  0.00  0.00    +0.000 A 
ATOM     23  C   UNL     1       4.861   3.760  16.664  0.00  0.00    +0.000 A 
ATOM     24  C   UNL     1       3.573   3.578  17.154  0.00  0.00    +0.000 A 
ATOM     25  C   UNL     1       2.851   4.656  17.691  0.00  0.00    +0.000 A 
ATOM     26 CL   UNL     1       1.233   4.282  18.193  0.00  0.00    +0.000 Cl
ENDBRANCH  16  19
ENDBRANCH   5  14
TORSDOF 3
ENDMDL
MODEL 6
REMARK VINA RESULT:      -7.4      3.339      8.181
REMARK  Name = 
REMARK  4 active torsions:
REMARK  status: ('A' for Active; 'I' for Inactive)
REMARK    1  A    between atoms: C_1  and  N_2
REMARK    2  A    between atoms: N_5  and  C_6
REMARK    3  A    between atoms: C_10  and  C_11
REMARK    4  A    between atoms: C_13  and  C_14
REMARK                            x       y       z     vdW  Elec       q    Type
REMARK                         _______ _______ _______ _____ _____    ______ ____
ROOT
ATOM      1  C   UNL     1       4.878   5.478  16.957  0.00  0.00    +0.000 A 
ATOM      2  C   UNL     1       4.389   4.210  17.286  0.00  0.00    +0.000 A 
ATOM      3  C   UNL     1       3.225   4.072  18.033  0.00  0.00    +0.000 A 
ATOM      4  C   UNL     1       2.533   5.204  18.450  0.00  0.00    +0.000 A 
ATOM      5  C   UNL     1       3.000   6.487  18.129  0.00  0.00    +0.000 A 
ATOM      6  C   UNL     1       4.198   6.611  17.409  0.00  0.00    +0.000 A 
ENDROOT
BRANCH   1  11
ATOM      7  C   UNL     1       7.801   4.951  13.105  0.00  0.00    +0.000 C 
ATOM      8  N   UNL     1       7.473   5.445  14.422  0.00  0.00    +0.000 N 
ATOM      9  C   UNL     1       6.218   5.165  14.911  0.00  0.00    +0.000 C 
ATOM     10  O   UNL     1       5.386   4.561  14.242  0.00  0.00    +0.000 OA
ATOM     11  N   UNL     1       6.036   5.666  16.174  0.00  0.00    +0.000 N 
ATOM     12  H   UNL     1       8.214   5.445  15.110  0.00  0.00    +0.000 HD
ATOM     13  H   UNL     1       6.637   6.441  16.421  0.00  0.00    +0.000 HD
ENDBRANCH   1  11
BRANCH   5  14
ATOM     14  C   UNL     1       2.227   7.655  18.520  0.00  0.00    +0.000 A 
ATOM     15  C   UNL     1       1.864   8.201  19.725  0.00  0.00    +0.000 A 
ATOM     16  C   UNL     1       1.163   9.394  19.406  0.00  0.00    +0.000 A 
ATOM     17  N   UNL     1       1.069   9.519  18.073  0.00  0.00    +0.000 NA
ATOM     18  O   UNL     1       1.711   8.428  17.528  0.00  0.00    +0.000 OA
BRANCH  16  19
ATOM     19  C   UNL     1       0.624  10.398  20.333  0.00  0.00    +0.000 A 
ATOM     20  C   UNL     1       0.933  11.770  20.179  0.00  0.00    +0.000 A 
ATOM     21 CL   UNL     1       1.862  12.414  18.861  0.00  0.00    +0.000 Cl
ATOM     22  C   UNL     1       0.455  12.727  21.084  0.00  0.00    +0.000 A 
ATOM     23  C   UNL     1      -0.369  12.352  22.137  0.00  0.00    +0.000 A 
ATOM     24  C   UNL     1      -0.713  11.013  22.291  0.00  0.00    +0.000 A 
ATOM     25  C   UNL     1      -0.216  10.040  21.409  0.00  0.00    +0.000 A 
ATOM     26 CL   UNL     1      -0.677   8.408  21.778  0.00  0.00    +0.000 Cl
ENDBRANCH  16  19
ENDBRANCH   5  14
TORSDOF 3
ENDMDL
MODEL 7
REMARK VINA RESULT:      -7.4      2.043      2.246
REMARK  Name = 
REMARK  4 active torsions:
REMARK  status: ('A' for Active; 'I' for Inactive)
REMARK    1  A    between atoms: C_1  and  N_2
REMARK    2  A    between atoms: N_5  and  C_6
REMARK    3  A    between atoms: C_10  and  C_11
REMARK    4  A    between atoms: C_13  and  C_14
REMARK                            x       y       z     vdW  Elec       q    Type
REMARK                         _______ _______ _______ _____ _____    ______ ____
ROOT
ATOM      1  C   UNL     1       0.549  10.337  19.781  0.00  0.00    +0.000 A 
ATOM      2  C   UNL     1      -0.009  10.081  21.037  0.00  0.00    +0.000 A 
ATOM      3  C   UNL     1       0.250   8.884  21.696  0.00  0.00    +0.000 A 
ATOM      4  C   UNL     1       1.080   7.935  21.106  0.00  0.00    +0.000 A 
ATOM      5  C   UNL     1       1.656   8.172  19.849  0.00  0.00    +0.000 A 
ATOM      6  C   UNL     1       1.353   9.366  19.179  0.00  0.00    +0.000 A 
ENDROOT
BRANCH   1  11
ATOM      7  C   UNL     1       1.082  15.073  18.809  0.00  0.00    +0.000 C 
ATOM      8  N   UNL     1       0.515  13.763  18.589  0.00  0.00    +0.000 N 
ATOM      9  C   UNL     1       0.970  12.733  19.379  0.00  0.00    +0.000 C 
ATOM     10  O   UNL     1       1.858  12.901  20.208  0.00  0.00    +0.000 OA
ATOM     11  N   UNL     1       0.342  11.549  19.091  0.00  0.00    +0.000 N 
ATOM     12  H   UNL     1      -0.467  13.722  18.352  0.00  0.00    +0.000 HD
ATOM     13  H   UNL     1      -0.057  11.488  18.164  0.00  0.00    +0.000 HD
ENDBRANCH   1  11
BRANCH   5  14
ATOM     14  C   UNL     1       2.570   7.194  19.280  0.00  0.00    +0.000 A 
ATOM     15  C   UNL     1       3.110   7.002  18.034  0.00  0.00    +0.000 A 
ATOM     16  C   UNL     1       3.991   5.896  18.167  0.00  0.00    +0.000 A 
ATOM     17  N   UNL     1       3.933   5.422  19.422  0.00  0.00    +0.000 NA
ATOM     18  O   UNL     1       3.034   6.216  20.103  0.00  0.00    +0.000 OA
BRANCH  16  19
ATOM     19  C   UNL     1       4.881   5.325  17.149  0.00  0.00    +0.000 A 
ATOM     20  C   UNL     1       6.070   5.988  16.766  0.00  0.00    +0.000 A 
ATOM     21 CL   UNL     1       6.650   7.448  17.508  0.00  0.00    +0.000 Cl
ATOM     22  C   UNL     1       6.902   5.468  15.766  0.00  0.00    +0.000 A 
ATOM     23  C   UNL     1       6.594   4.261  15.151  0.00  0.00    +0.000 A 
ATOM     24  C   UNL     1       5.447   3.574  15.531  0.00  0.00    +0.000 A 
ATOM     25  C   UNL     1       4.589   4.100  16.510  0.00  0.00    +0.000 A 
ATOM     26 CL   UNL     1       3.163   3.161  16.821  0.00  0.00    +0.000 Cl
ENDBRANCH  16  19
ENDBRANCH   5  14
TORSDOF 3
ENDMDL
MODEL 8
REMARK VINA RESULT:      -7.4      1.858      2.713
REMARK  Name = 
REMARK  4 active torsions:
REMARK  status: ('A' for Active; 'I' for Inactive)
REMARK    1  A    between atoms: C_1  and  N_2
REMARK    2  A    between atoms: N_5  and  C_6
REMARK    3  A    between atoms: C_10  and  C_11
REMARK    4  A    between atoms: C_13  and  C_14
REMARK                            x       y       z     vdW  Elec       q    Type
REMARK                         _______ _______ _______ _____ _____    ______ ____
ROOT
ATOM      1  C   UNL     1       0.255  10.286  19.738  0.00  0.00    +0.000 A 
ATOM      2  C   UNL     1      -0.166  10.114  21.060  0.00  0.00    +0.000 A 
ATOM      3  C   UNL     1       0.250   9.011  21.797  0.00  0.00    +0.000 A 
ATOM      4  C   UNL     1       1.101   8.074  21.219  0.00  0.00    +0.000 A 
ATOM      5  C   UNL     1       1.542   8.228  19.896  0.00  0.00    +0.000 A 
ATOM      6  C   UNL     1       1.081   9.324  19.152  0.00  0.00    +0.000 A 
ENDROOT
BRANCH   1  11
ATOM      7  C   UNL     1      -0.189  15.001  18.626  0.00  0.00    +0.000 C 
ATOM      8  N   UNL     1      -0.387  13.591  18.385  0.00  0.00    +0.000 N 
ATOM      9  C   UNL     1       0.160  12.709  19.287  0.00  0.00    +0.000 C 
ATOM     10  O   UNL     1       0.833  13.094  20.238  0.00  0.00    +0.000 OA
ATOM     11  N   UNL     1      -0.115  11.406  18.963  0.00  0.00    +0.000 N 
ATOM     12  H   UNL     1      -1.278  13.312  17.996  0.00  0.00    +0.000 HD
ATOM     13  H   UNL     1      -0.327  11.240  17.988  0.00  0.00    +0.000 HD
ENDBRANCH   1  11
BRANCH   5  14
ATOM     14  C   UNL     1       2.481   7.271  19.333  0.00  0.00    +0.000 A 
ATOM     15  C   UNL     1       3.034   7.091  18.091  0.00  0.00    +0.000 A 
ATOM     16  C   UNL     1       3.938   6.005  18.230  0.00  0.00    +0.000 A 
ATOM     17  N   UNL     1       3.881   5.530  19.484  0.00  0.00    +0.000 NA
ATOM     18  O   UNL     1       2.961   6.304  20.159  0.00  0.00    +0.000 OA
BRANCH  16  19
ATOM     19  C   UNL     1       4.847   5.454  17.218  0.00  0.00    +0.000 A 
ATOM     20  C   UNL     1       4.568   4.220  16.585  0.00  0.00    +0.000 A 
ATOM     21 CL   UNL     1       3.116   3.302  16.843  0.00  0.00    +0.000 Cl
ATOM     22  C   UNL     1       5.452   3.668  15.648  0.00  0.00    +0.000 A 
ATOM     23  C   UNL     1       6.611   4.345  15.289  0.00  0.00    +0.000 A 
ATOM     24  C   UNL     1       6.892   5.574  15.875  0.00  0.00    +0.000 A 
ATOM     25  C   UNL     1       6.030   6.123  16.837  0.00  0.00    +0.000 A 
ATOM     26 CL   UNL     1       6.557   7.626  17.526  0.00  0.00    +0.000 Cl
ENDBRANCH  16  19
ENDBRANCH   5  14
TORSDOF 3
ENDMDL
MODEL 9
REMARK VINA RESULT:      -7.3      4.427      9.143
REMARK  Name = 
REMARK  4 active torsions:
REMARK  status: ('A' for Active; 'I' for Inactive)
REMARK    1  A    between atoms: C_1  and  N_2
REMARK    2  A    between atoms: N_5  and  C_6
REMARK    3  A    between atoms: C_10  and  C_11
REMARK    4  A    between atoms: C_13  and  C_14
REMARK                            x       y       z     vdW  Elec       q    Type
REMARK                         _______ _______ _______ _____ _____    ______ ____
ROOT
ATOM      1  C   UNL     1       2.238   6.984  19.820  0.00  0.00    +0.000 A 
ATOM      2  C   UNL     1       2.710   7.068  18.507  0.00  0.00    +0.000 A 
ATOM      3  C   UNL     1       2.438   8.187  17.727  0.00  0.00    +0.000 A 
ATOM      4  C   UNL     1       1.698   9.237  18.260  0.00  0.00    +0.000 A 
ATOM      5  C   UNL     1       1.218   9.179  19.577  0.00  0.00    +0.000 A 
ATOM      6  C   UNL     1       1.466   8.028  20.338  0.00  0.00    +0.000 A 
ENDROOT
BRANCH   1  11
ATOM      7  C   UNL     1       1.613   2.563  21.749  0.00  0.00    +0.000 C 
ATOM      8  N   UNL     1       2.275   3.841  21.631  0.00  0.00    +0.000 N 
ATOM      9  C   UNL     1       1.828   4.701  20.655  0.00  0.00    +0.000 C 
ATOM     10  O   UNL     1       0.933   4.384  19.878  0.00  0.00    +0.000 OA
ATOM     11  N   UNL     1       2.518   5.885  20.659  0.00  0.00    +0.000 N 
ATOM     12  H   UNL     1       2.577   4.283  22.490  0.00  0.00    +0.000 HD
ATOM     13  H   UNL     1       3.440   5.845  21.072  0.00  0.00    +0.000 HD
ENDBRANCH   1  11
BRANCH   5  14
ATOM     14  C   UNL     1       0.502  10.316  20.134  0.00  0.00    +0.000 A 
ATOM     15  C   UNL     1       0.680  11.111  21.237  0.00  0.00    +0.000 A 
ATOM     16  C   UNL     1      -0.340  12.096  21.165  0.00  0.00    +0.000 A 
ATOM     17  N   UNL     1      -1.120  11.860  20.098  0.00  0.00    +0.000 NA
ATOM     18  O   UNL     1      -0.607  10.743  19.473  0.00  0.00    +0.000 OA
BRANCH  16  19
ATOM     19  C   UNL     1      -0.554  13.239  22.061  0.00  0.00    +0.000 A 
ATOM     20  C   UNL     1       0.211  14.421  21.929  0.00  0.00    +0.000 A 
ATOM     21 CL   UNL     1       1.376  14.688  20.667  0.00  0.00    +0.000 Cl
ATOM     22  C   UNL     1       0.040  15.499  22.807  0.00  0.00    +0.000 A 
ATOM     23  C   UNL     1      -0.919  15.446  23.810  0.00  0.00    +0.000 A 
ATOM     24  C   UNL     1      -1.706  14.307  23.941  0.00  0.00    +0.000 A 
ATOM     25  C   UNL     1      -1.524  13.208  23.088  0.00  0.00    +0.000 A 
ATOM     26 CL   UNL     1      -2.532  11.837  23.426  0.00  0.00    +0.000 Cl
ENDBRANCH  16  19
ENDBRANCH   5  14
TORSDOF 3
ENDMDL
