MODEL 1
REMARK VINA RESULT:      -5.6      0.000      0.000
REMARK  Name = 
REMARK  13 active torsions:
REMARK  status: ('A' for Active; 'I' for Inactive)
REMARK    1  A    between atoms: C_1  and  O_2
REMARK    2  A    between atoms: O_2  and  C_3
REMARK    3  A    between atoms: C_3  and  C_4
REMARK    4  A    between atoms: C_4  and  O_5
REMARK    5  A    between atoms: O_5  and  C_6
REMARK    6  A    between atoms: C_11  and  C_12
REMARK    7  A    between atoms: C_13  and  C_14
REMARK    8  A    between atoms: C_14  and  C_16
REMARK    9  A    between atoms: C_16  and  C_17
REMARK   10  A    between atoms: C_16  and  C_18
REMARK   11  A    between atoms: N_23  and  C_24
REMARK   12  A    between atoms: C_27  and  S_28
REMARK   13  A    between atoms: S_28  and  C_29
REMARK                            x       y       z     vdW  Elec       q    Type
REMARK                         _______ _______ _______ _____ _____    ______ ____
ROOT
ATOM      1  C   UNL     1      -0.055  11.802  20.286  0.00  0.00    +0.000 C 
ATOM      2  C   UNL     1      -0.363  10.789  19.122  0.00  0.00    +0.000 C 
ATOM      3  C   UNL     1       0.962  10.861  18.434  0.00  0.00    +0.000 C 
ATOM      4  O   UNL     1       1.557   9.959  17.897  0.00  0.00    +0.000 OA
ATOM      5  C   UNL     1       1.562  12.261  18.654  0.00  0.00    +0.000 C 
ATOM      6  O   UNL     1       2.473  12.750  17.978  0.00  0.00    +0.000 OA
ATOM      7  N   UNL     1       0.914  12.769  19.757  0.00  0.00    +0.000 N 
ENDROOT
BRANCH   1  13
ATOM      8  C   UNL     1      -1.535  12.294  22.320  0.00  0.00    +0.000 A 
ATOM      9  N   UNL     1      -2.723  12.698  22.854  0.00  0.00    +0.000 NA
ATOM     10  C   UNL     1      -3.625  13.256  22.058  0.00  0.00    +0.000 A 
ATOM     11  C   UNL     1      -3.387  13.582  20.754  0.00  0.00    +0.000 A 
ATOM     12  C   UNL     1      -2.175  13.163  20.222  0.00  0.00    +0.000 A 
ATOM     13  C   UNL     1      -1.243  12.438  20.978  0.00  0.00    +0.000 A 
BRANCH   8  14
ATOM     14  O   UNL     1      -0.666  11.644  23.177  0.00  0.00    +0.000 OA
BRANCH  14  15
ATOM     15  C   UNL     1      -0.958  10.238  23.156  0.00  0.00    +0.000 C 
BRANCH  15  16
ATOM     16  C   UNL     1       0.225   9.392  23.558  0.00  0.00    +0.000 C 
BRANCH  16  18
ATOM     17  C   UNL     1       1.315   8.623  21.622  0.00  0.00    +0.000 C 
ATOM     18  O   UNL     1       1.247   9.649  22.593  0.00  0.00    +0.000 OA
ENDBRANCH  16  18
ENDBRANCH  15  16
ENDBRANCH  14  15
ENDBRANCH   8  14
ENDBRANCH   1  13
BRANCH   7  19
ATOM     19  C   UNL     1       1.147  14.065  20.293  0.00  0.00    +0.000 A 
ATOM     20  C   UNL     1       1.934  14.207  21.447  0.00  0.00    +0.000 A 
ATOM     21  C   UNL     1       2.275  15.486  21.916  0.00  0.00    +0.000 A 
ATOM     22  C   UNL     1       1.865  16.644  21.237  0.00  0.00    +0.000 A 
ATOM     23  C   UNL     1       1.091  16.491  20.072  0.00  0.00    +0.000 A 
ATOM     24  C   UNL     1       0.746  15.214  19.617  0.00  0.00    +0.000 A 
BRANCH  22  25
ATOM     25  S   UNL     1       2.288  18.224  21.962  0.00  0.00    +0.000 S 
ATOM     26  C   UNL     1       4.046  18.053  22.387  0.00  0.00    +0.000 C 
ENDBRANCH  22  25
ENDBRANCH   7  19
BRANCH   2  27
ATOM     27  C   UNL     1      -1.440  11.118  18.083  0.00  0.00    +0.000 C 
ATOM     28  O   UNL     1      -1.375  12.192  17.454  0.00  0.00    +0.000 OA
BRANCH  27  29
ATOM     29  C   UNL     1      -2.539  10.074  17.757  0.00  0.00    +0.000 C 
ATOM     30  C   UNL     1      -3.965  10.634  17.943  0.00  0.00    +0.000 C 
ATOM     31  C   UNL     1      -2.501   9.709  16.275  0.00  0.00    +0.000 C 
ENDBRANCH  27  29
ENDBRANCH   2  27
TORSDOF 9
ENDMDL
MODEL 2
REMARK VINA RESULT:      -5.5      3.510      7.258
REMARK  Name = 
REMARK  13 active torsions:
REMARK  status: ('A' for Active; 'I' for Inactive)
REMARK    1  A    between atoms: C_1  and  O_2
REMARK    2  A    between atoms: O_2  and  C_3
REMARK    3  A    between atoms: C_3  and  C_4
REMARK    4  A    between atoms: C_4  and  O_5
REMARK    5  A    between atoms: O_5  and  C_6
REMARK    6  A    between atoms: C_11  and  C_12
REMARK    7  A    between atoms: C_13  and  C_14
REMARK    8  A    between atoms: C_14  and  C_16
REMARK    9  A    between atoms: C_16  and  C_17
REMARK   10  A    between atoms: C_16  and  C_18
REMARK   11  A    between atoms: N_23  and  C_24
REMARK   12  A    between atoms: C_27  and  S_28
REMARK   13  A    between atoms: S_28  and  C_29
REMARK                            x       y       z     vdW  Elec       q    Type
REMARK                         _______ _______ _______ _____ _____    ______ ____
ROOT
ATOM      1  C   UNL     1      -3.087  12.558  21.554  0.00  0.00    +0.000 C 
ATOM      2  C   UNL     1      -2.567  12.593  23.039  0.00  0.00    +0.000 C 
ATOM      3  C   UNL     1      -3.887  12.423  23.720  0.00  0.00    +0.000 C 
ATOM      4  O   UNL     1      -4.116  11.799  24.727  0.00  0.00    +0.000 OA
ATOM      5  C   UNL     1      -4.985  13.043  22.837  0.00  0.00    +0.000 C 
ATOM      6  O   UNL     1      -6.115  13.351  23.233  0.00  0.00    +0.000 OA
ATOM      7  N   UNL     1      -4.449  13.104  21.571  0.00  0.00    +0.000 N 
ENDROOT
BRANCH   1  13
ATOM      8  C   UNL     1      -1.639  12.476  19.440  0.00  0.00    +0.000 A 
ATOM      9  N   UNL     1      -0.671  13.011  18.643  0.00  0.00    +0.000 NA
ATOM     10  C   UNL     1      -0.252  14.246  18.886  0.00  0.00    +0.000 A 
ATOM     11  C   UNL     1      -0.828  15.075  19.805  0.00  0.00    +0.000 A 
ATOM     12  C   UNL     1      -1.811  14.517  20.612  0.00  0.00    +0.000 A 
ATOM     13  C   UNL     1      -2.191  13.172  20.497  0.00  0.00    +0.000 A 
BRANCH   8  14
ATOM     14  O   UNL     1      -1.979  11.159  19.194  0.00  0.00    +0.000 OA
BRANCH  14  15
ATOM     15  C   UNL     1      -1.170  10.665  18.115  0.00  0.00    +0.000 C 
BRANCH  15  16
ATOM     16  C   UNL     1      -1.983   9.972  17.049  0.00  0.00    +0.000 C 
BRANCH  16  18
ATOM     17  C   UNL     1      -3.878  11.029  16.145  0.00  0.00    +0.000 C 
ATOM     18  O   UNL     1      -2.465  11.001  16.182  0.00  0.00    +0.000 OA
ENDBRANCH  16  18
ENDBRANCH  15  16
ENDBRANCH  14  15
ENDBRANCH   8  14
ENDBRANCH   1  13
BRANCH   7  19
ATOM     19  C   UNL     1      -5.124  13.644  20.443  0.00  0.00    +0.000 A 
ATOM     20  C   UNL     1      -5.584  12.783  19.434  0.00  0.00    +0.000 A 
ATOM     21  C   UNL     1      -6.360  13.285  18.377  0.00  0.00    +0.000 A 
ATOM     22  C   UNL     1      -6.715  14.641  18.314  0.00  0.00    +0.000 A 
ATOM     23  C   UNL     1      -6.265  15.493  19.339  0.00  0.00    +0.000 A 
ATOM     24  C   UNL     1      -5.483  14.987  20.383  0.00  0.00    +0.000 A 
BRANCH  22  25
ATOM     25  S   UNL     1      -7.641  15.192  16.886  0.00  0.00    +0.000 S 
ATOM     26  C   UNL     1      -7.170  16.937  16.707  0.00  0.00    +0.000 C 
ENDBRANCH  22  25
ENDBRANCH   7  19
BRANCH   2  27
ATOM     27  C   UNL     1      -1.922  13.864  23.597  0.00  0.00    +0.000 C 
ATOM     28  O   UNL     1      -0.692  14.027  23.481  0.00  0.00    +0.000 OA
BRANCH  27  29
ATOM     29  C   UNL     1      -2.814  14.974  24.212  0.00  0.00    +0.000 C 
ATOM     30  C   UNL     1      -2.347  15.400  25.620  0.00  0.00    +0.000 C 
ATOM     31  C   UNL     1      -2.692  16.262  23.402  0.00  0.00    +0.000 C 
ENDBRANCH  27  29
ENDBRANCH   2  27
TORSDOF 9
ENDMDL
MODEL 3
REMARK VINA RESULT:      -5.4      0.704      1.116
REMARK  Name = 
REMARK  13 active torsions:
REMARK  status: ('A' for Active; 'I' for Inactive)
REMARK    1  A    between atoms: C_1  and  O_2
REMARK    2  A    between atoms: O_2  and  C_3
REMARK    3  A    between atoms: C_3  and  C_4
REMARK    4  A    between atoms: C_4  and  O_5
REMARK    5  A    between atoms: O_5  and  C_6
REMARK    6  A    between atoms: C_11  and  C_12
REMARK    7  A    between atoms: C_13  and  C_14
REMARK    8  A    between atoms: C_14  and  C_16
REMARK    9  A    between atoms: C_16  and  C_17
REMARK   10  A    between atoms: C_16  and  C_18
REMARK   11  A    between atoms: N_23  and  C_24
REMARK   12  A    between atoms: C_27  and  S_28
REMARK   13  A    between atoms: S_28  and  C_29
REMARK                            x       y       z     vdW  Elec       q    Type
REMARK                         _______ _______ _______ _____ _____    ______ ____
ROOT
ATOM      1  C   UNL     1       0.115  11.996  20.355  0.00  0.00    +0.000 C 
ATOM      2  C   UNL     1      -0.282  10.970  19.231  0.00  0.00    +0.000 C 
ATOM      3  C   UNL     1       1.029  10.936  18.514  0.00  0.00    +0.000 C 
ATOM      4  O   UNL     1       1.554   9.981  17.994  0.00  0.00    +0.000 OA
ATOM      5  C   UNL     1       1.721  12.301  18.677  0.00  0.00    +0.000 C 
ATOM      6  O   UNL     1       2.645  12.710  17.966  0.00  0.00    +0.000 OA
ATOM      7  N   UNL     1       1.131  12.883  19.775  0.00  0.00    +0.000 N 
ENDROOT
BRANCH   1  13
ATOM      8  C   UNL     1      -1.351  12.563  22.379  0.00  0.00    +0.000 A 
ATOM      9  N   UNL     1      -2.502  13.070  22.906  0.00  0.00    +0.000 NA
ATOM     10  C   UNL     1      -3.322  13.752  22.118  0.00  0.00    +0.000 A 
ATOM     11  C   UNL     1      -3.021  14.101  20.832  0.00  0.00    +0.000 A 
ATOM     12  C   UNL     1      -1.848  13.576  20.307  0.00  0.00    +0.000 A 
ATOM     13  C   UNL     1      -1.015  12.727  21.050  0.00  0.00    +0.000 A 
BRANCH   8  14
ATOM     14  O   UNL     1      -0.575  11.792  23.225  0.00  0.00    +0.000 OA
BRANCH  14  15
ATOM     15  C   UNL     1      -1.066  10.443  23.203  0.00  0.00    +0.000 C 
BRANCH  15  16
ATOM     16  C   UNL     1       0.044   9.421  23.179  0.00  0.00    +0.000 C 
BRANCH  16  18
ATOM     17  C   UNL     1       1.171   8.399  21.387  0.00  0.00    +0.000 C 
ATOM     18  O   UNL     1      -0.090   8.713  21.945  0.00  0.00    +0.000 OA
ENDBRANCH  16  18
ENDBRANCH  15  16
ENDBRANCH  14  15
ENDBRANCH   8  14
ENDBRANCH   1  13
BRANCH   7  19
ATOM     19  C   UNL     1       1.456  14.177  20.264  0.00  0.00    +0.000 A 
ATOM     20  C   UNL     1       1.074  15.312  19.530  0.00  0.00    +0.000 A 
ATOM     21  C   UNL     1       1.277  16.596  20.058  0.00  0.00    +0.000 A 
ATOM     22  C   UNL     1       1.838  16.780  21.331  0.00  0.00    +0.000 A 
ATOM     23  C   UNL     1       2.202  15.637  22.067  0.00  0.00    +0.000 A 
ATOM     24  C   UNL     1       2.006  14.361  21.529  0.00  0.00    +0.000 A 
BRANCH  22  25
ATOM     25  S   UNL     1       2.125  18.459  21.878  0.00  0.00    +0.000 S 
ATOM     26  C   UNL     1       1.235  18.562  23.459  0.00  0.00    +0.000 C 
ENDBRANCH  22  25
ENDBRANCH   7  19
BRANCH   2  27
ATOM     27  C   UNL     1      -1.359  11.334  18.204  0.00  0.00    +0.000 C 
ATOM     28  O   UNL     1      -1.208  12.346  17.493  0.00  0.00    +0.000 OA
BRANCH  27  29
ATOM     29  C   UNL     1      -2.571  10.390  17.993  0.00  0.00    +0.000 C 
ATOM     30  C   UNL     1      -3.922  11.133  18.062  0.00  0.00    +0.000 C 
ATOM     31  C   UNL     1      -2.561   9.822  16.575  0.00  0.00    +0.000 C 
ENDBRANCH  27  29
ENDBRANCH   2  27
TORSDOF 9
ENDMDL
MODEL 4
REMARK VINA RESULT:      -5.4      2.887      5.428
REMARK  Name = 
REMARK  13 active torsions:
REMARK  status: ('A' for Active; 'I' for Inactive)
REMARK    1  A    between atoms: C_1  and  O_2
REMARK    2  A    between atoms: O_2  and  C_3
REMARK    3  A    between atoms: C_3  and  C_4
REMARK    4  A    between atoms: C_4  and  O_5
REMARK    5  A    between atoms: O_5  and  C_6
REMARK    6  A    between atoms: C_11  and  C_12
REMARK    7  A    between atoms: C_13  and  C_14
REMARK    8  A    between atoms: C_14  and  C_16
REMARK    9  A    between atoms: C_16  and  C_17
REMARK   10  A    between atoms: C_16  and  C_18
REMARK   11  A    between atoms: N_23  and  C_24
REMARK   12  A    between atoms: C_27  and  S_28
REMARK   13  A    between atoms: S_28  and  C_29
REMARK                            x       y       z     vdW  Elec       q    Type
REMARK                         _______ _______ _______ _____ _____    ______ ____
ROOT
ATOM      1  C   UNL     1       0.410  12.756  21.143  0.00  0.00    +0.000 C 
ATOM      2  C   UNL     1       1.651  13.577  20.632  0.00  0.00    +0.000 C 
ATOM      3  C   UNL     1       1.789  14.490  21.808  0.00  0.00    +0.000 C 
ATOM      4  O   UNL     1       2.812  14.900  22.300  0.00  0.00    +0.000 OA
ATOM      5  C   UNL     1       0.399  14.713  22.430  0.00  0.00    +0.000 C 
ATOM      6  O   UNL     1       0.113  15.638  23.198  0.00  0.00    +0.000 OA
ATOM      7  N   UNL     1      -0.373  13.661  21.993  0.00  0.00    +0.000 N 
ENDROOT
BRANCH   1  13
ATOM      8  C   UNL     1      -0.477  10.655  19.973  0.00  0.00    +0.000 A 
ATOM      9  N   UNL     1      -1.048  10.050  18.893  0.00  0.00    +0.000 NA
ATOM     10  C   UNL     1      -1.566  10.806  17.935  0.00  0.00    +0.000 A 
ATOM     11  C   UNL     1      -1.689  12.163  18.024  0.00  0.00    +0.000 A 
ATOM     12  C   UNL     1      -1.102  12.767  19.127  0.00  0.00    +0.000 A 
ATOM     13  C   UNL     1      -0.412  12.029  20.098  0.00  0.00    +0.000 A 
BRANCH   8  14
ATOM     14  O   UNL     1       0.120   9.821  20.901  0.00  0.00    +0.000 OA
BRANCH  14  15
ATOM     15  C   UNL     1       1.046   8.959  20.221  0.00  0.00    +0.000 C 
BRANCH  15  16
ATOM     16  C   UNL     1       1.614   7.890  21.121  0.00  0.00    +0.000 C 
BRANCH  16  18
ATOM     17  C   UNL     1       2.715   6.448  19.627  0.00  0.00    +0.000 C 
ATOM     18  O   UNL     1       1.542   6.668  20.386  0.00  0.00    +0.000 OA
ENDBRANCH  16  18
ENDBRANCH  15  16
ENDBRANCH  14  15
ENDBRANCH   8  14
ENDBRANCH   1  13
BRANCH   7  19
ATOM     19  C   UNL     1      -1.748  13.493  22.312  0.00  0.00    +0.000 A 
ATOM     20  C   UNL     1      -2.134  12.478  23.202  0.00  0.00    +0.000 A 
ATOM     21  C   UNL     1      -3.469  12.378  23.622  0.00  0.00    +0.000 A 
ATOM     22  C   UNL     1      -4.440  13.295  23.191  0.00  0.00    +0.000 A 
ATOM     23  C   UNL     1      -4.040  14.319  22.313  0.00  0.00    +0.000 A 
ATOM     24  C   UNL     1      -2.710  14.406  21.889  0.00  0.00    +0.000 A 
BRANCH  22  25
ATOM     25  S   UNL     1      -6.127  13.032  23.725  0.00  0.00    +0.000 S 
ATOM     26  C   UNL     1      -7.009  14.503  23.125  0.00  0.00    +0.000 C 
ENDBRANCH  22  25
ENDBRANCH   7  19
BRANCH   2  27
ATOM     27  C   UNL     1       1.531  14.453  19.381  0.00  0.00    +0.000 C 
ATOM     28  O   UNL     1       0.853  15.498  19.430  0.00  0.00    +0.000 OA
BRANCH  27  29
ATOM     29  C   UNL     1       2.327  14.082  18.103  0.00  0.00    +0.000 C 
ATOM     30  C   UNL     1       3.754  14.670  18.100  0.00  0.00    +0.000 C 
ATOM     31  C   UNL     1       2.574  12.577  18.049  0.00  0.00    +0.000 C 
ENDBRANCH  27  29
ENDBRANCH   2  27
TORSDOF 9
ENDMDL
MODEL 5
REMARK VINA RESULT:      -5.3      3.085      6.088
REMARK  Name = 
REMARK  13 active torsions:
REMARK  status: ('A' for Active; 'I' for Inactive)
REMARK    1  A    between atoms: C_1  and  O_2
REMARK    2  A    between atoms: O_2  and  C_3
REMARK    3  A    between atoms: C_3  and  C_4
REMARK    4  A    between atoms: C_4  and  O_5
REMARK    5  A    between atoms: O_5  and  C_6
REMARK    6  A    between atoms: C_11  and  C_12
REMARK    7  A    between atoms: C_13  and  C_14
REMARK    8  A    between atoms: C_14  and  C_16
REMARK    9  A    between atoms: C_16  and  C_17
REMARK   10  A    between atoms: C_16  and  C_18
REMARK   11  A    between atoms: N_23  and  C_24
REMARK   12  A    between atoms: C_27  and  S_28
REMARK   13  A    between atoms: S_28  and  C_29
REMARK                            x       y       z     vdW  Elec       q    Type
REMARK                         _______ _______ _______ _____ _____    ______ ____
ROOT
ATOM      1  C   UNL     1      -0.304  13.592  21.570  0.00  0.00    +0.000 C 
ATOM      2  C   UNL     1       1.083  14.320  21.431  0.00  0.00    +0.000 C 
ATOM      3  C   UNL     1       0.622  15.482  20.612  0.00  0.00    +0.000 C 
ATOM      4  O   UNL     1       1.005  16.624  20.680  0.00  0.00    +0.000 OA
ATOM      5  C   UNL     1      -0.572  15.038  19.747  0.00  0.00    +0.000 C 
ATOM      6  O   UNL     1      -0.980  15.642  18.750  0.00  0.00    +0.000 OA
ATOM      7  N   UNL     1      -1.071  13.911  20.360  0.00  0.00    +0.000 N 
ENDROOT
BRANCH   1  13
ATOM      8  C   UNL     1      -0.873  11.555  23.019  0.00  0.00    +0.000 A 
ATOM      9  N   UNL     1      -0.640  10.267  23.399  0.00  0.00    +0.000 NA
ATOM     10  C   UNL     1       0.182   9.523  22.671  0.00  0.00    +0.000 A 
ATOM     11  C   UNL     1       0.709   9.923  21.477  0.00  0.00    +0.000 A 
ATOM     12  C   UNL     1       0.466  11.238  21.102  0.00  0.00    +0.000 A 
ATOM     13  C   UNL     1      -0.275  12.115  21.907  0.00  0.00    +0.000 A 
BRANCH   8  14
ATOM     14  O   UNL     1      -1.672  12.309  23.859  0.00  0.00    +0.000 OA
BRANCH  14  15
ATOM     15  C   UNL     1      -3.049  12.031  23.562  0.00  0.00    +0.000 C 
BRANCH  15  16
ATOM     16  C   UNL     1      -4.000  12.747  24.488  0.00  0.00    +0.000 C 
BRANCH  16  18
ATOM     17  C   UNL     1      -6.311  12.683  24.060  0.00  0.00    +0.000 C 
ATOM     18  O   UNL     1      -5.191  11.958  24.529  0.00  0.00    +0.000 OA
ENDBRANCH  16  18
ENDBRANCH  15  16
ENDBRANCH  14  15
ENDBRANCH   8  14
ENDBRANCH   1  13
BRANCH   7  19
ATOM     19  C   UNL     1      -2.169  13.156  19.869  0.00  0.00    +0.000 A 
ATOM     20  C   UNL     1      -3.452  13.374  20.396  0.00  0.00    +0.000 A 
ATOM     21  C   UNL     1      -4.565  12.727  19.837  0.00  0.00    +0.000 A 
ATOM     22  C   UNL     1      -4.432  11.873  18.731  0.00  0.00    +0.000 A 
ATOM     23  C   UNL     1      -3.145  11.674  18.199  0.00  0.00    +0.000 A 
ATOM     24  C   UNL     1      -2.040  12.314  18.768  0.00  0.00    +0.000 A 
BRANCH  22  25
ATOM     25  S   UNL     1      -5.902  11.038  18.145  0.00  0.00    +0.000 S 
ATOM     26  C   UNL     1      -7.261  11.913  18.974  0.00  0.00    +0.000 C 
ENDBRANCH  22  25
ENDBRANCH   7  19
BRANCH   2  27
ATOM     27  C   UNL     1       2.231  13.649  20.672  0.00  0.00    +0.000 C 
ATOM     28  O   UNL     1       3.051  12.949  21.296  0.00  0.00    +0.000 OA
BRANCH  27  29
ATOM     29  C   UNL     1       2.305  13.768  19.127  0.00  0.00    +0.000 C 
ATOM     30  C   UNL     1       3.647  14.351  18.639  0.00  0.00    +0.000 C 
ATOM     31  C   UNL     1       2.276  12.382  18.486  0.00  0.00    +0.000 C 
ENDBRANCH  27  29
ENDBRANCH   2  27
TORSDOF 9
ENDMDL
MODEL 6
REMARK VINA RESULT:      -5.3      2.798      5.261
REMARK  Name = 
REMARK  13 active torsions:
REMARK  status: ('A' for Active; 'I' for Inactive)
REMARK    1  A    between atoms: C_1  and  O_2
REMARK    2  A    between atoms: O_2  and  C_3
REMARK    3  A    between atoms: C_3  and  C_4
REMARK    4  A    between atoms: C_4  and  O_5
REMARK    5  A    between atoms: O_5  and  C_6
REMARK    6  A    between atoms: C_11  and  C_12
REMARK    7  A    between atoms: C_13  and  C_14
REMARK    8  A    between atoms: C_14  and  C_16
REMARK    9  A    between atoms: C_16  and  C_17
REMARK   10  A    between atoms: C_16  and  C_18
REMARK   11  A    between atoms: N_23  and  C_24
REMARK   12  A    between atoms: C_27  and  S_28
REMARK   13  A    between atoms: S_28  and  C_29
REMARK                            x       y       z     vdW  Elec       q    Type
REMARK                         _______ _______ _______ _____ _____    ______ ____
ROOT
ATOM      1  C   UNL     1      -0.593  14.202  20.037  0.00  0.00    +0.000 C 
ATOM      2  C   UNL     1      -1.638  14.545  21.161  0.00  0.00    +0.000 C 
ATOM      3  C   UNL     1      -1.355  16.010  21.261  0.00  0.00    +0.000 C 
ATOM      4  O   UNL     1      -2.149  16.897  21.456  0.00  0.00    +0.000 OA
ATOM      5  C   UNL     1       0.122  16.256  20.905  0.00  0.00    +0.000 C 
ATOM      6  O   UNL     1       0.751  17.282  21.186  0.00  0.00    +0.000 OA
ATOM      7  N   UNL     1       0.517  15.149  20.190  0.00  0.00    +0.000 N 
ENDROOT
BRANCH   1  13
ATOM      8  C   UNL     1      -0.692  11.845  19.033  0.00  0.00    +0.000 A 
ATOM      9  N   UNL     1      -0.428  10.510  19.111  0.00  0.00    +0.000 NA
ATOM     10  C   UNL     1       0.380  10.072  20.068  0.00  0.00    +0.000 A 
ATOM     11  C   UNL     1       1.079  10.894  20.904  0.00  0.00    +0.000 A 
ATOM     12  C   UNL     1       0.799  12.250  20.816  0.00  0.00    +0.000 A 
ATOM     13  C   UNL     1      -0.156  12.755  19.922  0.00  0.00    +0.000 A 
BRANCH   8  14
ATOM     14  O   UNL     1      -1.605  12.236  18.070  0.00  0.00    +0.000 OA
BRANCH  14  15
ATOM     15  C   UNL     1      -2.865  11.605  18.342  0.00  0.00    +0.000 C 
BRANCH  15  16
ATOM     16  C   UNL     1      -3.632  11.271  17.087  0.00  0.00    +0.000 C 
BRANCH  16  18
ATOM     17  C   UNL     1      -2.938  10.253  15.084  0.00  0.00    +0.000 C 
ATOM     18  O   UNL     1      -2.963  10.155  16.495  0.00  0.00    +0.000 OA
ENDBRANCH  16  18
ENDBRANCH  15  16
ENDBRANCH  14  15
ENDBRANCH   8  14
ENDBRANCH   1  13
BRANCH   7  19
ATOM     19  C   UNL     1       1.832  14.951  19.687  0.00  0.00    +0.000 A 
ATOM     20  C   UNL     1       2.064  15.025  18.304  0.00  0.00    +0.000 A 
ATOM     21  C   UNL     1       3.374  14.955  17.803  0.00  0.00    +0.000 A 
ATOM     22  C   UNL     1       4.477  14.837  18.662  0.00  0.00    +0.000 A 
ATOM     23  C   UNL     1       4.236  14.782  20.047  0.00  0.00    +0.000 A 
ATOM     24  C   UNL     1       2.928  14.841  20.538  0.00  0.00    +0.000 A 
BRANCH  22  25
ATOM     25  S   UNL     1       6.096  14.679  17.917  0.00  0.00    +0.000 S 
ATOM     26  C   UNL     1       7.241  14.904  19.310  0.00  0.00    +0.000 C 
ENDBRANCH  22  25
ENDBRANCH   7  19
BRANCH   2  27
ATOM     27  C   UNL     1      -1.481  13.950  22.564  0.00  0.00    +0.000 C 
ATOM     28  O   UNL     1      -0.598  14.395  23.322  0.00  0.00    +0.000 OA
BRANCH  27  29
ATOM     29  C   UNL     1      -2.480  12.872  23.058  0.00  0.00    +0.000 C 
ATOM     30  C   UNL     1      -3.653  12.655  22.080  0.00  0.00    +0.000 C 
ATOM     31  C   UNL     1      -1.806  11.503  23.098  0.00  0.00    +0.000 C 
ENDBRANCH  27  29
ENDBRANCH   2  27
TORSDOF 9
ENDMDL
MODEL 7
REMARK VINA RESULT:      -5.2      2.723      5.465
REMARK  Name = 
REMARK  13 active torsions:
REMARK  status: ('A' for Active; 'I' for Inactive)
REMARK    1  A    between atoms: C_1  and  O_2
REMARK    2  A    between atoms: O_2  and  C_3
REMARK    3  A    between atoms: C_3  and  C_4
REMARK    4  A    between atoms: C_4  and  O_5
REMARK    5  A    between atoms: O_5  and  C_6
REMARK    6  A    between atoms: C_11  and  C_12
REMARK    7  A    between atoms: C_13  and  C_14
REMARK    8  A    between atoms: C_14  and  C_16
REMARK    9  A    between atoms: C_16  and  C_17
REMARK   10  A    between atoms: C_16  and  C_18
REMARK   11  A    between atoms: N_23  and  C_24
REMARK   12  A    between atoms: C_27  and  S_28
REMARK   13  A    between atoms: S_28  and  C_29
REMARK                            x       y       z     vdW  Elec       q    Type
REMARK                         _______ _______ _______ _____ _____    ______ ____
ROOT
ATOM      1  C   UNL     1       0.351  12.665  21.073  0.00  0.00    +0.000 C 
ATOM      2  C   UNL     1       1.619  13.447  20.567  0.00  0.00    +0.000 C 
ATOM      3  C   UNL     1       1.758  14.380  21.726  0.00  0.00    +0.000 C 
ATOM      4  O   UNL     1       2.782  14.777  22.228  0.00  0.00    +0.000 OA
ATOM      5  C   UNL     1       0.364  14.647  22.320  0.00  0.00    +0.000 C 
ATOM      6  O   UNL     1       0.086  15.593  23.065  0.00  0.00    +0.000 OA
ATOM      7  N   UNL     1      -0.425  13.604  21.890  0.00  0.00    +0.000 N 
ENDROOT
BRANCH   1  13
ATOM      8  C   UNL     1      -0.540  10.561  19.909  0.00  0.00    +0.000 A 
ATOM      9  N   UNL     1      -1.109   9.953  18.830  0.00  0.00    +0.000 NA
ATOM     10  C   UNL     1      -1.620  10.706  17.866  0.00  0.00    +0.000 A 
ATOM     11  C   UNL     1      -1.739  12.064  17.948  0.00  0.00    +0.000 A 
ATOM     12  C   UNL     1      -1.153  12.671  19.051  0.00  0.00    +0.000 A 
ATOM     13  C   UNL     1      -0.469  11.935  20.028  0.00  0.00    +0.000 A 
BRANCH   8  14
ATOM     14  O   UNL     1       0.051   9.730  20.844  0.00  0.00    +0.000 OA
BRANCH  14  15
ATOM     15  C   UNL     1       1.360   9.367  20.380  0.00  0.00    +0.000 C 
BRANCH  15  16
ATOM     16  C   UNL     1       1.549   7.874  20.278  0.00  0.00    +0.000 C 
BRANCH  16  18
ATOM     17  C   UNL     1       2.041   8.263  18.013  0.00  0.00    +0.000 C 
ATOM     18  O   UNL     1       2.478   7.659  19.215  0.00  0.00    +0.000 OA
ENDBRANCH  16  18
ENDBRANCH  15  16
ENDBRANCH  14  15
ENDBRANCH   8  14
ENDBRANCH   1  13
BRANCH   7  19
ATOM     19  C   UNL     1      -1.808  13.474  22.189  0.00  0.00    +0.000 A 
ATOM     20  C   UNL     1      -2.231  12.495  23.103  0.00  0.00    +0.000 A 
ATOM     21  C   UNL     1      -3.575  12.435  23.502  0.00  0.00    +0.000 A 
ATOM     22  C   UNL     1      -4.519  13.357  23.024  0.00  0.00    +0.000 A 
ATOM     23  C   UNL     1      -4.083  14.345  22.122  0.00  0.00    +0.000 A 
ATOM     24  C   UNL     1      -2.743  14.391  21.721  0.00  0.00    +0.000 A 
BRANCH  22  25
ATOM     25  S   UNL     1      -6.220  13.145  23.535  0.00  0.00    +0.000 S 
ATOM     26  C   UNL     1      -6.800  14.840  23.837  0.00  0.00    +0.000 C 
ENDBRANCH  22  25
ENDBRANCH   7  19
BRANCH   2  27
ATOM     27  C   UNL     1       1.540  14.300  19.297  0.00  0.00    +0.000 C 
ATOM     28  O   UNL     1       1.738  13.767  18.189  0.00  0.00    +0.000 OA
BRANCH  27  29
ATOM     29  C   UNL     1       1.120  15.790  19.396  0.00  0.00    +0.000 C 
ATOM     30  C   UNL     1       2.029  16.720  18.566  0.00  0.00    +0.000 C 
ATOM     31  C   UNL     1      -0.255  15.997  18.766  0.00  0.00    +0.000 C 
ENDBRANCH  27  29
ENDBRANCH   2  27
TORSDOF 9
ENDMDL
MODEL 8
REMARK VINA RESULT:      -5.2      2.717      5.431
REMARK  Name = 
REMARK  13 active torsions:
REMARK  status: ('A' for Active; 'I' for Inactive)
REMARK    1  A    between atoms: C_1  and  O_2
REMARK    2  A    between atoms: O_2  and  C_3
REMARK    3  A    between atoms: C_3  and  C_4
REMARK    4  A    between atoms: C_4  and  O_5
REMARK    5  A    between atoms: O_5  and  C_6
REMARK    6  A    between atoms: C_11  and  C_12
REMARK    7  A    between atoms: C_13  and  C_14
REMARK    8  A    between atoms: C_14  and  C_16
REMARK    9  A    between atoms: C_16  and  C_17
REMARK   10  A    between atoms: C_16  and  C_18
REMARK   11  A    between atoms: N_23  and  C_24
REMARK   12  A    between atoms: C_27  and  S_28
REMARK   13  A    between atoms: S_28  and  C_29
REMARK                            x       y       z     vdW  Elec       q    Type
REMARK                         _______ _______ _______ _____ _____    ______ ____
ROOT
ATOM      1  C   UNL     1       0.661  12.552  20.909  0.00  0.00    +0.000 C 
ATOM      2  C   UNL     1       1.926  13.278  20.319  0.00  0.00    +0.000 C 
ATOM      3  C   UNL     1       2.171  14.216  21.456  0.00  0.00    +0.000 C 
ATOM      4  O   UNL     1       3.237  14.577  21.891  0.00  0.00    +0.000 OA
ATOM      5  C   UNL     1       0.826  14.544  22.129  0.00  0.00    +0.000 C 
ATOM      6  O   UNL     1       0.631  15.508  22.877  0.00  0.00    +0.000 OA
ATOM      7  N   UNL     1      -0.027  13.529  21.760  0.00  0.00    +0.000 N 
ENDROOT
BRANCH   1  13
ATOM      8  C   UNL     1      -0.242  10.484  19.693  0.00  0.00    +0.000 A 
ATOM      9  N   UNL     1      -0.916   9.920  18.651  0.00  0.00    +0.000 NA
ATOM     10  C   UNL     1      -1.610  10.705  17.838  0.00  0.00    +0.000 A 
ATOM     11  C   UNL     1      -1.807  12.038  18.057  0.00  0.00    +0.000 A 
ATOM     12  C   UNL     1      -1.113  12.600  19.120  0.00  0.00    +0.000 A 
ATOM     13  C   UNL     1      -0.249  11.845  19.925  0.00  0.00    +0.000 A 
BRANCH   8  14
ATOM     14  O   UNL     1       0.530   9.630  20.459  0.00  0.00    +0.000 OA
BRANCH  14  15
ATOM     15  C   UNL     1       1.405   8.892  19.592  0.00  0.00    +0.000 C 
BRANCH  15  16
ATOM     16  C   UNL     1       1.926   7.628  20.231  0.00  0.00    +0.000 C 
BRANCH  16  18
ATOM     17  C   UNL     1       2.824   7.532  18.060  0.00  0.00    +0.000 C 
ATOM     18  O   UNL     1       2.345   6.781  19.159  0.00  0.00    +0.000 OA
ENDBRANCH  16  18
ENDBRANCH  15  16
ENDBRANCH  14  15
ENDBRANCH   8  14
ENDBRANCH   1  13
BRANCH   7  19
ATOM     19  C   UNL     1      -1.394  13.457  22.142  0.00  0.00    +0.000 A 
ATOM     20  C   UNL     1      -2.321  14.344  21.573  0.00  0.00    +0.000 A 
ATOM     21  C   UNL     1      -3.691  14.205  21.845  0.00  0.00    +0.000 A 
ATOM     22  C   UNL     1      -4.170  13.171  22.664  0.00  0.00    +0.000 A 
ATOM     23  C   UNL     1      -3.235  12.276  23.216  0.00  0.00    +0.000 A 
ATOM     24  C   UNL     1      -1.871  12.428  22.949  0.00  0.00    +0.000 A 
BRANCH  22  25
ATOM     25  S   UNL     1      -5.925  13.129  23.009  0.00  0.00    +0.000 S 
ATOM     26  C   UNL     1      -6.275  14.776  23.691  0.00  0.00    +0.000 C 
ENDBRANCH  22  25
ENDBRANCH   7  19
BRANCH   2  27
ATOM     27  C   UNL     1       1.804  14.120  19.046  0.00  0.00    +0.000 C 
ATOM     28  O   UNL     1       1.929  13.571  17.934  0.00  0.00    +0.000 OA
BRANCH  27  29
ATOM     29  C   UNL     1       1.430  15.622  19.150  0.00  0.00    +0.000 C 
ATOM     30  C   UNL     1       2.221  16.501  18.159  0.00  0.00    +0.000 C 
ATOM     31  C   UNL     1      -0.020  15.839  18.724  0.00  0.00    +0.000 C 
ENDBRANCH  27  29
ENDBRANCH   2  27
TORSDOF 9
ENDMDL
MODEL 9
REMARK VINA RESULT:      -5.2      3.428      6.945
REMARK  Name = 
REMARK  13 active torsions:
REMARK  status: ('A' for Active; 'I' for Inactive)
REMARK    1  A    between atoms: C_1  and  O_2
REMARK    2  A    between atoms: O_2  and  C_3
REMARK    3  A    between atoms: C_3  and  C_4
REMARK    4  A    between atoms: C_4  and  O_5
REMARK    5  A    between atoms: O_5  and  C_6
REMARK    6  A    between atoms: C_11  and  C_12
REMARK    7  A    between atoms: C_13  and  C_14
REMARK    8  A    between atoms: C_14  and  C_16
REMARK    9  A    between atoms: C_16  and  C_17
REMARK   10  A    between atoms: C_16  and  C_18
REMARK   11  A    between atoms: N_23  and  C_24
REMARK   12  A    between atoms: C_27  and  S_28
REMARK   13  A    between atoms: S_28  and  C_29
REMARK                            x       y       z     vdW  Elec       q    Type
REMARK                         _______ _______ _______ _____ _____    ______ ____
ROOT
ATOM      1  C   UNL     1      -3.158  12.810  21.633  0.00  0.00    +0.000 C 
ATOM      2  C   UNL     1      -2.619  12.693  23.106  0.00  0.00    +0.000 C 
ATOM      3  C   UNL     1      -3.940  12.568  23.796  0.00  0.00    +0.000 C 
ATOM      4  O   UNL     1      -4.202  11.887  24.757  0.00  0.00    +0.000 OA
ATOM      5  C   UNL     1      -5.000  13.331  22.982  0.00  0.00    +0.000 C 
ATOM      6  O   UNL     1      -6.099  13.689  23.420  0.00  0.00    +0.000 OA
ATOM      7  N   UNL     1      -4.476  13.450  21.716  0.00  0.00    +0.000 N 
ENDROOT
BRANCH   1  13
ATOM      8  C   UNL     1      -1.548  12.731  19.640  0.00  0.00    +0.000 A 
ATOM      9  N   UNL     1      -0.565  13.299  18.885  0.00  0.00    +0.000 NA
ATOM     10  C   UNL     1      -0.263  14.575  19.083  0.00  0.00    +0.000 A 
ATOM     11  C   UNL     1      -0.971  15.403  19.905  0.00  0.00    +0.000 A 
ATOM     12  C   UNL     1      -1.968  14.811  20.670  0.00  0.00    +0.000 A 
ATOM     13  C   UNL     1      -2.233  13.436  20.609  0.00  0.00    +0.000 A 
BRANCH   8  14
ATOM     14  O   UNL     1      -1.766  11.378  19.449  0.00  0.00    +0.000 OA
BRANCH  14  15
ATOM     15  C   UNL     1      -0.500  10.700  19.455  0.00  0.00    +0.000 C 
BRANCH  15  16
ATOM     16  C   UNL     1      -0.374   9.713  20.589  0.00  0.00    +0.000 C 
BRANCH  16  18
ATOM     17  C   UNL     1       1.277   9.139  22.161  0.00  0.00    +0.000 C 
ATOM     18  O   UNL     1       1.025   9.563  20.835  0.00  0.00    +0.000 OA
ENDBRANCH  16  18
ENDBRANCH  15  16
ENDBRANCH  14  15
ENDBRANCH   8  14
ENDBRANCH   1  13
BRANCH   7  19
ATOM     19  C   UNL     1      -5.124  14.122  20.644  0.00  0.00    +0.000 A 
ATOM     20  C   UNL     1      -5.758  13.373  19.639  0.00  0.00    +0.000 A 
ATOM     21  C   UNL     1      -6.506  14.020  18.642  0.00  0.00    +0.000 A 
ATOM     22  C   UNL     1      -6.662  15.414  18.638  0.00  0.00    +0.000 A 
ATOM     23  C   UNL     1      -6.038  16.154  19.659  0.00  0.00    +0.000 A 
ATOM     24  C   UNL     1      -5.285  15.504  20.642  0.00  0.00    +0.000 A 
BRANCH  22  25
ATOM     25  S   UNL     1      -7.571  16.144  17.281  0.00  0.00    +0.000 S 
ATOM     26  C   UNL     1      -7.654  14.814  16.046  0.00  0.00    +0.000 C 
ENDBRANCH  22  25
ENDBRANCH   7  19
BRANCH   2  27
ATOM     27  C   UNL     1      -1.875  13.868  23.747  0.00  0.00    +0.000 C 
ATOM     28  O   UNL     1      -0.652  13.999  23.548  0.00  0.00    +0.000 OA
BRANCH  27  29
ATOM     29  C   UNL     1      -2.665  14.931  24.554  0.00  0.00    +0.000 C 
ATOM     30  C   UNL     1      -1.912  15.399  25.817  0.00  0.00    +0.000 C 
ATOM     31  C   UNL     1      -2.808  16.216  23.741  0.00  0.00    +0.000 C 
ENDBRANCH  27  29
ENDBRANCH   2  27
TORSDOF 9
ENDMDL
