MODEL 1
REMARK VINA RESULT:      -8.6      0.000      0.000
REMARK  Name = 
REMARK  2 active torsions:
REMARK  status: ('A' for Active; 'I' for Inactive)
REMARK    1  A    between atoms: C_1  and  C_16
REMARK    2  A    between atoms: C_2  and  C_3
REMARK                            x       y       z     vdW  Elec       q    Type
REMARK                         _______ _______ _______ _____ _____    ______ ____
ROOT
ATOM      1  C   UNL     1       4.256   4.985  17.505  0.00  0.00    +0.000 A 
ATOM      2  N   UNL     1       4.235   3.865  18.167  0.00  0.00    +0.000 NA
ATOM      3  C   UNL     1       3.496   3.790  19.369  0.00  0.00    +0.000 A 
ATOM      4  C   UNL     1       3.497   2.585  20.074  0.00  0.00    +0.000 A 
ATOM      5  C   UNL     1       2.792   2.461  21.274  0.00  0.00    +0.000 A 
ATOM      6  C   UNL     1       2.074   3.544  21.783  0.00  0.00    +0.000 A 
ATOM      7  C   UNL     1       2.056   4.758  21.097  0.00  0.00    +0.000 A 
ATOM      8  C   UNL     1       2.769   4.870  19.899  0.00  0.00    +0.000 A 
ATOM      9  N   UNL     1       2.810   6.062  19.153  0.00  0.00    +0.000 N 
ATOM     10  C   UNL     1       2.208   7.273  19.397  0.00  0.00    +0.000 A 
ATOM     11  C   UNL     1       2.533   8.130  18.369  0.00  0.00    +0.000 A 
ATOM     12  C   UNL     1       3.360   7.418  17.471  0.00  0.00    +0.000 A 
ATOM     13  C   UNL     1       3.529   6.142  17.981  0.00  0.00    +0.000 A 
ENDROOT
BRANCH   1  15
ATOM     14  C   UNL     1       5.385   4.078  15.503  0.00  0.00    +0.000 C 
ATOM     15  C   UNL     1       5.049   5.137  16.253  0.00  0.00    +0.000 C 
BRANCH  14  16
ATOM     16  C   UNL     1       6.087   4.194  14.215  0.00  0.00    +0.000 A 
ATOM     17  C   UNL     1       5.717   3.455  13.082  0.00  0.00    +0.000 A 
ATOM     18  C   UNL     1       6.433   3.571  11.888  0.00  0.00    +0.000 A 
ATOM     19  C   UNL     1       7.516   4.443  11.806  0.00  0.00    +0.000 A 
ATOM     20  C   UNL     1       7.875   5.207  12.914  0.00  0.00    +0.000 A 
ATOM     21  C   UNL     1       7.161   5.086  14.110  0.00  0.00    +0.000 A 
ENDBRANCH  14  16
ENDBRANCH   1  15
TORSDOF 2
ENDMDL
MODEL 2
REMARK VINA RESULT:      -8.6      0.079      1.054
REMARK  Name = 
REMARK  2 active torsions:
REMARK  status: ('A' for Active; 'I' for Inactive)
REMARK    1  A    between atoms: C_1  and  C_16
REMARK    2  A    between atoms: C_2  and  C_3
REMARK                            x       y       z     vdW  Elec       q    Type
REMARK                         _______ _______ _______ _____ _____    ______ ____
ROOT
ATOM      1  C   UNL     1       4.364   4.977  17.559  0.00  0.00    +0.000 A 
ATOM      2  N   UNL     1       4.328   3.864  18.232  0.00  0.00    +0.000 NA
ATOM      3  C   UNL     1       3.540   3.793  19.403  0.00  0.00    +0.000 A 
ATOM      4  C   UNL     1       3.525   2.596  20.121  0.00  0.00    +0.000 A 
ATOM      5  C   UNL     1       2.771   2.477  21.292  0.00  0.00    +0.000 A 
ATOM      6  C   UNL     1       2.020   3.557  21.758  0.00  0.00    +0.000 A 
ATOM      7  C   UNL     1       2.018   4.764  21.058  0.00  0.00    +0.000 A 
ATOM      8  C   UNL     1       2.779   4.871  19.890  0.00  0.00    +0.000 A 
ATOM      9  N   UNL     1       2.838   6.054  19.132  0.00  0.00    +0.000 N 
ATOM     10  C   UNL     1       2.212   7.261  19.337  0.00  0.00    +0.000 A 
ATOM     11  C   UNL     1       2.570   8.110  18.314  0.00  0.00    +0.000 A 
ATOM     12  C   UNL     1       3.442   7.399  17.460  0.00  0.00    +0.000 A 
ATOM     13  C   UNL     1       3.604   6.131  17.991  0.00  0.00    +0.000 A 
ENDROOT
BRANCH   1  15
ATOM     14  C   UNL     1       5.388   4.108  15.485  0.00  0.00    +0.000 C 
ATOM     15  C   UNL     1       5.207   5.125  16.340  0.00  0.00    +0.000 C 
BRANCH  14  16
ATOM     16  C   UNL     1       6.137   4.239  14.225  0.00  0.00    +0.000 A 
ATOM     17  C   UNL     1       7.205   5.137  14.070  0.00  0.00    +0.000 A 
ATOM     18  C   UNL     1       7.867   5.253  12.845  0.00  0.00    +0.000 A 
ATOM     19  C   UNL     1       7.484   4.459  11.767  0.00  0.00    +0.000 A 
ATOM     20  C   UNL     1       6.447   3.541  11.916  0.00  0.00    +0.000 A 
ATOM     21  C   UNL     1       5.781   3.429  13.140  0.00  0.00    +0.000 A 
ENDBRANCH  14  16
ENDBRANCH   1  15
TORSDOF 2
ENDMDL
MODEL 3
REMARK VINA RESULT:      -8.5      2.832      8.088
REMARK  Name = 
REMARK  2 active torsions:
REMARK  status: ('A' for Active; 'I' for Inactive)
REMARK    1  A    between atoms: C_1  and  C_16
REMARK    2  A    between atoms: C_2  and  C_3
REMARK                            x       y       z     vdW  Elec       q    Type
REMARK                         _______ _______ _______ _____ _____    ______ ____
ROOT
ATOM      1  C   UNL     1       2.301   6.486  19.577  0.00  0.00    +0.000 A 
ATOM      2  N   UNL     1       3.127   6.934  18.677  0.00  0.00    +0.000 NA
ATOM      3  C   UNL     1       3.750   6.020  17.798  0.00  0.00    +0.000 A 
ATOM      4  C   UNL     1       4.643   6.516  16.847  0.00  0.00    +0.000 A 
ATOM      5  C   UNL     1       5.296   5.653  15.962  0.00  0.00    +0.000 A 
ATOM      6  C   UNL     1       5.058   4.279  16.017  0.00  0.00    +0.000 A 
ATOM      7  C   UNL     1       4.168   3.758  16.957  0.00  0.00    +0.000 A 
ATOM      8  C   UNL     1       3.526   4.632  17.839  0.00  0.00    +0.000 A 
ATOM      9  N   UNL     1       2.623   4.186  18.821  0.00  0.00    +0.000 N 
ATOM     10  C   UNL     1       2.195   2.912  19.107  0.00  0.00    +0.000 A 
ATOM     11  C   UNL     1       1.296   2.984  20.148  0.00  0.00    +0.000 A 
ATOM     12  C   UNL     1       1.174   4.345  20.508  0.00  0.00    +0.000 A 
ATOM     13  C   UNL     1       2.013   5.072  19.681  0.00  0.00    +0.000 A 
ENDROOT
BRANCH   1  15
ATOM     14  C   UNL     1       1.283   8.644  20.221  0.00  0.00    +0.000 C 
ATOM     15  C   UNL     1       1.645   7.396  20.556  0.00  0.00    +0.000 C 
BRANCH  14  16
ATOM     16  C   UNL     1       0.553   9.541  21.130  0.00  0.00    +0.000 A 
ATOM     17  C   UNL     1       0.035   9.113  22.362  0.00  0.00    +0.000 A 
ATOM     18  C   UNL     1      -0.682   9.991  23.179  0.00  0.00    +0.000 A 
ATOM     19  C   UNL     1      -0.874  11.313  22.783  0.00  0.00    +0.000 A 
ATOM     20  C   UNL     1      -0.338  11.760  21.578  0.00  0.00    +0.000 A 
ATOM     21  C   UNL     1       0.375  10.880  20.758  0.00  0.00    +0.000 A 
ENDBRANCH  14  16
ENDBRANCH   1  15
TORSDOF 2
ENDMDL
MODEL 4
REMARK VINA RESULT:      -8.5      2.794      8.072
REMARK  Name = 
REMARK  2 active torsions:
REMARK  status: ('A' for Active; 'I' for Inactive)
REMARK    1  A    between atoms: C_1  and  C_16
REMARK    2  A    between atoms: C_2  and  C_3
REMARK                            x       y       z     vdW  Elec       q    Type
REMARK                         _______ _______ _______ _____ _____    ______ ____
ROOT
ATOM      1  C   UNL     1       2.370   6.481  19.564  0.00  0.00    +0.000 A 
ATOM      2  N   UNL     1       3.198   6.898  18.652  0.00  0.00    +0.000 NA
ATOM      3  C   UNL     1       3.809   5.956  17.794  0.00  0.00    +0.000 A 
ATOM      4  C   UNL     1       4.706   6.420  16.829  0.00  0.00    +0.000 A 
ATOM      5  C   UNL     1       5.347   5.529  15.964  0.00  0.00    +0.000 A 
ATOM      6  C   UNL     1       5.094   4.159  16.052  0.00  0.00    +0.000 A 
ATOM      7  C   UNL     1       4.201   3.671  17.006  0.00  0.00    +0.000 A 
ATOM      8  C   UNL     1       3.571   4.573  17.869  0.00  0.00    +0.000 A 
ATOM      9  N   UNL     1       2.665   4.160  18.863  0.00  0.00    +0.000 N 
ATOM     10  C   UNL     1       2.224   2.898  19.180  0.00  0.00    +0.000 A 
ATOM     11  C   UNL     1       1.328   3.004  20.221  0.00  0.00    +0.000 A 
ATOM     12  C   UNL     1       1.221   4.375  20.549  0.00  0.00    +0.000 A 
ATOM     13  C   UNL     1       2.067   5.073  19.703  0.00  0.00    +0.000 A 
ENDROOT
BRANCH   1  15
ATOM     14  C   UNL     1       1.203   8.588  20.117  0.00  0.00    +0.000 C 
ATOM     15  C   UNL     1       1.726   7.422  20.523  0.00  0.00    +0.000 C 
BRANCH  14  16
ATOM     16  C   UNL     1       0.479   9.501  21.015  0.00  0.00    +0.000 A 
ATOM     17  C   UNL     1       0.107  10.799  20.635  0.00  0.00    +0.000 A 
ATOM     18  C   UNL     1      -0.550  11.645  21.531  0.00  0.00    +0.000 A 
ATOM     19  C   UNL     1      -0.861  11.198  22.813  0.00  0.00    +0.000 A 
ATOM     20  C   UNL     1      -0.526   9.900  23.194  0.00  0.00    +0.000 A 
ATOM     21  C   UNL     1       0.136   9.055  22.298  0.00  0.00    +0.000 A 
ENDBRANCH  14  16
ENDBRANCH   1  15
TORSDOF 2
ENDMDL
MODEL 5
REMARK VINA RESULT:      -8.0      2.435      7.729
REMARK  Name = 
REMARK  2 active torsions:
REMARK  status: ('A' for Active; 'I' for Inactive)
REMARK    1  A    between atoms: C_1  and  C_16
REMARK    2  A    between atoms: C_2  and  C_3
REMARK                            x       y       z     vdW  Elec       q    Type
REMARK                         _______ _______ _______ _____ _____    ______ ____
ROOT
ATOM      1  C   UNL     1       2.898   6.092  18.809  0.00  0.00    +0.000 A 
ATOM      2  N   UNL     1       3.905   6.573  18.139  0.00  0.00    +0.000 NA
ATOM      3  C   UNL     1       4.575   5.742  17.213  0.00  0.00    +0.000 A 
ATOM      4  C   UNL     1       5.661   6.269  16.513  0.00  0.00    +0.000 A 
ATOM      5  C   UNL     1       6.366   5.486  15.594  0.00  0.00    +0.000 A 
ATOM      6  C   UNL     1       5.987   4.163  15.362  0.00  0.00    +0.000 A 
ATOM      7  C   UNL     1       4.904   3.613  16.048  0.00  0.00    +0.000 A 
ATOM      8  C   UNL     1       4.211   4.406  16.968  0.00  0.00    +0.000 A 
ATOM      9  N   UNL     1       3.115   3.924  17.706  0.00  0.00    +0.000 N 
ATOM     10  C   UNL     1       2.521   2.685  17.689  0.00  0.00    +0.000 A 
ATOM     11  C   UNL     1       1.469   2.699  18.579  0.00  0.00    +0.000 A 
ATOM     12  C   UNL     1       1.423   3.988  19.157  0.00  0.00    +0.000 A 
ATOM     13  C   UNL     1       2.459   4.728  18.611  0.00  0.00    +0.000 A 
ENDROOT
BRANCH   1  15
ATOM     14  C   UNL     1       1.791   8.165  19.574  0.00  0.00    +0.000 C 
ATOM     15  C   UNL     1       2.179   6.906  19.828  0.00  0.00    +0.000 C 
BRANCH  14  16
ATOM     16  C   UNL     1       1.000   8.969  20.518  0.00  0.00    +0.000 A 
ATOM     17  C   UNL     1       0.188  10.037  20.107  0.00  0.00    +0.000 A 
ATOM     18  C   UNL     1      -0.521  10.796  21.041  0.00  0.00    +0.000 A 
ATOM     19  C   UNL     1      -0.442  10.485  22.396  0.00  0.00    +0.000 A 
ATOM     20  C   UNL     1       0.334   9.408  22.816  0.00  0.00    +0.000 A 
ATOM     21  C   UNL     1       1.048   8.651  21.881  0.00  0.00    +0.000 A 
ENDBRANCH  14  16
ENDBRANCH   1  15
TORSDOF 2
ENDMDL
MODEL 6
REMARK VINA RESULT:      -7.9      7.793      9.638
REMARK  Name = 
REMARK  2 active torsions:
REMARK  status: ('A' for Active; 'I' for Inactive)
REMARK    1  A    between atoms: C_1  and  C_16
REMARK    2  A    between atoms: C_2  and  C_3
REMARK                            x       y       z     vdW  Elec       q    Type
REMARK                         _______ _______ _______ _____ _____    ______ ____
ROOT
ATOM      1  C   UNL     1       9.531  10.858  18.978  0.00  0.00    +0.000 A 
ATOM      2  N   UNL     1      10.072  11.370  17.911  0.00  0.00    +0.000 NA
ATOM      3  C   UNL     1      10.578  12.689  17.961  0.00  0.00    +0.000 A 
ATOM      4  C   UNL     1      11.142  13.227  16.803  0.00  0.00    +0.000 A 
ATOM      5  C   UNL     1      11.646  14.531  16.796  0.00  0.00    +0.000 A 
ATOM      6  C   UNL     1      11.593  15.312  17.951  0.00  0.00    +0.000 A 
ATOM      7  C   UNL     1      11.035  14.796  19.121  0.00  0.00    +0.000 A 
ATOM      8  C   UNL     1      10.531  13.492  19.114  0.00  0.00    +0.000 A 
ATOM      9  N   UNL     1       9.945  12.902  20.249  0.00  0.00    +0.000 N 
ATOM     10  C   UNL     1       9.759  13.417  21.509  0.00  0.00    +0.000 A 
ATOM     11  C   UNL     1       9.153  12.452  22.283  0.00  0.00    +0.000 A 
ATOM     12  C   UNL     1       8.962  11.314  21.466  0.00  0.00    +0.000 A 
ATOM     13  C   UNL     1       9.449  11.618  20.206  0.00  0.00    +0.000 A 
ENDROOT
BRANCH   1  15
ATOM     14  C   UNL     1       8.218   9.039  17.942  0.00  0.00    +0.000 C 
ATOM     15  C   UNL     1       8.945   9.489  18.975  0.00  0.00    +0.000 C 
BRANCH  14  16
ATOM     16  C   UNL     1       7.699   7.665  17.860  0.00  0.00    +0.000 A 
ATOM     17  C   UNL     1       6.766   7.264  16.892  0.00  0.00    +0.000 A 
ATOM     18  C   UNL     1       6.275   5.957  16.872  0.00  0.00    +0.000 A 
ATOM     19  C   UNL     1       6.726   5.027  17.806  0.00  0.00    +0.000 A 
ATOM     20  C   UNL     1       7.676   5.402  18.753  0.00  0.00    +0.000 A 
ATOM     21  C   UNL     1       8.164   6.713  18.776  0.00  0.00    +0.000 A 
ENDBRANCH  14  16
ENDBRANCH   1  15
TORSDOF 2
ENDMDL
MODEL 7
REMARK VINA RESULT:      -7.8      7.831      9.705
REMARK  Name = 
REMARK  2 active torsions:
REMARK  status: ('A' for Active; 'I' for Inactive)
REMARK    1  A    between atoms: C_1  and  C_16
REMARK    2  A    between atoms: C_2  and  C_3
REMARK                            x       y       z     vdW  Elec       q    Type
REMARK                         _______ _______ _______ _____ _____    ______ ____
ROOT
ATOM      1  C   UNL     1       9.570  10.892  19.001  0.00  0.00    +0.000 A 
ATOM      2  N   UNL     1      10.126  11.382  17.932  0.00  0.00    +0.000 NA
ATOM      3  C   UNL     1      10.634  12.701  17.963  0.00  0.00    +0.000 A 
ATOM      4  C   UNL     1      11.215  13.216  16.803  0.00  0.00    +0.000 A 
ATOM      5  C   UNL     1      11.722  14.518  16.777  0.00  0.00    +0.000 A 
ATOM      6  C   UNL     1      11.655  15.321  17.916  0.00  0.00    +0.000 A 
ATOM      7  C   UNL     1      11.081  14.829  19.089  0.00  0.00    +0.000 A 
ATOM      8  C   UNL     1      10.574  13.526  19.099  0.00  0.00    +0.000 A 
ATOM      9  N   UNL     1       9.971  12.960  20.238  0.00  0.00    +0.000 N 
ATOM     10  C   UNL     1       9.770  13.499  21.485  0.00  0.00    +0.000 A 
ATOM     11  C   UNL     1       9.151  12.550  22.269  0.00  0.00    +0.000 A 
ATOM     12  C   UNL     1       8.969  11.397  21.473  0.00  0.00    +0.000 A 
ATOM     13  C   UNL     1       9.473  11.676  20.214  0.00  0.00    +0.000 A 
ENDROOT
BRANCH   1  15
ATOM     14  C   UNL     1       8.265   9.057  17.983  0.00  0.00    +0.000 C 
ATOM     15  C   UNL     1       8.981   9.524  19.017  0.00  0.00    +0.000 C 
BRANCH  14  16
ATOM     16  C   UNL     1       7.745   7.682  17.921  0.00  0.00    +0.000 A 
ATOM     17  C   UNL     1       8.160   6.675  18.805  0.00  0.00    +0.000 A 
ATOM     18  C   UNL     1       7.665   5.374  18.689  0.00  0.00    +0.000 A 
ATOM     19  C   UNL     1       6.733   5.068  17.700  0.00  0.00    +0.000 A 
ATOM     20  C   UNL     1       6.288   6.065  16.836  0.00  0.00    +0.000 A 
ATOM     21  C   UNL     1       6.788   7.366  16.949  0.00  0.00    +0.000 A 
ENDBRANCH  14  16
ENDBRANCH   1  15
TORSDOF 2
ENDMDL
MODEL 8
REMARK VINA RESULT:      -7.8      2.777      7.579
REMARK  Name = 
REMARK  2 active torsions:
REMARK  status: ('A' for Active; 'I' for Inactive)
REMARK    1  A    between atoms: C_1  and  C_16
REMARK    2  A    between atoms: C_2  and  C_3
REMARK                            x       y       z     vdW  Elec       q    Type
REMARK                         _______ _______ _______ _____ _____    ______ ____
ROOT
ATOM      1  C   UNL     1       2.645   7.393  18.542  0.00  0.00    +0.000 A 
ATOM      2  N   UNL     1       3.428   7.484  17.507  0.00  0.00    +0.000 NA
ATOM      3  C   UNL     1       4.246   6.384  17.163  0.00  0.00    +0.000 A 
ATOM      4  C   UNL     1       5.090   6.504  16.057  0.00  0.00    +0.000 A 
ATOM      5  C   UNL     1       5.927   5.450  15.682  0.00  0.00    +0.000 A 
ATOM      6  C   UNL     1       5.928   4.259  16.410  0.00  0.00    +0.000 A 
ATOM      7  C   UNL     1       5.092   4.114  17.517  0.00  0.00    +0.000 A 
ATOM      8  C   UNL     1       4.262   5.178  17.884  0.00  0.00    +0.000 A 
ATOM      9  N   UNL     1       3.399   5.114  18.993  0.00  0.00    +0.000 N 
ATOM     10  C   UNL     1       3.182   4.088  19.881  0.00  0.00    +0.000 A 
ATOM     11  C   UNL     1       2.230   4.497  20.788  0.00  0.00    +0.000 A 
ATOM     12  C   UNL     1       1.856   5.815  20.442  0.00  0.00    +0.000 A 
ATOM     13  C   UNL     1       2.600   6.183  19.334  0.00  0.00    +0.000 A 
ENDROOT
BRANCH   1  15
ATOM     14  C   UNL     1       1.097   9.266  18.094  0.00  0.00    +0.000 C 
ATOM     15  C   UNL     1       1.791   8.533  18.977  0.00  0.00    +0.000 C 
BRANCH  14  16
ATOM     16  C   UNL     1       0.172  10.340  18.490  0.00  0.00    +0.000 A 
ATOM     17  C   UNL     1       0.563  11.413  19.305  0.00  0.00    +0.000 A 
ATOM     18  C   UNL     1      -0.357  12.393  19.685  0.00  0.00    +0.000 A 
ATOM     19  C   UNL     1      -1.674  12.324  19.237  0.00  0.00    +0.000 A 
ATOM     20  C   UNL     1      -2.069  11.282  18.401  0.00  0.00    +0.000 A 
ATOM     21  C   UNL     1      -1.149  10.298  18.026  0.00  0.00    +0.000 A 
ENDBRANCH  14  16
ENDBRANCH   1  15
TORSDOF 2
ENDMDL
MODEL 9
REMARK VINA RESULT:      -7.7      2.749      7.477
REMARK  Name = 
REMARK  2 active torsions:
REMARK  status: ('A' for Active; 'I' for Inactive)
REMARK    1  A    between atoms: C_1  and  C_16
REMARK    2  A    between atoms: C_2  and  C_3
REMARK                            x       y       z     vdW  Elec       q    Type
REMARK                         _______ _______ _______ _____ _____    ______ ____
ROOT
ATOM      1  C   UNL     1       2.675   7.358  18.520  0.00  0.00    +0.000 A 
ATOM      2  N   UNL     1       3.454   7.451  17.482  0.00  0.00    +0.000 NA
ATOM      3  C   UNL     1       4.280   6.356  17.140  0.00  0.00    +0.000 A 
ATOM      4  C   UNL     1       5.119   6.478  16.032  0.00  0.00    +0.000 A 
ATOM      5  C   UNL     1       5.964   5.429  15.659  0.00  0.00    +0.000 A 
ATOM      6  C   UNL     1       5.977   4.242  16.392  0.00  0.00    +0.000 A 
ATOM      7  C   UNL     1       5.146   4.094  17.502  0.00  0.00    +0.000 A 
ATOM      8  C   UNL     1       4.309   5.153  17.867  0.00  0.00    +0.000 A 
ATOM      9  N   UNL     1       3.449   5.088  18.979  0.00  0.00    +0.000 N 
ATOM     10  C   UNL     1       3.243   4.064  19.872  0.00  0.00    +0.000 A 
ATOM     11  C   UNL     1       2.290   4.469  20.780  0.00  0.00    +0.000 A 
ATOM     12  C   UNL     1       1.904   5.782  20.429  0.00  0.00    +0.000 A 
ATOM     13  C   UNL     1       2.642   6.152  19.317  0.00  0.00    +0.000 A 
ENDROOT
BRANCH   1  15
ATOM     14  C   UNL     1       1.168   9.262  18.063  0.00  0.00    +0.000 C 
ATOM     15  C   UNL     1       1.813   8.493  18.952  0.00  0.00    +0.000 C 
BRANCH  14  16
ATOM     16  C   UNL     1       0.236  10.333  18.451  0.00  0.00    +0.000 A 
ATOM     17  C   UNL     1      -1.107  10.352  18.044  0.00  0.00    +0.000 A 
ATOM     18  C   UNL     1      -1.948  11.406  18.408  0.00  0.00    +0.000 A 
ATOM     19  C   UNL     1      -1.463  12.444  19.200  0.00  0.00    +0.000 A 
ATOM     20  C   UNL     1      -0.141  12.423  19.637  0.00  0.00    +0.000 A 
ATOM     21  C   UNL     1       0.702  11.370  19.268  0.00  0.00    +0.000 A 
ENDBRANCH  14  16
ENDBRANCH   1  15
TORSDOF 2
ENDMDL
