MODEL 1
REMARK VINA RESULT:      -8.9      0.000      0.000
REMARK  Name = 
REMARK  8 active torsions:
REMARK  status: ('A' for Active; 'I' for Inactive)
REMARK    1  A    between atoms: C_2  and  O_25
REMARK    2  A    between atoms: N_3  and  C_4
REMARK    3  A    between atoms: C_4  and  C_5
REMARK    4  A    between atoms: N_7  and  C_8
REMARK    5  A    between atoms: C_12  and  O_13
REMARK    6  A    between atoms: O_13  and  C_14
REMARK    7  A    between atoms: O_25  and  C_26
REMARK    8  A    between atoms: C_26  and  C_27
REMARK                            x       y       z     vdW  Elec       q    Type
REMARK                         _______ _______ _______ _____ _____    ______ ____
ROOT
ATOM      1  C   UNL     1       3.180   4.543  19.168  0.00  0.00    +0.000 C 
ATOM      2  C   UNL     1       3.045   3.548  20.354  0.00  0.00    +0.000 C 
ATOM      3  C   UNL     1       1.627   3.036  20.583  0.00  0.00    +0.000 C 
ATOM      4  C   UNL     1       1.070   2.381  19.333  0.00  0.00    +0.000 C 
ATOM      5  C   UNL     1       1.077   3.357  18.164  0.00  0.00    +0.000 C 
ATOM      6  C   UNL     1       2.468   3.953  17.903  0.00  0.00    +0.000 C 
ENDROOT
BRANCH   1   9
ATOM      7  O   UNL     1       3.395   7.082  17.729  0.00  0.00    +0.000 OA
ATOM      8  C   UNL     1       2.735   6.990  18.748  0.00  0.00    +0.000 C 
ATOM      9  N   UNL     1       2.583   5.867  19.492  0.00  0.00    +0.000 N 
ATOM     10  H   UNL     1       1.982   5.956  20.294  0.00  0.00    +0.000 HD
BRANCH   8  11
ATOM     11  O   UNL     1       2.088   8.037  19.342  0.00  0.00    +0.000 OA
BRANCH  11  12
ATOM     12  C   UNL     1       1.717   7.825  20.716  0.00  0.00    +0.000 C 
BRANCH  12  13
ATOM     13  C   UNL     1       0.886   8.962  21.251  0.00  0.00    +0.000 A 
ATOM     14  C   UNL     1       0.661  10.108  20.474  0.00  0.00    +0.000 A 
ATOM     15  C   UNL     1      -0.077  11.177  20.985  0.00  0.00    +0.000 A 
ATOM     16  C   UNL     1      -0.605  11.109  22.273  0.00  0.00    +0.000 A 
ATOM     17  C   UNL     1      -0.413   9.963  23.044  0.00  0.00    +0.000 A 
ATOM     18  C   UNL     1       0.329   8.894  22.536  0.00  0.00    +0.000 A 
ENDBRANCH  12  13
ENDBRANCH  11  12
ENDBRANCH   8  11
ENDBRANCH   1   9
BRANCH   1  19
ATOM     19  C   UNL     1       4.726   4.744  18.868  0.00  0.00    +0.000 C 
ATOM     20  O   UNL     1       5.530   5.116  19.719  0.00  0.00    +0.000 OA
ATOM     21  N   UNL     1       5.096   4.538  17.554  0.00  0.00    +0.000 N 
ATOM     22  H   UNL     1       4.371   4.232  16.902  0.00  0.00    +0.000 HD
BRANCH  21  23
ATOM     23  C   UNL     1       6.466   4.710  17.023  0.00  0.00    +0.000 C 
ATOM     24  C   UNL     1       6.990   6.170  16.939  0.00  0.00    +0.000 C 
ATOM     25  O   UNL     1       7.045   7.155  17.640  0.00  0.00    +0.000 OA
ATOM     26  N   UNL     1       7.466   5.963  15.684  0.00  0.00    +0.000 N 
ATOM     27  C   UNL     1       6.700   4.722  15.485  0.00  0.00    +0.000 C 
ATOM     28  H   UNL     1       7.634   6.722  15.035  0.00  0.00    +0.000 HD
BRANCH  27  29
ATOM     29  O   UNL     1       5.568   4.812  14.585  0.00  0.00    +0.000 OA
BRANCH  29  30
ATOM     30  C   UNL     1       5.690   4.117  13.400  0.00  0.00    +0.000 A 
ATOM     31  C   UNL     1       4.587   3.631  12.696  0.00  0.00    +0.000 A 
ATOM     32  C   UNL     1       4.769   2.793  11.599  0.00  0.00    +0.000 A 
ATOM     33  C   UNL     1       6.055   2.471  11.175  0.00  0.00    +0.000 A 
ATOM     34  C   UNL     1       7.158   3.011  11.833  0.00  0.00    +0.000 A 
ATOM     35  C   UNL     1       6.978   3.844  12.942  0.00  0.00    +0.000 A 
ENDBRANCH  29  30
ENDBRANCH  27  29
ENDBRANCH  21  23
ENDBRANCH   1  19
TORSDOF 8
ENDMDL
MODEL 2
REMARK VINA RESULT:      -8.9      0.533      1.284
REMARK  Name = 
REMARK  8 active torsions:
REMARK  status: ('A' for Active; 'I' for Inactive)
REMARK    1  A    between atoms: C_2  and  O_25
REMARK    2  A    between atoms: N_3  and  C_4
REMARK    3  A    between atoms: C_4  and  C_5
REMARK    4  A    between atoms: N_7  and  C_8
REMARK    5  A    between atoms: C_12  and  O_13
REMARK    6  A    between atoms: O_13  and  C_14
REMARK    7  A    between atoms: O_25  and  C_26
REMARK    8  A    between atoms: C_26  and  C_27
REMARK                            x       y       z     vdW  Elec       q    Type
REMARK                         _______ _______ _______ _____ _____    ______ ____
ROOT
ATOM      1  C   UNL     1       3.333   4.323  19.315  0.00  0.00    +0.000 C 
ATOM      2  C   UNL     1       3.149   3.057  20.198  0.00  0.00    +0.000 C 
ATOM      3  C   UNL     1       1.705   2.587  20.327  0.00  0.00    +0.000 C 
ATOM      4  C   UNL     1       1.088   2.324  18.965  0.00  0.00    +0.000 C 
ATOM      5  C   UNL     1       1.143   3.574  18.098  0.00  0.00    +0.000 C 
ATOM      6  C   UNL     1       2.566   4.135  17.962  0.00  0.00    +0.000 C 
ENDROOT
BRANCH   1   9
ATOM      7  O   UNL     1       2.986   7.031  18.262  0.00  0.00    +0.000 OA
ATOM      8  C   UNL     1       2.694   6.761  19.413  0.00  0.00    +0.000 C 
ATOM      9  N   UNL     1       2.829   5.545  19.997  0.00  0.00    +0.000 N 
ATOM     10  H   UNL     1       2.516   5.486  20.952  0.00  0.00    +0.000 HD
BRANCH   8  11
ATOM     11  O   UNL     1       2.240   7.672  20.324  0.00  0.00    +0.000 OA
BRANCH  11  12
ATOM     12  C   UNL     1       1.415   8.718  19.783  0.00  0.00    +0.000 C 
BRANCH  12  13
ATOM     13  C   UNL     1       0.637   9.430  20.859  0.00  0.00    +0.000 A 
ATOM     14  C   UNL     1       0.685   8.982  22.187  0.00  0.00    +0.000 A 
ATOM     15  C   UNL     1      -0.066   9.618  23.177  0.00  0.00    +0.000 A 
ATOM     16  C   UNL     1      -0.866  10.713  22.852  0.00  0.00    +0.000 A 
ATOM     17  C   UNL     1      -0.897  11.185  21.541  0.00  0.00    +0.000 A 
ATOM     18  C   UNL     1      -0.150  10.548  20.548  0.00  0.00    +0.000 A 
ENDBRANCH  12  13
ENDBRANCH  11  12
ENDBRANCH   8  11
ENDBRANCH   1   9
BRANCH   1  19
ATOM     19  C   UNL     1       4.884   4.505  19.032  0.00  0.00    +0.000 C 
ATOM     20  O   UNL     1       5.713   4.670  19.923  0.00  0.00    +0.000 OA
ATOM     21  N   UNL     1       5.233   4.535  17.697  0.00  0.00    +0.000 N 
ATOM     22  H   UNL     1       4.489   4.393  17.010  0.00  0.00    +0.000 HD
BRANCH  21  23
ATOM     23  C   UNL     1       6.606   4.740  17.184  0.00  0.00    +0.000 C 
ATOM     24  C   UNL     1       7.106   6.209  17.135  0.00  0.00    +0.000 C 
ATOM     25  O   UNL     1       7.137   7.181  17.856  0.00  0.00    +0.000 OA
ATOM     26  N   UNL     1       7.598   6.037  15.881  0.00  0.00    +0.000 N 
ATOM     27  C   UNL     1       6.855   4.787  15.648  0.00  0.00    +0.000 C 
ATOM     28  H   UNL     1       7.761   6.811  15.250  0.00  0.00    +0.000 HD
BRANCH  27  29
ATOM     29  O   UNL     1       5.731   4.877  14.739  0.00  0.00    +0.000 OA
BRANCH  29  30
ATOM     30  C   UNL     1       5.823   4.109  13.597  0.00  0.00    +0.000 A 
ATOM     31  C   UNL     1       7.040   3.840  12.969  0.00  0.00    +0.000 A 
ATOM     32  C   UNL     1       7.063   3.205  11.729  0.00  0.00    +0.000 A 
ATOM     33  C   UNL     1       5.873   2.799  11.132  0.00  0.00    +0.000 A 
ATOM     34  C   UNL     1       4.661   3.004  11.790  0.00  0.00    +0.000 A 
ATOM     35  C   UNL     1       4.635   3.651  13.030  0.00  0.00    +0.000 A 
ENDBRANCH  29  30
ENDBRANCH  27  29
ENDBRANCH  21  23
ENDBRANCH   1  19
TORSDOF 8
ENDMDL
MODEL 3
REMARK VINA RESULT:      -8.7      1.552      1.596
REMARK  Name = 
REMARK  8 active torsions:
REMARK  status: ('A' for Active; 'I' for Inactive)
REMARK    1  A    between atoms: C_2  and  O_25
REMARK    2  A    between atoms: N_3  and  C_4
REMARK    3  A    between atoms: C_4  and  C_5
REMARK    4  A    between atoms: N_7  and  C_8
REMARK    5  A    between atoms: C_12  and  O_13
REMARK    6  A    between atoms: O_13  and  C_14
REMARK    7  A    between atoms: O_25  and  C_26
REMARK    8  A    between atoms: C_26  and  C_27
REMARK                            x       y       z     vdW  Elec       q    Type
REMARK                         _______ _______ _______ _____ _____    ______ ____
ROOT
ATOM      1  C   UNL     1       3.224   4.591  19.092  0.00  0.00    +0.000 C 
ATOM      2  C   UNL     1       3.060   3.749  20.388  0.00  0.00    +0.000 C 
ATOM      3  C   UNL     1       1.634   3.279  20.653  0.00  0.00    +0.000 C 
ATOM      4  C   UNL     1       1.090   2.481  19.482  0.00  0.00    +0.000 C 
ATOM      5  C   UNL     1       1.126   3.307  18.204  0.00  0.00    +0.000 C 
ATOM      6  C   UNL     1       2.527   3.857  17.897  0.00  0.00    +0.000 C 
ENDROOT
BRANCH   1   9
ATOM      7  O   UNL     1       3.647   6.990  17.471  0.00  0.00    +0.000 OA
ATOM      8  C   UNL     1       2.889   7.000  18.425  0.00  0.00    +0.000 C 
ATOM      9  N   UNL     1       2.635   5.949  19.241  0.00  0.00    +0.000 N 
ATOM     10  H   UNL     1       1.962   6.118  19.970  0.00  0.00    +0.000 HD
BRANCH   8  11
ATOM     11  O   UNL     1       2.217   8.106  18.861  0.00  0.00    +0.000 OA
BRANCH  11  12
ATOM     12  C   UNL     1       2.103   9.170  17.899  0.00  0.00    +0.000 C 
BRANCH  12  13
ATOM     13  C   UNL     1       1.106  10.211  18.334  0.00  0.00    +0.000 A 
ATOM     14  C   UNL     1       1.539  11.465  18.793  0.00  0.00    +0.000 A 
ATOM     15  C   UNL     1       0.616  12.416  19.232  0.00  0.00    +0.000 A 
ATOM     16  C   UNL     1      -0.748  12.129  19.210  0.00  0.00    +0.000 A 
ATOM     17  C   UNL     1      -1.191  10.898  18.728  0.00  0.00    +0.000 A 
ATOM     18  C   UNL     1      -0.270   9.943  18.292  0.00  0.00    +0.000 A 
ENDBRANCH  12  13
ENDBRANCH  11  12
ENDBRANCH   8  11
ENDBRANCH   1   9
BRANCH   1  19
ATOM     19  C   UNL     1       4.776   4.742  18.797  0.00  0.00    +0.000 C 
ATOM     20  O   UNL     1       5.591   5.080  19.652  0.00  0.00    +0.000 OA
ATOM     21  N   UNL     1       5.142   4.533  17.482  0.00  0.00    +0.000 N 
ATOM     22  H   UNL     1       4.410   4.257  16.826  0.00  0.00    +0.000 HD
BRANCH  21  23
ATOM     23  C   UNL     1       6.519   4.662  16.955  0.00  0.00    +0.000 C 
ATOM     24  C   UNL     1       7.081   6.107  16.855  0.00  0.00    +0.000 C 
ATOM     25  O   UNL     1       7.159   7.099  17.543  0.00  0.00    +0.000 OA
ATOM     26  N   UNL     1       7.556   5.872  15.604  0.00  0.00    +0.000 N 
ATOM     27  C   UNL     1       6.759   4.648  15.418  0.00  0.00    +0.000 C 
ATOM     28  H   UNL     1       7.747   6.617  14.947  0.00  0.00    +0.000 HD
BRANCH  27  29
ATOM     29  O   UNL     1       5.633   4.756  14.512  0.00  0.00    +0.000 OA
BRANCH  29  30
ATOM     30  C   UNL     1       5.740   4.040  13.338  0.00  0.00    +0.000 A 
ATOM     31  C   UNL     1       4.626   3.596  12.624  0.00  0.00    +0.000 A 
ATOM     32  C   UNL     1       4.786   2.735  11.540  0.00  0.00    +0.000 A 
ATOM     33  C   UNL     1       6.061   2.347  11.141  0.00  0.00    +0.000 A 
ATOM     34  C   UNL     1       7.179   2.844  11.809  0.00  0.00    +0.000 A 
ATOM     35  C   UNL     1       7.021   3.700  12.904  0.00  0.00    +0.000 A 
ENDBRANCH  29  30
ENDBRANCH  27  29
ENDBRANCH  21  23
ENDBRANCH   1  19
TORSDOF 8
ENDMDL
MODEL 4
REMARK VINA RESULT:      -8.6      1.152      1.652
REMARK  Name = 
REMARK  8 active torsions:
REMARK  status: ('A' for Active; 'I' for Inactive)
REMARK    1  A    between atoms: C_2  and  O_25
REMARK    2  A    between atoms: N_3  and  C_4
REMARK    3  A    between atoms: C_4  and  C_5
REMARK    4  A    between atoms: N_7  and  C_8
REMARK    5  A    between atoms: C_12  and  O_13
REMARK    6  A    between atoms: O_13  and  C_14
REMARK    7  A    between atoms: O_25  and  C_26
REMARK    8  A    between atoms: C_26  and  C_27
REMARK                            x       y       z     vdW  Elec       q    Type
REMARK                         _______ _______ _______ _____ _____    ______ ____
ROOT
ATOM      1  C   UNL     1       3.161   4.076  18.687  0.00  0.00    +0.000 C 
ATOM      2  C   UNL     1       2.949   4.062  20.226  0.00  0.00    +0.000 C 
ATOM      3  C   UNL     1       1.516   3.770  20.657  0.00  0.00    +0.000 C 
ATOM      4  C   UNL     1       1.027   2.452  20.087  0.00  0.00    +0.000 C 
ATOM      5  C   UNL     1       1.110   2.458  18.566  0.00  0.00    +0.000 C 
ATOM      6  C   UNL     1       2.519   2.794  18.055  0.00  0.00    +0.000 C 
ENDROOT
BRANCH   1   9
ATOM      7  O   UNL     1       3.246   6.867  19.564  0.00  0.00    +0.000 OA
ATOM      8  C   UNL     1       2.665   6.545  18.543  0.00  0.00    +0.000 C 
ATOM      9  N   UNL     1       2.558   5.283  18.060  0.00  0.00    +0.000 N 
ATOM     10  H   UNL     1       2.063   5.193  17.188  0.00  0.00    +0.000 HD
BRANCH   8  11
ATOM     11  O   UNL     1       1.967   7.412  17.751  0.00  0.00    +0.000 OA
BRANCH  11  12
ATOM     12  C   UNL     1       2.229   8.805  17.991  0.00  0.00    +0.000 C 
BRANCH  12  13
ATOM     13  C   UNL     1       1.066   9.484  18.666  0.00  0.00    +0.000 A 
ATOM     14  C   UNL     1       0.854   9.332  20.044  0.00  0.00    +0.000 A 
ATOM     15  C   UNL     1      -0.246   9.930  20.662  0.00  0.00    +0.000 A 
ATOM     16  C   UNL     1      -1.140  10.692  19.912  0.00  0.00    +0.000 A 
ATOM     17  C   UNL     1      -0.922  10.876  18.548  0.00  0.00    +0.000 A 
ATOM     18  C   UNL     1       0.175  10.275  17.926  0.00  0.00    +0.000 A 
ENDBRANCH  12  13
ENDBRANCH  11  12
ENDBRANCH   8  11
ENDBRANCH   1   9
BRANCH   1  19
ATOM     19  C   UNL     1       4.723   4.087  18.405  0.00  0.00    +0.000 C 
ATOM     20  O   UNL     1       5.563   3.920  19.286  0.00  0.00    +0.000 OA
ATOM     21  N   UNL     1       5.079   4.370  17.102  0.00  0.00    +0.000 N 
ATOM     22  H   UNL     1       4.325   4.500  16.424  0.00  0.00    +0.000 HD
BRANCH  21  23
ATOM     23  C   UNL     1       6.469   4.482  16.608  0.00  0.00    +0.000 C 
ATOM     24  C   UNL     1       7.063   5.916  16.554  0.00  0.00    +0.000 C 
ATOM     25  O   UNL     1       7.146   6.890  17.267  0.00  0.00    +0.000 OA
ATOM     26  N   UNL     1       7.561   5.700  15.308  0.00  0.00    +0.000 N 
ATOM     27  C   UNL     1       6.742   4.499  15.076  0.00  0.00    +0.000 C 
ATOM     28  H   UNL     1       7.782   6.457  14.674  0.00  0.00    +0.000 HD
BRANCH  27  29
ATOM     29  O   UNL     1       5.639   4.652  14.149  0.00  0.00    +0.000 OA
BRANCH  29  30
ATOM     30  C   UNL     1       5.685   3.850  13.027  0.00  0.00    +0.000 A 
ATOM     31  C   UNL     1       4.537   3.452  12.341  0.00  0.00    +0.000 A 
ATOM     32  C   UNL     1       4.623   2.508  11.320  0.00  0.00    +0.000 A 
ATOM     33  C   UNL     1       5.862   1.989  10.955  0.00  0.00    +0.000 A 
ATOM     34  C   UNL     1       7.018   2.437  11.592  0.00  0.00    +0.000 A 
ATOM     35  C   UNL     1       6.933   3.377  12.624  0.00  0.00    +0.000 A 
ENDBRANCH  29  30
ENDBRANCH  27  29
ENDBRANCH  21  23
ENDBRANCH   1  19
TORSDOF 8
ENDMDL
MODEL 5
REMARK VINA RESULT:      -8.6      0.870      1.253
REMARK  Name = 
REMARK  8 active torsions:
REMARK  status: ('A' for Active; 'I' for Inactive)
REMARK    1  A    between atoms: C_2  and  O_25
REMARK    2  A    between atoms: N_3  and  C_4
REMARK    3  A    between atoms: C_4  and  C_5
REMARK    4  A    between atoms: N_7  and  C_8
REMARK    5  A    between atoms: C_12  and  O_13
REMARK    6  A    between atoms: O_13  and  C_14
REMARK    7  A    between atoms: O_25  and  C_26
REMARK    8  A    between atoms: C_26  and  C_27
REMARK                            x       y       z     vdW  Elec       q    Type
REMARK                         _______ _______ _______ _____ _____    ______ ____
ROOT
ATOM      1  C   UNL     1       3.175   4.417  19.596  0.00  0.00    +0.000 C 
ATOM      2  C   UNL     1       2.929   3.343  20.692  0.00  0.00    +0.000 C 
ATOM      3  C   UNL     1       1.458   3.041  20.953  0.00  0.00    +0.000 C 
ATOM      4  C   UNL     1       0.749   2.610  19.682  0.00  0.00    +0.000 C 
ATOM      5  C   UNL     1       0.867   3.685  18.609  0.00  0.00    +0.000 C 
ATOM      6  C   UNL     1       2.325   4.076  18.325  0.00  0.00    +0.000 C 
ENDROOT
BRANCH   1   9
ATOM      7  O   UNL     1       2.499   6.810  18.052  0.00  0.00    +0.000 OA
ATOM      8  C   UNL     1       2.507   6.827  19.271  0.00  0.00    +0.000 C 
ATOM      9  N   UNL     1       2.817   5.780  20.073  0.00  0.00    +0.000 N 
ATOM     10  H   UNL     1       2.750   5.956  21.062  0.00  0.00    +0.000 HD
BRANCH   8  11
ATOM     11  O   UNL     1       2.262   7.939  20.025  0.00  0.00    +0.000 OA
BRANCH  11  12
ATOM     12  C   UNL     1       1.322   7.755  21.097  0.00  0.00    +0.000 C 
BRANCH  12  13
ATOM     13  C   UNL     1       0.631   9.043  21.462  0.00  0.00    +0.000 A 
ATOM     14  C   UNL     1       0.709  10.158  20.614  0.00  0.00    +0.000 A 
ATOM     15  C   UNL     1       0.101  11.364  20.971  0.00  0.00    +0.000 A 
ATOM     16  C   UNL     1      -0.597  11.465  22.173  0.00  0.00    +0.000 A 
ATOM     17  C   UNL     1      -0.707  10.355  23.009  0.00  0.00    +0.000 A 
ATOM     18  C   UNL     1      -0.096   9.149  22.657  0.00  0.00    +0.000 A 
ENDBRANCH  12  13
ENDBRANCH  11  12
ENDBRANCH   8  11
ENDBRANCH   1   9
BRANCH   1  19
ATOM     19  C   UNL     1       4.719   4.399  19.228  0.00  0.00    +0.000 C 
ATOM     20  O   UNL     1       5.512   3.589  19.702  0.00  0.00    +0.000 OA
ATOM     21  N   UNL     1       5.129   5.412  18.384  0.00  0.00    +0.000 N 
ATOM     22  H   UNL     1       4.413   6.051  18.031  0.00  0.00    +0.000 HD
BRANCH  21  23
ATOM     23  C   UNL     1       6.522   5.632  17.937  0.00  0.00    +0.000 C 
ATOM     24  C   UNL     1       6.878   7.076  17.489  0.00  0.00    +0.000 C 
ATOM     25  O   UNL     1       6.736   8.210  17.887  0.00  0.00    +0.000 OA
ATOM     26  N   UNL     1       7.518   6.612  16.384  0.00  0.00    +0.000 N 
ATOM     27  C   UNL     1       6.930   5.266  16.481  0.00  0.00    +0.000 C 
ATOM     28  H   UNL     1       7.671   7.186  15.564  0.00  0.00    +0.000 HD
BRANCH  27  29
ATOM     29  O   UNL     1       5.908   4.948  15.504  0.00  0.00    +0.000 OA
BRANCH  29  30
ATOM     30  C   UNL     1       6.367   4.562  14.262  0.00  0.00    +0.000 A 
ATOM     31  C   UNL     1       7.477   5.152  13.655  0.00  0.00    +0.000 A 
ATOM     32  C   UNL     1       7.798   4.847  12.334  0.00  0.00    +0.000 A 
ATOM     33  C   UNL     1       7.035   3.922  11.628  0.00  0.00    +0.000 A 
ATOM     34  C   UNL     1       5.968   3.280  12.254  0.00  0.00    +0.000 A 
ATOM     35  C   UNL     1       5.637   3.592  13.577  0.00  0.00    +0.000 A 
ENDBRANCH  29  30
ENDBRANCH  27  29
ENDBRANCH  21  23
ENDBRANCH   1  19
TORSDOF 8
ENDMDL
MODEL 6
REMARK VINA RESULT:      -8.5      3.002      8.167
REMARK  Name = 
REMARK  8 active torsions:
REMARK  status: ('A' for Active; 'I' for Inactive)
REMARK    1  A    between atoms: C_2  and  O_25
REMARK    2  A    between atoms: N_3  and  C_4
REMARK    3  A    between atoms: C_4  and  C_5
REMARK    4  A    between atoms: N_7  and  C_8
REMARK    5  A    between atoms: C_12  and  O_13
REMARK    6  A    between atoms: O_13  and  C_14
REMARK    7  A    between atoms: O_25  and  C_26
REMARK    8  A    between atoms: C_26  and  C_27
REMARK                            x       y       z     vdW  Elec       q    Type
REMARK                         _______ _______ _______ _____ _____    ______ ____
ROOT
ATOM      1  C   UNL     1       5.885   5.401  17.444  0.00  0.00    +0.000 C 
ATOM      2  C   UNL     1       4.821   5.890  16.423  0.00  0.00    +0.000 C 
ATOM      3  C   UNL     1       5.371   6.161  15.027  0.00  0.00    +0.000 C 
ATOM      4  C   UNL     1       6.061   4.935  14.460  0.00  0.00    +0.000 C 
ATOM      5  C   UNL     1       7.192   4.482  15.374  0.00  0.00    +0.000 C 
ATOM      6  C   UNL     1       6.721   4.235  16.815  0.00  0.00    +0.000 C 
ENDROOT
BRANCH   1   9
ATOM      7  O   UNL     1       8.190   5.331  19.246  0.00  0.00    +0.000 OA
ATOM      8  C   UNL     1       7.860   6.361  18.686  0.00  0.00    +0.000 C 
ATOM      9  N   UNL     1       6.805   6.499  17.846  0.00  0.00    +0.000 N 
ATOM     10  H   UNL     1       6.685   7.416  17.447  0.00  0.00    +0.000 HD
BRANCH   8  11
ATOM     11  O   UNL     1       8.473   7.567  18.872  0.00  0.00    +0.000 OA
BRANCH  11  12
ATOM     12  C   UNL     1       8.092   8.596  17.942  0.00  0.00    +0.000 C 
BRANCH  12  13
ATOM     13  C   UNL     1       8.620   9.945  18.354  0.00  0.00    +0.000 A 
ATOM     14  C   UNL     1       8.370  11.079  17.566  0.00  0.00    +0.000 A 
ATOM     15  C   UNL     1       8.892  12.322  17.928  0.00  0.00    +0.000 A 
ATOM     16  C   UNL     1       9.661  12.447  19.083  0.00  0.00    +0.000 A 
ATOM     17  C   UNL     1       9.891  11.334  19.890  0.00  0.00    +0.000 A 
ATOM     18  C   UNL     1       9.374  10.088  19.528  0.00  0.00    +0.000 A 
ENDBRANCH  12  13
ENDBRANCH  11  12
ENDBRANCH   8  11
ENDBRANCH   1   9
BRANCH   1  19
ATOM     19  C   UNL     1       5.125   4.880  18.736  0.00  0.00    +0.000 C 
ATOM     20  O   UNL     1       5.496   3.904  19.383  0.00  0.00    +0.000 OA
ATOM     21  N   UNL     1       3.966   5.563  19.045  0.00  0.00    +0.000 N 
ATOM     22  H   UNL     1       3.718   6.363  18.460  0.00  0.00    +0.000 HD
BRANCH  21  23
ATOM     23  C   UNL     1       3.063   5.234  20.171  0.00  0.00    +0.000 C 
ATOM     24  C   UNL     1       1.791   4.418  19.813  0.00  0.00    +0.000 C 
ATOM     25  O   UNL     1       1.495   3.433  19.175  0.00  0.00    +0.000 OA
ATOM     26  N   UNL     1       1.012   5.237  20.568  0.00  0.00    +0.000 N 
ATOM     27  C   UNL     1       2.035   6.291  20.667  0.00  0.00    +0.000 C 
ATOM     28  H   UNL     1       0.014   5.324  20.420  0.00  0.00    +0.000 HD
BRANCH  27  29
ATOM     29  O   UNL     1       1.794   7.485  19.882  0.00  0.00    +0.000 OA
BRANCH  29  30
ATOM     30  C   UNL     1       1.227   8.543  20.562  0.00  0.00    +0.000 A 
ATOM     31  C   UNL     1       1.152   8.586  21.955  0.00  0.00    +0.000 A 
ATOM     32  C   UNL     1       0.422   9.591  22.586  0.00  0.00    +0.000 A 
ATOM     33  C   UNL     1      -0.201  10.579  21.830  0.00  0.00    +0.000 A 
ATOM     34  C   UNL     1      -0.069  10.577  20.442  0.00  0.00    +0.000 A 
ATOM     35  C   UNL     1       0.654   9.564  19.806  0.00  0.00    +0.000 A 
ENDBRANCH  29  30
ENDBRANCH  27  29
ENDBRANCH  21  23
ENDBRANCH   1  19
TORSDOF 8
ENDMDL
MODEL 7
REMARK VINA RESULT:      -8.3      2.990      8.107
REMARK  Name = 
REMARK  8 active torsions:
REMARK  status: ('A' for Active; 'I' for Inactive)
REMARK    1  A    between atoms: C_2  and  O_25
REMARK    2  A    between atoms: N_3  and  C_4
REMARK    3  A    between atoms: C_4  and  C_5
REMARK    4  A    between atoms: N_7  and  C_8
REMARK    5  A    between atoms: C_12  and  O_13
REMARK    6  A    between atoms: O_13  and  C_14
REMARK    7  A    between atoms: O_25  and  C_26
REMARK    8  A    between atoms: C_26  and  C_27
REMARK                            x       y       z     vdW  Elec       q    Type
REMARK                         _______ _______ _______ _____ _____    ______ ____
ROOT
ATOM      1  C   UNL     1       5.923   5.387  17.408  0.00  0.00    +0.000 C 
ATOM      2  C   UNL     1       4.848   5.873  16.397  0.00  0.00    +0.000 C 
ATOM      3  C   UNL     1       5.382   6.135  14.993  0.00  0.00    +0.000 C 
ATOM      4  C   UNL     1       6.062   4.903  14.425  0.00  0.00    +0.000 C 
ATOM      5  C   UNL     1       7.202   4.451  15.328  0.00  0.00    +0.000 C 
ATOM      6  C   UNL     1       6.747   4.214  16.776  0.00  0.00    +0.000 C 
ENDROOT
BRANCH   1   9
ATOM      7  O   UNL     1       8.135   5.365  19.324  0.00  0.00    +0.000 OA
ATOM      8  C   UNL     1       7.859   6.369  18.691  0.00  0.00    +0.000 C 
ATOM      9  N   UNL     1       6.851   6.484  17.794  0.00  0.00    +0.000 N 
ATOM     10  H   UNL     1       6.775   7.378  17.338  0.00  0.00    +0.000 HD
BRANCH   8  11
ATOM     11  O   UNL     1       8.495   7.569  18.840  0.00  0.00    +0.000 OA
BRANCH  11  12
ATOM     12  C   UNL     1       8.052   8.608  17.949  0.00  0.00    +0.000 C 
BRANCH  12  13
ATOM     13  C   UNL     1       8.605   9.954  18.342  0.00  0.00    +0.000 A 
ATOM     14  C   UNL     1       9.410  10.087  19.483  0.00  0.00    +0.000 A 
ATOM     15  C   UNL     1       9.891  11.340  19.868  0.00  0.00    +0.000 A 
ATOM     16  C   UNL     1       9.580  12.470  19.113  0.00  0.00    +0.000 A 
ATOM     17  C   UNL     1       8.806  12.345  17.961  0.00  0.00    +0.000 A 
ATOM     18  C   UNL     1       8.320  11.093  17.575  0.00  0.00    +0.000 A 
ENDBRANCH  12  13
ENDBRANCH  11  12
ENDBRANCH   8  11
ENDBRANCH   1   9
BRANCH   1  19
ATOM     19  C   UNL     1       5.176   4.875  18.712  0.00  0.00    +0.000 C 
ATOM     20  O   UNL     1       5.500   3.853  19.312  0.00  0.00    +0.000 OA
ATOM     21  N   UNL     1       4.080   5.625  19.089  0.00  0.00    +0.000 N 
ATOM     22  H   UNL     1       3.868   6.461  18.540  0.00  0.00    +0.000 HD
BRANCH  21  23
ATOM     23  C   UNL     1       3.199   5.321  20.239  0.00  0.00    +0.000 C 
ATOM     24  C   UNL     1       2.043   4.320  19.969  0.00  0.00    +0.000 C 
ATOM     25  O   UNL     1       1.882   3.239  19.449  0.00  0.00    +0.000 OA
ATOM     26  N   UNL     1       1.154   5.119  20.616  0.00  0.00    +0.000 N 
ATOM     27  C   UNL     1       2.040   6.295  20.598  0.00  0.00    +0.000 C 
ATOM     28  H   UNL     1       0.157   5.066  20.451  0.00  0.00    +0.000 HD
BRANCH  27  29
ATOM     29  O   UNL     1       1.674   7.351  19.677  0.00  0.00    +0.000 OA
BRANCH  29  30
ATOM     30  C   UNL     1       1.159   8.494  20.252  0.00  0.00    +0.000 A 
ATOM     31  C   UNL     1       0.911   9.657  19.521  0.00  0.00    +0.000 A 
ATOM     32  C   UNL     1       0.553  10.833  20.175  0.00  0.00    +0.000 A 
ATOM     33  C   UNL     1       0.402  10.842  21.558  0.00  0.00    +0.000 A 
ATOM     34  C   UNL     1       0.582   9.665  22.284  0.00  0.00    +0.000 A 
ATOM     35  C   UNL     1       0.951   8.486  21.630  0.00  0.00    +0.000 A 
ENDBRANCH  29  30
ENDBRANCH  27  29
ENDBRANCH  21  23
ENDBRANCH   1  19
TORSDOF 8
ENDMDL
MODEL 8
REMARK VINA RESULT:      -8.3      1.360      1.884
REMARK  Name = 
REMARK  8 active torsions:
REMARK  status: ('A' for Active; 'I' for Inactive)
REMARK    1  A    between atoms: C_2  and  O_25
REMARK    2  A    between atoms: N_3  and  C_4
REMARK    3  A    between atoms: C_4  and  C_5
REMARK    4  A    between atoms: N_7  and  C_8
REMARK    5  A    between atoms: C_12  and  O_13
REMARK    6  A    between atoms: O_13  and  C_14
REMARK    7  A    between atoms: O_25  and  C_26
REMARK    8  A    between atoms: C_26  and  C_27
REMARK                            x       y       z     vdW  Elec       q    Type
REMARK                         _______ _______ _______ _____ _____    ______ ____
ROOT
ATOM      1  C   UNL     1       3.050   4.356  18.848  0.00  0.00    +0.000 C 
ATOM      2  C   UNL     1       2.699   4.421  20.360  0.00  0.00    +0.000 C 
ATOM      3  C   UNL     1       1.225   4.188  20.672  0.00  0.00    +0.000 C 
ATOM      4  C   UNL     1       0.749   2.858  20.119  0.00  0.00    +0.000 C 
ATOM      5  C   UNL     1       0.969   2.789  18.614  0.00  0.00    +0.000 C 
ATOM      6  C   UNL     1       2.427   3.063  18.219  0.00  0.00    +0.000 C 
ENDROOT
BRANCH   1   9
ATOM      7  O   UNL     1       2.781   7.125  19.758  0.00  0.00    +0.000 OA
ATOM      8  C   UNL     1       2.468   6.800  18.626  0.00  0.00    +0.000 C 
ATOM      9  N   UNL     1       2.543   5.548  18.115  0.00  0.00    +0.000 N 
ATOM     10  H   UNL     1       2.267   5.455  17.151  0.00  0.00    +0.000 HD
BRANCH   8  11
ATOM     11  O   UNL     1       1.925   7.651  17.706  0.00  0.00    +0.000 OA
BRANCH  11  12
ATOM     12  C   UNL     1       2.146   9.049  17.962  0.00  0.00    +0.000 C 
BRANCH  12  13
ATOM     13  C   UNL     1       0.896   9.731  18.456  0.00  0.00    +0.000 A 
ATOM     14  C   UNL     1      -0.291   9.669  17.711  0.00  0.00    +0.000 A 
ATOM     15  C   UNL     1      -1.438  10.333  18.150  0.00  0.00    +0.000 A 
ATOM     16  C   UNL     1      -1.413  11.059  19.340  0.00  0.00    +0.000 A 
ATOM     17  C   UNL     1      -0.248  11.102  20.104  0.00  0.00    +0.000 A 
ATOM     18  C   UNL     1       0.903  10.442  19.665  0.00  0.00    +0.000 A 
ENDBRANCH  12  13
ENDBRANCH  11  12
ENDBRANCH   8  11
ENDBRANCH   1   9
BRANCH   1  19
ATOM     19  C   UNL     1       4.630   4.312  18.710  0.00  0.00    +0.000 C 
ATOM     20  O   UNL     1       5.354   3.697  19.489  0.00  0.00    +0.000 OA
ATOM     21  N   UNL     1       5.147   5.078  17.684  0.00  0.00    +0.000 N 
ATOM     22  H   UNL     1       4.484   5.565  17.077  0.00  0.00    +0.000 HD
BRANCH  21  23
ATOM     23  C   UNL     1       6.588   5.234  17.386  0.00  0.00    +0.000 C 
ATOM     24  C   UNL     1       7.149   6.681  17.453  0.00  0.00    +0.000 C 
ATOM     25  O   UNL     1       7.111   7.635  18.198  0.00  0.00    +0.000 OA
ATOM     26  N   UNL     1       7.815   6.514  16.281  0.00  0.00    +0.000 N 
ATOM     27  C   UNL     1       7.065   5.304  15.907  0.00  0.00    +0.000 C 
ATOM     28  H   UNL     1       8.101   7.295  15.703  0.00  0.00    +0.000 HD
BRANCH  27  29
ATOM     29  O   UNL     1       6.094   5.463  14.843  0.00  0.00    +0.000 OA
BRANCH  29  30
ATOM     30  C   UNL     1       6.261   4.636  13.753  0.00  0.00    +0.000 A 
ATOM     31  C   UNL     1       7.370   4.719  12.909  0.00  0.00    +0.000 A 
ATOM     32  C   UNL     1       7.410   3.980  11.729  0.00  0.00    +0.000 A 
ATOM     33  C   UNL     1       6.361   3.125  11.407  0.00  0.00    +0.000 A 
ATOM     34  C   UNL     1       5.285   2.986  12.282  0.00  0.00    +0.000 A 
ATOM     35  C   UNL     1       5.238   3.735  13.463  0.00  0.00    +0.000 A 
ENDBRANCH  29  30
ENDBRANCH  27  29
ENDBRANCH  21  23
ENDBRANCH   1  19
TORSDOF 8
ENDMDL
MODEL 9
REMARK VINA RESULT:      -8.3      3.335      8.425
REMARK  Name = 
REMARK  8 active torsions:
REMARK  status: ('A' for Active; 'I' for Inactive)
REMARK    1  A    between atoms: C_2  and  O_25
REMARK    2  A    between atoms: N_3  and  C_4
REMARK    3  A    between atoms: C_4  and  C_5
REMARK    4  A    between atoms: N_7  and  C_8
REMARK    5  A    between atoms: C_12  and  O_13
REMARK    6  A    between atoms: O_13  and  C_14
REMARK    7  A    between atoms: O_25  and  C_26
REMARK    8  A    between atoms: C_26  and  C_27
REMARK                            x       y       z     vdW  Elec       q    Type
REMARK                         _______ _______ _______ _____ _____    ______ ____
ROOT
ATOM      1  C   UNL     1       5.992   5.863  17.268  0.00  0.00    +0.000 C 
ATOM      2  C   UNL     1       4.876   5.703  16.198  0.00  0.00    +0.000 C 
ATOM      3  C   UNL     1       5.387   5.661  14.762  0.00  0.00    +0.000 C 
ATOM      4  C   UNL     1       6.406   4.551  14.573  0.00  0.00    +0.000 C 
ATOM      5  C   UNL     1       7.579   4.728  15.527  0.00  0.00    +0.000 C 
ATOM      6  C   UNL     1       7.136   4.828  16.994  0.00  0.00    +0.000 C 
ENDROOT
BRANCH   1   9
ATOM      7  O   UNL     1       8.344   6.903  18.665  0.00  0.00    +0.000 OA
ATOM      8  C   UNL     1       7.674   7.618  17.941  0.00  0.00    +0.000 C 
ATOM      9  N   UNL     1       6.565   7.236  17.263  0.00  0.00    +0.000 N 
ATOM     10  H   UNL     1       6.142   7.946  16.688  0.00  0.00    +0.000 HD
BRANCH   8  11
ATOM     11  O   UNL     1       7.906   8.951  17.750  0.00  0.00    +0.000 OA
BRANCH  11  12
ATOM     12  C   UNL     1       8.771   9.565  18.720  0.00  0.00    +0.000 C 
BRANCH  12  13
ATOM     13  C   UNL     1       9.346  10.862  18.214  0.00  0.00    +0.000 A 
ATOM     14  C   UNL     1      10.734  11.023  18.080  0.00  0.00    +0.000 A 
ATOM     15  C   UNL     1      11.268  12.238  17.648  0.00  0.00    +0.000 A 
ATOM     16  C   UNL     1      10.423  13.301  17.336  0.00  0.00    +0.000 A 
ATOM     17  C   UNL     1       9.042  13.144  17.436  0.00  0.00    +0.000 A 
ATOM     18  C   UNL     1       8.504  11.931  17.873  0.00  0.00    +0.000 A 
ENDBRANCH  12  13
ENDBRANCH  11  12
ENDBRANCH   8  11
ENDBRANCH   1   9
BRANCH   1  19
ATOM     19  C   UNL     1       5.350   5.588  18.693  0.00  0.00    +0.000 C 
ATOM     20  O   UNL     1       6.021   5.380  19.701  0.00  0.00    +0.000 OA
ATOM     21  N   UNL     1       3.971   5.528  18.709  0.00  0.00    +0.000 N 
ATOM     22  H   UNL     1       3.479   5.709  17.832  0.00  0.00    +0.000 HD
BRANCH  21  23
ATOM     23  C   UNL     1       3.149   5.239  19.906  0.00  0.00    +0.000 C 
ATOM     24  C   UNL     1       1.804   4.506  19.651  0.00  0.00    +0.000 C 
ATOM     25  O   UNL     1       1.395   3.549  19.033  0.00  0.00    +0.000 OA
ATOM     26  N   UNL     1       1.143   5.359  20.476  0.00  0.00    +0.000 N 
ATOM     27  C   UNL     1       2.232   6.349  20.496  0.00  0.00    +0.000 C 
ATOM     28  H   UNL     1       0.144   5.508  20.416  0.00  0.00    +0.000 HD
BRANCH  27  29
ATOM     29  O   UNL     1       1.998   7.566  19.745  0.00  0.00    +0.000 OA
BRANCH  29  30
ATOM     30  C   UNL     1       1.328   8.565  20.419  0.00  0.00    +0.000 A 
ATOM     31  C   UNL     1       1.217   8.589  21.810  0.00  0.00    +0.000 A 
ATOM     32  C   UNL     1       0.389   9.521  22.431  0.00  0.00    +0.000 A 
ATOM     33  C   UNL     1      -0.298  10.459  21.667  0.00  0.00    +0.000 A 
ATOM     34  C   UNL     1      -0.135  10.482  20.283  0.00  0.00    +0.000 A 
ATOM     35  C   UNL     1       0.687   9.540  19.657  0.00  0.00    +0.000 A 
ENDBRANCH  29  30
ENDBRANCH  27  29
ENDBRANCH  21  23
ENDBRANCH   1  19
TORSDOF 8
ENDMDL
