MODEL 1
REMARK VINA RESULT:      -7.9      0.000      0.000
REMARK  Name = 
REMARK  5 active torsions:
REMARK  status: ('A' for Active; 'I' for Inactive)
REMARK    1  A    between atoms: C_1  and  N_2
REMARK    2  A    between atoms: N_8  and  C_9
REMARK    3  A    between atoms: C_11  and  N_12
REMARK    4  A    between atoms: CA_22  and  C_23
REMARK    5  A    between atoms: C_29  and  C_30
REMARK                            x       y       z     vdW  Elec       q    Type
REMARK                         _______ _______ _______ _____ _____    ______ ____
ROOT
ATOM      1  C   UNL     1       0.599  10.307  20.476  0.00  0.00    +0.000 A 
ATOM      2  C   UNL     1       1.310   9.354  19.723  0.00  0.00    +0.000 A 
ATOM      3  C   UNL     1       1.357   8.011  20.116  0.00  0.00    +0.000 A 
ATOM      4  N   UNL     1       0.729   7.570  21.211  0.00  0.00    +0.000 NA
ATOM      5  C   UNL     1       0.059   8.471  21.948  0.00  0.00    +0.000 A 
ATOM      6  C   UNL     1      -0.024   9.821  21.645  0.00  0.00    +0.000 A 
ENDROOT
BRANCH   3   7
ATOM      7  N   UNL     1       2.068   7.120  19.313  0.00  0.00    +0.000 N 
ATOM      8  C   UNL     1       3.092   7.417  18.446  0.00  0.00    +0.000 C 
ATOM      9  O   UNL     1       3.471   8.556  18.175  0.00  0.00    +0.000 OA
ATOM     10  N   UNL     1       3.687   6.301  17.823  0.00  0.00    +0.000 N 
ATOM     11  C   UNL     1       4.729   6.579  16.837  0.00  0.00    +0.000 C 
ATOM     12  C   UNL     1       4.785   5.529  15.744  0.00  0.00    +0.000 C 
ATOM     13  C   UNL     1       5.050   4.165  16.359  0.00  0.00    +0.000 C 
ATOM     14  C   UNL     1       4.174   3.911  17.556  0.00  0.00    +0.000 A 
ATOM     15  C   UNL     1       4.048   2.601  18.042  0.00  0.00    +0.000 A 
ATOM     16  C   UNL     1       3.277   2.348  19.170  0.00  0.00    +0.000 A 
ATOM     17  CA  UNL     1       2.648   3.422  19.763  0.00  0.00    +0.000 A 
ATOM     18  N   UNL     1       2.732   4.695  19.310  0.00  0.00    +0.000 NA
ATOM     19  C   UNL     1       3.518   4.945  18.235  0.00  0.00    +0.000 A 
ATOM     20  H   UNL     1       1.868   6.137  19.414  0.00  0.00    +0.000 HD
BRANCH  17  21
ATOM     21  C   UNL     1       1.834   3.260  20.986  0.00  0.00    +0.000 C 
ATOM     22  O   UNL     1       2.320   2.996  22.079  0.00  0.00    +0.000 OA
ENDBRANCH  17  21
ENDBRANCH   3   7
BRANCH   1  30
ATOM     23  C   UNL     1      -1.813  17.662  19.265  0.00  0.00    +0.000 C 
ATOM     24  N   UNL     1      -0.676  16.775  19.475  0.00  0.00    +0.000 NA
ATOM     25  C   UNL     1      -0.136  16.273  18.215  0.00  0.00    +0.000 C 
ATOM     26  C   UNL     1       0.709  15.099  18.675  0.00  0.00    +0.000 C 
ATOM     27  C   UNL     1      -0.126  14.451  19.797  0.00  0.00    +0.000 C 
ATOM     28  C   UNL     1       0.770  13.918  20.937  0.00  0.00    +0.000 C 
ATOM     29  C   UNL     1       1.530  12.641  20.555  0.00  0.00    +0.000 C 
ATOM     30  N   UNL     1       0.558  11.645  20.091  0.00  0.00    +0.000 N 
ATOM     31  C   UNL     1      -0.186  12.060  18.894  0.00  0.00    +0.000 C 
ATOM     32  C   UNL     1      -1.006  13.301  19.248  0.00  0.00    +0.000 C 
ATOM     33  C   UNL     1      -1.033  15.605  20.286  0.00  0.00    +0.000 C 
ENDBRANCH   1  30
BRANCH   6  34
ATOM     34  C   UNL     1      -0.690  10.647  22.601  0.00  0.00    +0.000 C 
ATOM     35  N   UNL     1      -1.221  11.352  23.358  0.00  0.00    +0.000 NA
ENDBRANCH   6  34
TORSDOF 4
ENDMDL
MODEL 2
REMARK VINA RESULT:      -7.7      1.151      1.798
REMARK  Name = 
REMARK  5 active torsions:
REMARK  status: ('A' for Active; 'I' for Inactive)
REMARK    1  A    between atoms: C_1  and  N_2
REMARK    2  A    between atoms: N_8  and  C_9
REMARK    3  A    between atoms: C_11  and  N_12
REMARK    4  A    between atoms: CA_22  and  C_23
REMARK    5  A    between atoms: C_29  and  C_30
REMARK                            x       y       z     vdW  Elec       q    Type
REMARK                         _______ _______ _______ _____ _____    ______ ____
ROOT
ATOM      1  C   UNL     1       0.710  10.360  20.575  0.00  0.00    +0.000 A 
ATOM      2  C   UNL     1       1.415   9.348  19.896  0.00  0.00    +0.000 A 
ATOM      3  C   UNL     1       1.302   8.006  20.280  0.00  0.00    +0.000 A 
ATOM      4  N   UNL     1       0.521   7.622  21.294  0.00  0.00    +0.000 NA
ATOM      5  C   UNL     1      -0.147   8.578  21.961  0.00  0.00    +0.000 A 
ATOM      6  C   UNL     1      -0.079   9.930  21.663  0.00  0.00    +0.000 A 
ENDROOT
BRANCH   3   7
ATOM      7  N   UNL     1       2.019   7.057  19.554  0.00  0.00    +0.000 N 
ATOM      8  C   UNL     1       2.971   7.291  18.591  0.00  0.00    +0.000 C 
ATOM      9  O   UNL     1       3.264   8.403  18.152  0.00  0.00    +0.000 OA
ATOM     10  N   UNL     1       3.596   6.135  18.079  0.00  0.00    +0.000 N 
ATOM     11  C   UNL     1       4.561   6.337  17.000  0.00  0.00    +0.000 C 
ATOM     12  C   UNL     1       4.618   5.156  16.049  0.00  0.00    +0.000 C 
ATOM     13  C   UNL     1       5.000   3.901  16.814  0.00  0.00    +0.000 C 
ATOM     14  C   UNL     1       4.212   3.760  18.087  0.00  0.00    +0.000 A 
ATOM     15  C   UNL     1       4.193   2.520  18.745  0.00  0.00    +0.000 A 
ATOM     16  C   UNL     1       3.505   2.377  19.943  0.00  0.00    +0.000 A 
ATOM     17  CA  UNL     1       2.847   3.486  20.433  0.00  0.00    +0.000 A 
ATOM     18  N   UNL     1       2.828   4.690  19.817  0.00  0.00    +0.000 NA
ATOM     19  C   UNL     1       3.534   4.838  18.670  0.00  0.00    +0.000 A 
ATOM     20  H   UNL     1       1.885   6.086  19.792  0.00  0.00    +0.000 HD
BRANCH  17  21
ATOM     21  C   UNL     1       2.116   3.442  21.717  0.00  0.00    +0.000 C 
ATOM     22  O   UNL     1       1.632   2.414  22.174  0.00  0.00    +0.000 OA
ENDBRANCH  17  21
ENDBRANCH   3   7
BRANCH   1  30
ATOM     23  C   UNL     1       3.535  17.117  17.795  0.00  0.00    +0.000 C 
ATOM     24  N   UNL     1       2.349  16.311  18.054  0.00  0.00    +0.000 NA
ATOM     25  C   UNL     1       1.786  16.576  19.374  0.00  0.00    +0.000 C 
ATOM     26  C   UNL     1       0.875  15.379  19.579  0.00  0.00    +0.000 C 
ATOM     27  C   UNL     1       1.668  14.197  18.989  0.00  0.00    +0.000 C 
ATOM     28  C   UNL     1       0.740  13.188  18.278  0.00  0.00    +0.000 C 
ATOM     29  C   UNL     1      -0.090  12.344  19.255  0.00  0.00    +0.000 C 
ATOM     30  N   UNL     1       0.827  11.696  20.199  0.00  0.00    +0.000 N 
ATOM     31  C   UNL     1       1.598  12.642  21.018  0.00  0.00    +0.000 C 
ATOM     32  C   UNL     1       2.485  13.468  20.085  0.00  0.00    +0.000 C 
ATOM     33  C   UNL     1       2.636  14.873  17.990  0.00  0.00    +0.000 C 
ENDBRANCH   1  30
BRANCH   6  34
ATOM     34  C   UNL     1      -0.774  10.811  22.547  0.00  0.00    +0.000 C 
ATOM     35  N   UNL     1      -1.318  11.512  23.298  0.00  0.00    +0.000 NA
ENDBRANCH   6  34
TORSDOF 4
ENDMDL
MODEL 3
REMARK VINA RESULT:      -7.5      2.351      4.329
REMARK  Name = 
REMARK  5 active torsions:
REMARK  status: ('A' for Active; 'I' for Inactive)
REMARK    1  A    between atoms: C_1  and  N_2
REMARK    2  A    between atoms: N_8  and  C_9
REMARK    3  A    between atoms: C_11  and  N_12
REMARK    4  A    between atoms: CA_22  and  C_23
REMARK    5  A    between atoms: C_29  and  C_30
REMARK                            x       y       z     vdW  Elec       q    Type
REMARK                         _______ _______ _______ _____ _____    ______ ____
ROOT
ATOM      1  C   UNL     1       0.335  10.975  19.985  0.00  0.00    +0.000 A 
ATOM      2  C   UNL     1       0.779   9.645  20.110  0.00  0.00    +0.000 A 
ATOM      3  C   UNL     1       1.777   9.135  19.272  0.00  0.00    +0.000 A 
ATOM      4  N   UNL     1       2.357   9.879  18.325  0.00  0.00    +0.000 NA
ATOM      5  C   UNL     1       1.933  11.146  18.184  0.00  0.00    +0.000 A 
ATOM      6  C   UNL     1       0.939  11.727  18.956  0.00  0.00    +0.000 A 
ENDROOT
BRANCH   3   7
ATOM      7  N   UNL     1       2.177   7.813  19.461  0.00  0.00    +0.000 N 
ATOM      8  C   UNL     1       1.524   6.841  20.179  0.00  0.00    +0.000 C 
ATOM      9  O   UNL     1       0.513   7.031  20.856  0.00  0.00    +0.000 OA
ATOM     10  N   UNL     1       2.119   5.564  20.131  0.00  0.00    +0.000 N 
ATOM     11  C   UNL     1       1.496   4.520  20.943  0.00  0.00    +0.000 C 
ATOM     12  C   UNL     1       2.500   3.492  21.431  0.00  0.00    +0.000 C 
ATOM     13  C   UNL     1       3.184   2.840  20.242  0.00  0.00    +0.000 C 
ATOM     14  C   UNL     1       3.632   3.856  19.227  0.00  0.00    +0.000 A 
ATOM     15  C   UNL     1       4.556   3.475  18.242  0.00  0.00    +0.000 A 
ATOM     16  C   UNL     1       4.953   4.384  17.270  0.00  0.00    +0.000 A 
ATOM     17  CA  UNL     1       4.417   5.654  17.332  0.00  0.00    +0.000 A 
ATOM     18  N   UNL     1       3.540   6.061  18.278  0.00  0.00    +0.000 NA
ATOM     19  C   UNL     1       3.121   5.160  19.199  0.00  0.00    +0.000 A 
ATOM     20  H   UNL     1       3.002   7.498  18.972  0.00  0.00    +0.000 HD
BRANCH  17  21
ATOM     21  C   UNL     1       4.753   6.682  16.324  0.00  0.00    +0.000 C 
ATOM     22  O   UNL     1       5.471   6.457  15.357  0.00  0.00    +0.000 OA
ENDBRANCH  17  21
ENDBRANCH   3   7
BRANCH   1  30
ATOM     23  C   UNL     1      -3.691  15.594  24.868  0.00  0.00    +0.000 C 
ATOM     24  N   UNL     1      -3.757  14.579  23.823  0.00  0.00    +0.000 NA
ATOM     25  C   UNL     1      -3.775  13.228  24.375  0.00  0.00    +0.000 C 
ATOM     26  C   UNL     1      -3.424  12.383  23.164  0.00  0.00    +0.000 C 
ATOM     27  C   UNL     1      -2.348  13.208  22.430  0.00  0.00    +0.000 C 
ATOM     28  C   UNL     1      -2.489  13.089  20.897  0.00  0.00    +0.000 C 
ATOM     29  C   UNL     1      -2.035  11.727  20.355  0.00  0.00    +0.000 C 
ATOM     30  N   UNL     1      -0.663  11.481  20.814  0.00  0.00    +0.000 N 
ATOM     31  C   UNL     1      -0.533  11.413  22.276  0.00  0.00    +0.000 C 
ATOM     32  C   UNL     1      -0.923  12.773  22.855  0.00  0.00    +0.000 C 
ATOM     33  C   UNL     1      -2.610  14.655  22.910  0.00  0.00    +0.000 C 
ENDBRANCH   1  30
BRANCH   6  34
ATOM     34  C   UNL     1       0.545  13.051  18.593  0.00  0.00    +0.000 C 
ATOM     35  N   UNL     1       0.208  14.133  18.335  0.00  0.00    +0.000 NA
ENDBRANCH   6  34
TORSDOF 4
ENDMDL
MODEL 4
REMARK VINA RESULT:      -7.3      6.307      8.595
REMARK  Name = 
REMARK  5 active torsions:
REMARK  status: ('A' for Active; 'I' for Inactive)
REMARK    1  A    between atoms: C_1  and  N_2
REMARK    2  A    between atoms: N_8  and  C_9
REMARK    3  A    between atoms: C_11  and  N_12
REMARK    4  A    between atoms: CA_22  and  C_23
REMARK    5  A    between atoms: C_29  and  C_30
REMARK                            x       y       z     vdW  Elec       q    Type
REMARK                         _______ _______ _______ _____ _____    ______ ____
ROOT
ATOM      1  C   UNL     1       3.793  15.603  19.897  0.00  0.00    +0.000 A 
ATOM      2  C   UNL     1       5.026  15.020  19.548  0.00  0.00    +0.000 A 
ATOM      3  C   UNL     1       6.213  15.759  19.593  0.00  0.00    +0.000 A 
ATOM      4  N   UNL     1       6.237  17.041  19.973  0.00  0.00    +0.000 NA
ATOM      5  C   UNL     1       5.066  17.615  20.294  0.00  0.00    +0.000 A 
ATOM      6  C   UNL     1       3.842  16.965  20.260  0.00  0.00    +0.000 A 
ENDROOT
BRANCH   3   7
ATOM      7  N   UNL     1       7.399  15.112  19.247  0.00  0.00    +0.000 N 
ATOM      8  C   UNL     1       8.402  15.590  18.439  0.00  0.00    +0.000 C 
ATOM      9  O   UNL     1       8.350  16.648  17.810  0.00  0.00    +0.000 OA
ATOM     10  N   UNL     1       9.529  14.751  18.329  0.00  0.00    +0.000 N 
ATOM     11  C   UNL     1      10.586  15.189  17.420  0.00  0.00    +0.000 C 
ATOM     12  C   UNL     1      11.331  14.023  16.797  0.00  0.00    +0.000 C 
ATOM     13  C   UNL     1      11.953  13.170  17.890  0.00  0.00    +0.000 C 
ATOM     14  C   UNL     1      10.980  12.889  19.002  0.00  0.00    +0.000 A 
ATOM     15  C   UNL     1      11.268  11.865  19.917  0.00  0.00    +0.000 A 
ATOM     16  C   UNL     1      10.404  11.614  20.976  0.00  0.00    +0.000 A 
ATOM     17  CA  UNL     1       9.271  12.395  21.070  0.00  0.00    +0.000 A 
ATOM     18  N   UNL     1       8.953  13.377  20.195  0.00  0.00    +0.000 NA
ATOM     19  C   UNL     1       9.817  13.648  19.188  0.00  0.00    +0.000 A 
ATOM     20  H   UNL     1       7.589  14.221  19.679  0.00  0.00    +0.000 HD
BRANCH  17  21
ATOM     21  C   UNL     1       8.309  12.226  22.179  0.00  0.00    +0.000 C 
ATOM     22  O   UNL     1       8.261  11.217  22.872  0.00  0.00    +0.000 OA
ENDBRANCH  17  21
ENDBRANCH   3   7
BRANCH   1  30
ATOM     23  C   UNL     1      -1.553  10.162  18.110  0.00  0.00    +0.000 C 
ATOM     24  N   UNL     1      -1.081  11.123  19.099  0.00  0.00    +0.000 NA
ATOM     25  C   UNL     1      -1.707  12.430  18.932  0.00  0.00    +0.000 C 
ATOM     26  C   UNL     1      -0.792  13.329  19.745  0.00  0.00    +0.000 C 
ATOM     27  C   UNL     1       0.622  12.791  19.449  0.00  0.00    +0.000 C 
ATOM     28  C   UNL     1       1.530  12.862  20.697  0.00  0.00    +0.000 C 
ATOM     29  C   UNL     1       1.976  14.291  21.035  0.00  0.00    +0.000 C 
ATOM     30  N   UNL     1       2.609  14.871  19.845  0.00  0.00    +0.000 N 
ATOM     31  C   UNL     1       1.709  14.978  18.690  0.00  0.00    +0.000 C 
ATOM     32  C   UNL     1       1.283  13.567  18.282  0.00  0.00    +0.000 C 
ATOM     33  C   UNL     1       0.370  11.327  19.018  0.00  0.00    +0.000 C 
ENDBRANCH   1  30
BRANCH   6  34
ATOM     34  C   UNL     1       2.691  17.765  20.532  0.00  0.00    +0.000 C 
ATOM     35  N   UNL     1       1.731  18.392  20.729  0.00  0.00    +0.000 NA
ENDBRANCH   6  34
TORSDOF 4
ENDMDL
MODEL 5
REMARK VINA RESULT:      -7.0      6.571      8.578
REMARK  Name = 
REMARK  5 active torsions:
REMARK  status: ('A' for Active; 'I' for Inactive)
REMARK    1  A    between atoms: C_1  and  N_2
REMARK    2  A    between atoms: N_8  and  C_9
REMARK    3  A    between atoms: C_11  and  N_12
REMARK    4  A    between atoms: CA_22  and  C_23
REMARK    5  A    between atoms: C_29  and  C_30
REMARK                            x       y       z     vdW  Elec       q    Type
REMARK                         _______ _______ _______ _____ _____    ______ ____
ROOT
ATOM      1  C   UNL     1       3.809  15.526  19.948  0.00  0.00    +0.000 A 
ATOM      2  C   UNL     1       5.049  14.984  19.559  0.00  0.00    +0.000 A 
ATOM      3  C   UNL     1       6.230  15.728  19.673  0.00  0.00    +0.000 A 
ATOM      4  N   UNL     1       6.241  16.973  20.158  0.00  0.00    +0.000 NA
ATOM      5  C   UNL     1       5.062  17.509  20.519  0.00  0.00    +0.000 A 
ATOM      6  C   UNL     1       3.845  16.854  20.423  0.00  0.00    +0.000 A 
ENDROOT
BRANCH   3   7
ATOM      7  N   UNL     1       7.423  15.122  19.281  0.00  0.00    +0.000 N 
ATOM      8  C   UNL     1       8.407  15.660  18.488  0.00  0.00    +0.000 C 
ATOM      9  O   UNL     1       8.329  16.746  17.914  0.00  0.00    +0.000 OA
ATOM     10  N   UNL     1       9.549  14.848  18.323  0.00  0.00    +0.000 N 
ATOM     11  C   UNL     1      10.587  15.352  17.426  0.00  0.00    +0.000 C 
ATOM     12  C   UNL     1      11.346  14.234  16.736  0.00  0.00    +0.000 C 
ATOM     13  C   UNL     1      11.996  13.339  17.778  0.00  0.00    +0.000 C 
ATOM     14  C   UNL     1      11.042  12.984  18.885  0.00  0.00    +0.000 A 
ATOM     15  C   UNL     1      11.360  11.920  19.744  0.00  0.00    +0.000 A 
ATOM     16  C   UNL     1      10.514  11.600  20.799  0.00  0.00    +0.000 A 
ATOM     17  CA  UNL     1       9.368  12.353  20.944  0.00  0.00    +0.000 A 
ATOM     18  N   UNL     1       9.020  13.371  20.123  0.00  0.00    +0.000 NA
ATOM     19  C   UNL     1       9.868  13.709  19.122  0.00  0.00    +0.000 A 
ATOM     20  H   UNL     1       7.635  14.213  19.666  0.00  0.00    +0.000 HD
BRANCH  17  21
ATOM     21  C   UNL     1       8.422  12.110  22.053  0.00  0.00    +0.000 C 
ATOM     22  O   UNL     1       8.383  12.808  23.060  0.00  0.00    +0.000 OA
ENDBRANCH  17  21
ENDBRANCH   3   7
BRANCH   1  30
ATOM     23  C   UNL     1      -3.455  12.818  21.074  0.00  0.00    +0.000 C 
ATOM     24  N   UNL     1      -2.365  13.014  20.127  0.00  0.00    +0.000 NA
ATOM     25  C   UNL     1      -1.465  11.866  20.085  0.00  0.00    +0.000 C 
ATOM     26  C   UNL     1      -0.241  12.443  19.398  0.00  0.00    +0.000 C 
ATOM     27  C   UNL     1      -0.113  13.862  19.987  0.00  0.00    +0.000 C 
ATOM     28  C   UNL     1       0.372  14.876  18.928  0.00  0.00    +0.000 C 
ATOM     29  C   UNL     1       1.859  14.718  18.583  0.00  0.00    +0.000 C 
ATOM     30  N   UNL     1       2.633  14.791  19.828  0.00  0.00    +0.000 N 
ATOM     31  C   UNL     1       2.313  13.724  20.785  0.00  0.00    +0.000 C 
ATOM     32  C   UNL     1       0.849  13.879  21.201  0.00  0.00    +0.000 C 
ATOM     33  C   UNL     1      -1.549  14.187  20.463  0.00  0.00    +0.000 C 
ENDBRANCH   1  30
BRANCH   6  34
ATOM     34  C   UNL     1       2.685  17.619  20.754  0.00  0.00    +0.000 C 
ATOM     35  N   UNL     1       1.719  18.220  20.994  0.00  0.00    +0.000 NA
ENDBRANCH   6  34
TORSDOF 4
ENDMDL
MODEL 6
REMARK VINA RESULT:      -6.9      2.306      9.362
REMARK  Name = 
REMARK  5 active torsions:
REMARK  status: ('A' for Active; 'I' for Inactive)
REMARK    1  A    between atoms: C_1  and  N_2
REMARK    2  A    between atoms: N_8  and  C_9
REMARK    3  A    between atoms: C_11  and  N_12
REMARK    4  A    between atoms: CA_22  and  C_23
REMARK    5  A    between atoms: C_29  and  C_30
REMARK                            x       y       z     vdW  Elec       q    Type
REMARK                         _______ _______ _______ _____ _____    ______ ____
ROOT
ATOM      1  C   UNL     1       3.315   6.175  18.763  0.00  0.00    +0.000 A 
ATOM      2  C   UNL     1       2.703   7.441  18.838  0.00  0.00    +0.000 A 
ATOM      3  C   UNL     1       1.778   7.737  19.846  0.00  0.00    +0.000 A 
ATOM      4  N   UNL     1       1.438   6.845  20.781  0.00  0.00    +0.000 NA
ATOM      5  C   UNL     1       2.002   5.627  20.713  0.00  0.00    +0.000 A 
ATOM      6  C   UNL     1       2.912   5.242  19.741  0.00  0.00    +0.000 A 
ENDROOT
BRANCH   3   7
ATOM      7  N   UNL     1       1.222   9.015  19.867  0.00  0.00    +0.000 N 
ATOM      8  C   UNL     1       0.790   9.753  18.792  0.00  0.00    +0.000 C 
ATOM      9  O   UNL     1       0.926   9.419  17.615  0.00  0.00    +0.000 OA
ATOM     10  N   UNL     1       0.191  10.987  19.118  0.00  0.00    +0.000 N 
ATOM     11  C   UNL     1      -0.214  11.835  17.998  0.00  0.00    +0.000 C 
ATOM     12  C   UNL     1      -0.136  13.312  18.335  0.00  0.00    +0.000 C 
ATOM     13  C   UNL     1      -1.035  13.613  19.522  0.00  0.00    +0.000 C 
ATOM     14  C   UNL     1      -0.852  12.613  20.631  0.00  0.00    +0.000 A 
ATOM     15  C   UNL     1      -1.346  12.914  21.910  0.00  0.00    +0.000 A 
ATOM     16  C   UNL     1      -1.225  11.989  22.939  0.00  0.00    +0.000 A 
ATOM     17  CA  UNL     1      -0.597  10.796  22.649  0.00  0.00    +0.000 A 
ATOM     18  N   UNL     1      -0.093  10.480  21.434  0.00  0.00    +0.000 NA
ATOM     19  C   UNL     1      -0.249  11.366  20.421  0.00  0.00    +0.000 A 
ATOM     20  H   UNL     1       1.050   9.436  20.768  0.00  0.00    +0.000 HD
BRANCH  17  21
ATOM     21  C   UNL     1      -0.449   9.735  23.668  0.00  0.00    +0.000 C 
ATOM     22  O   UNL     1       0.621   9.468  24.201  0.00  0.00    +0.000 OA
ENDBRANCH  17  21
ENDBRANCH   3   7
BRANCH   1  30
ATOM     23  C   UNL     1       6.569   3.340  12.224  0.00  0.00    +0.000 C 
ATOM     24  N   UNL     1       6.582   4.395  13.229  0.00  0.00    +0.000 NA
ATOM     25  C   UNL     1       7.474   4.080  14.341  0.00  0.00    +0.000 C 
ATOM     26  C   UNL     1       7.017   5.061  15.405  0.00  0.00    +0.000 C 
ATOM     27  C   UNL     1       5.482   5.086  15.259  0.00  0.00    +0.000 C 
ATOM     28  C   UNL     1       4.912   6.500  15.504  0.00  0.00    +0.000 C 
ATOM     29  C   UNL     1       4.932   6.908  16.983  0.00  0.00    +0.000 C 
ATOM     30  N   UNL     1       4.231   5.877  17.756  0.00  0.00    +0.000 N 
ATOM     31  C   UNL     1       4.861   4.553  17.682  0.00  0.00    +0.000 C 
ATOM     32  C   UNL     1       4.811   4.081  16.228  0.00  0.00    +0.000 C 
ATOM     33  C   UNL     1       5.250   4.628  13.800  0.00  0.00    +0.000 C 
ENDBRANCH   1  30
BRANCH   6  34
ATOM     34  C   UNL     1       3.326   3.876  19.764  0.00  0.00    +0.000 C 
ATOM     35  N   UNL     1       3.662   2.764  19.824  0.00  0.00    +0.000 NA
ENDBRANCH   6  34
TORSDOF 4
ENDMDL
MODEL 7
REMARK VINA RESULT:      -6.8      4.185     10.182
REMARK  Name = 
REMARK  5 active torsions:
REMARK  status: ('A' for Active; 'I' for Inactive)
REMARK    1  A    between atoms: C_1  and  N_2
REMARK    2  A    between atoms: N_8  and  C_9
REMARK    3  A    between atoms: C_11  and  N_12
REMARK    4  A    between atoms: CA_22  and  C_23
REMARK    5  A    between atoms: C_29  and  C_30
REMARK                            x       y       z     vdW  Elec       q    Type
REMARK                         _______ _______ _______ _____ _____    ______ ____
ROOT
ATOM      1  C   UNL     1       0.235  10.792  19.271  0.00  0.00    +0.000 A 
ATOM      2  C   UNL     1      -1.005  10.953  19.919  0.00  0.00    +0.000 A 
ATOM      3  C   UNL     1      -1.557  12.224  20.116  0.00  0.00    +0.000 A 
ATOM      4  N   UNL     1      -0.945  13.337  19.698  0.00  0.00    +0.000 NA
ATOM      5  C   UNL     1       0.247  13.199  19.091  0.00  0.00    +0.000 A 
ATOM      6  C   UNL     1       0.875  11.984  18.871  0.00  0.00    +0.000 A 
ENDROOT
BRANCH   3   7
ATOM      7  N   UNL     1      -2.794  12.307  20.753  0.00  0.00    +0.000 N 
ATOM      8  C   UNL     1      -3.053  12.810  22.005  0.00  0.00    +0.000 C 
ATOM      9  O   UNL     1      -2.191  13.180  22.803  0.00  0.00    +0.000 OA
ATOM     10  N   UNL     1      -4.417  12.845  22.362  0.00  0.00    +0.000 N 
ATOM     11  C   UNL     1      -4.728  13.304  23.715  0.00  0.00    +0.000 C 
ATOM     12  C   UNL     1      -5.983  12.657  24.269  0.00  0.00    +0.000 C 
ATOM     13  C   UNL     1      -7.163  12.972  23.366  0.00  0.00    +0.000 C 
ATOM     14  C   UNL     1      -6.828  12.763  21.914  0.00  0.00    +0.000 A 
ATOM     15  C   UNL     1      -7.870  12.688  20.977  0.00  0.00    +0.000 A 
ATOM     16  C   UNL     1      -7.584  12.536  19.626  0.00  0.00    +0.000 A 
ATOM     17  CA  UNL     1      -6.255  12.450  19.266  0.00  0.00    +0.000 A 
ATOM     18  N   UNL     1      -5.226  12.500  20.143  0.00  0.00    +0.000 NA
ATOM     19  C   UNL     1      -5.507  12.690  21.455  0.00  0.00    +0.000 A 
ATOM     20  H   UNL     1      -3.610  12.031  20.228  0.00  0.00    +0.000 HD
BRANCH  17  21
ATOM     21  C   UNL     1      -5.848  12.321  17.851  0.00  0.00    +0.000 C 
ATOM     22  O   UNL     1      -4.734  11.940  17.510  0.00  0.00    +0.000 OA
ENDBRANCH  17  21
ENDBRANCH   3   7
BRANCH   1  30
ATOM     23  C   UNL     1       5.304   5.001  17.803  0.00  0.00    +0.000 C 
ATOM     24  N   UNL     1       4.082   5.402  18.489  0.00  0.00    +0.000 NA
ATOM     25  C   UNL     1       2.895   5.170  17.671  0.00  0.00    +0.000 C 
ATOM     26  C   UNL     1       1.851   6.017  18.376  0.00  0.00    +0.000 C 
ATOM     27  C   UNL     1       2.615   7.290  18.788  0.00  0.00    +0.000 C 
ATOM     28  C   UNL     1       2.142   7.818  20.161  0.00  0.00    +0.000 C 
ATOM     29  C   UNL     1       0.759   8.480  20.105  0.00  0.00    +0.000 C 
ATOM     30  N   UNL     1       0.789   9.528  19.080  0.00  0.00    +0.000 N 
ATOM     31  C   UNL     1       1.063   9.025  17.728  0.00  0.00    +0.000 C 
ATOM     32  C   UNL     1       2.461   8.405  17.723  0.00  0.00    +0.000 C 
ATOM     33  C   UNL     1       4.090   6.827  18.840  0.00  0.00    +0.000 C 
ENDBRANCH   1  30
BRANCH   6  34
ATOM     34  C   UNL     1       2.186  12.040  18.307  0.00  0.00    +0.000 C 
ATOM     35  N   UNL     1       3.241  12.117  17.823  0.00  0.00    +0.000 NA
ENDBRANCH   6  34
TORSDOF 4
ENDMDL
MODEL 8
REMARK VINA RESULT:      -6.8      2.501      3.059
REMARK  Name = 
REMARK  5 active torsions:
REMARK  status: ('A' for Active; 'I' for Inactive)
REMARK    1  A    between atoms: C_1  and  N_2
REMARK    2  A    between atoms: N_8  and  C_9
REMARK    3  A    between atoms: C_11  and  N_12
REMARK    4  A    between atoms: CA_22  and  C_23
REMARK    5  A    between atoms: C_29  and  C_30
REMARK                            x       y       z     vdW  Elec       q    Type
REMARK                         _______ _______ _______ _____ _____    ______ ____
ROOT
ATOM      1  C   UNL     1      -0.277   9.792  19.805  0.00  0.00    +0.000 A 
ATOM      2  C   UNL     1       0.492   8.798  19.169  0.00  0.00    +0.000 A 
ATOM      3  C   UNL     1       1.547   8.164  19.836  0.00  0.00    +0.000 A 
ATOM      4  N   UNL     1       1.871   8.462  21.098  0.00  0.00    +0.000 NA
ATOM      5  C   UNL     1       1.156   9.420  21.713  0.00  0.00    +0.000 A 
ATOM      6  C   UNL     1       0.108  10.111  21.124  0.00  0.00    +0.000 A 
ENDROOT
BRANCH   3   7
ATOM      7  N   UNL     1       2.256   7.180  19.148  0.00  0.00    +0.000 N 
ATOM      8  C   UNL     1       3.247   7.367  18.215  0.00  0.00    +0.000 C 
ATOM      9  O   UNL     1       3.591   8.462  17.770  0.00  0.00    +0.000 OA
ATOM     10  N   UNL     1       3.850   6.184  17.742  0.00  0.00    +0.000 N 
ATOM     11  C   UNL     1       4.857   6.336  16.693  0.00  0.00    +0.000 C 
ATOM     12  C   UNL     1       4.906   5.139  15.762  0.00  0.00    +0.000 C 
ATOM     13  C   UNL     1       5.220   3.884  16.558  0.00  0.00    +0.000 C 
ATOM     14  C   UNL     1       4.385   3.790  17.806  0.00  0.00    +0.000 A 
ATOM     15  C   UNL     1       4.303   2.562  18.481  0.00  0.00    +0.000 A 
ATOM     16  C   UNL     1       3.572   2.461  19.658  0.00  0.00    +0.000 A 
ATOM     17  CA  UNL     1       2.935   3.598  20.109  0.00  0.00    +0.000 A 
ATOM     18  N   UNL     1       2.976   4.793  19.474  0.00  0.00    +0.000 NA
ATOM     19  C   UNL     1       3.725   4.899  18.350  0.00  0.00    +0.000 A 
ATOM     20  H   UNL     1       2.082   6.218  19.397  0.00  0.00    +0.000 HD
BRANCH  17  21
ATOM     21  C   UNL     1       2.160   3.600  21.367  0.00  0.00    +0.000 C 
ATOM     22  O   UNL     1       2.182   2.669  22.164  0.00  0.00    +0.000 OA
ENDBRANCH  17  21
ENDBRANCH   3   7
BRANCH   1  30
ATOM     23  C   UNL     1      -7.385  12.490  17.918  0.00  0.00    +0.000 C 
ATOM     24  N   UNL     1      -5.945  12.686  17.816  0.00  0.00    +0.000 NA
ATOM     25  C   UNL     1      -5.388  12.039  16.633  0.00  0.00    +0.000 C 
ATOM     26  C   UNL     1      -3.904  12.009  16.953  0.00  0.00    +0.000 C 
ATOM     27  C   UNL     1      -3.851  11.680  18.458  0.00  0.00    +0.000 C 
ATOM     28  C   UNL     1      -2.702  12.434  19.164  0.00  0.00    +0.000 C 
ATOM     29  C   UNL     1      -1.317  11.863  18.832  0.00  0.00    +0.000 C 
ATOM     30  N   UNL     1      -1.322  10.429  19.141  0.00  0.00    +0.000 N 
ATOM     31  C   UNL     1      -2.290   9.658  18.350  0.00  0.00    +0.000 C 
ATOM     32  C   UNL     1      -3.694  10.157  18.693  0.00  0.00    +0.000 C 
ATOM     33  C   UNL     1      -5.232  12.142  18.978  0.00  0.00    +0.000 C 
ENDBRANCH   1  30
BRANCH   6  34
ATOM     34  C   UNL     1      -0.466  11.168  21.894  0.00  0.00    +0.000 C 
ATOM     35  N   UNL     1      -0.912  12.016  22.554  0.00  0.00    +0.000 NA
ENDBRANCH   6  34
TORSDOF 4
ENDMDL
MODEL 9
REMARK VINA RESULT:      -6.7      5.912      8.231
REMARK  Name = 
REMARK  5 active torsions:
REMARK  status: ('A' for Active; 'I' for Inactive)
REMARK    1  A    between atoms: C_1  and  N_2
REMARK    2  A    between atoms: N_8  and  C_9
REMARK    3  A    between atoms: C_11  and  N_12
REMARK    4  A    between atoms: CA_22  and  C_23
REMARK    5  A    between atoms: C_29  and  C_30
REMARK                            x       y       z     vdW  Elec       q    Type
REMARK                         _______ _______ _______ _____ _____    ______ ____
ROOT
ATOM      1  C   UNL     1       1.977  14.028  20.595  0.00  0.00    +0.000 A 
ATOM      2  C   UNL     1       3.332  14.068  20.217  0.00  0.00    +0.000 A 
ATOM      3  C   UNL     1       4.251  14.870  20.906  0.00  0.00    +0.000 A 
ATOM      4  N   UNL     1       3.892  15.624  21.949  0.00  0.00    +0.000 NA
ATOM      5  C   UNL     1       2.598  15.608  22.312  0.00  0.00    +0.000 A 
ATOM      6  C   UNL     1       1.619  14.860  21.677  0.00  0.00    +0.000 A 
ENDROOT
BRANCH   3   7
ATOM      7  N   UNL     1       5.580  14.849  20.485  0.00  0.00    +0.000 N 
ATOM      8  C   UNL     1       6.264  15.851  19.840  0.00  0.00    +0.000 C 
ATOM      9  O   UNL     1       5.759  16.902  19.446  0.00  0.00    +0.000 OA
ATOM     10  N   UNL     1       7.629  15.585  19.607  0.00  0.00    +0.000 N 
ATOM     11  C   UNL     1       8.374  16.595  18.858  0.00  0.00    +0.000 C 
ATOM     12  C   UNL     1       9.499  15.991  18.038  0.00  0.00    +0.000 C 
ATOM     13  C   UNL     1      10.463  15.257  18.954  0.00  0.00    +0.000 C 
ATOM     14  C   UNL     1       9.740  14.378  19.938  0.00  0.00    +0.000 A 
ATOM     15  C   UNL     1      10.461  13.393  20.631  0.00  0.00    +0.000 A 
ATOM     16  C   UNL     1       9.823  12.597  21.574  0.00  0.00    +0.000 A 
ATOM     17  CA  UNL     1       8.476  12.811  21.778  0.00  0.00    +0.000 A 
ATOM     18  N   UNL     1       7.746  13.738  21.116  0.00  0.00    +0.000 NA
ATOM     19  C   UNL     1       8.379  14.541  20.227  0.00  0.00    +0.000 A 
ATOM     20  H   UNL     1       6.136  14.042  20.728  0.00  0.00    +0.000 HD
BRANCH  17  21
ATOM     21  C   UNL     1       7.717  12.038  22.783  0.00  0.00    +0.000 C 
ATOM     22  O   UNL     1       8.214  11.131  23.441  0.00  0.00    +0.000 OA
ENDBRANCH  17  21
ENDBRANCH   3   7
BRANCH   1  30
ATOM     23  C   UNL     1      -4.670  10.575  18.298  0.00  0.00    +0.000 C 
ATOM     24  N   UNL     1      -3.344  11.038  17.910  0.00  0.00    +0.000 NA
ATOM     25  C   UNL     1      -2.334   9.995  18.067  0.00  0.00    +0.000 C 
ATOM     26  C   UNL     1      -1.043  10.792  18.022  0.00  0.00    +0.000 C 
ATOM     27  C   UNL     1      -1.365  12.075  18.812  0.00  0.00    +0.000 C 
ATOM     28  C   UNL     1      -0.671  13.310  18.197  0.00  0.00    +0.000 C 
ATOM     29  C   UNL     1       0.841  13.343  18.460  0.00  0.00    +0.000 C 
ATOM     30  N   UNL     1       1.060  13.237  19.907  0.00  0.00    +0.000 N 
ATOM     31  C   UNL     1       0.564  11.983  20.489  0.00  0.00    +0.000 C 
ATOM     32  C   UNL     1      -0.953  11.935  20.299  0.00  0.00    +0.000 C 
ATOM     33  C   UNL     1      -2.904  12.185  18.712  0.00  0.00    +0.000 C 
ENDBRANCH   1  30
BRANCH   6  34
ATOM     34  C   UNL     1       0.280  15.050  22.134  0.00  0.00    +0.000 C 
ATOM     35  N   UNL     1      -0.807  15.246  22.498  0.00  0.00    +0.000 NA
ENDBRANCH   6  34
TORSDOF 4
ENDMDL
