MODEL 1
REMARK VINA RESULT:      -8.4      0.000      0.000
REMARK  Name = 
REMARK  4 active torsions:
REMARK  status: ('A' for Active; 'I' for Inactive)
REMARK    1  A    between atoms: C_2  and  C_10
REMARK    2  A    between atoms: N_3  and  C_4
REMARK    3  A    between atoms: C_15  and  C_16
REMARK    4  A    between atoms: N_18  and  C_19
REMARK                            x       y       z     vdW  Elec       q    Type
REMARK                         _______ _______ _______ _____ _____    ______ ____
ROOT
ATOM      1  C   UNL     1       2.017   4.245  18.683  0.00  0.00    +0.000 C 
ATOM      2  C   UNL     1       1.253   2.909  18.495  0.00  0.00    +0.000 C 
ATOM      3  C   UNL     1       1.345   2.030  19.717  0.00  0.00    +0.000 C 
ATOM      4  C   UNL     1       1.677   2.506  20.928  0.00  0.00    +0.000 C 
ATOM      5  C   UNL     1       1.909   3.970  21.200  0.00  0.00    +0.000 C 
ATOM      6  C   UNL     1       1.506   4.857  20.007  0.00  0.00    +0.000 C 
ENDROOT
BRANCH   1   8
ATOM      7  O   UNL     1       4.025   2.867  18.819  0.00  0.00    +0.000 OA
ATOM      8  C   UNL     1       3.545   3.975  18.578  0.00  0.00    +0.000 C 
ATOM      9  N   UNL     1       4.308   5.001  18.083  0.00  0.00    +0.000 N 
ATOM     10  H   UNL     1       3.943   5.948  18.072  0.00  0.00    +0.000 HD
BRANCH   9  11
ATOM     11  C   UNL     1       5.756   4.939  17.959  0.00  0.00    +0.000 C 
ATOM     12  C   UNL     1       6.097   5.893  16.843  0.00  0.00    +0.000 C 
ATOM     13  C   UNL     1       6.980   6.896  16.960  0.00  0.00    +0.000 C 
ATOM     14  C   UNL     1       7.791   7.126  18.200  0.00  0.00    +0.000 C 
ATOM     15  C   UNL     1       7.837   5.881  19.088  0.00  0.00    +0.000 C 
ATOM     16  C   UNL     1       6.436   5.301  19.292  0.00  0.00    +0.000 C 
ENDBRANCH   9  11
ENDBRANCH   1   8
BRANCH   6  17
ATOM     17  C   UNL     1       1.888   6.322  20.202  0.00  0.00    +0.000 C 
ATOM     18  O   UNL     1       2.946   6.772  19.770  0.00  0.00    +0.000 OA
ATOM     19  N   UNL     1       0.937   7.103  20.818  0.00  0.00    +0.000 N 
ATOM     20  H   UNL     1       0.146   6.652  21.261  0.00  0.00    +0.000 HD
BRANCH  19  21
ATOM     21  C   UNL     1       1.177   8.499  21.165  0.00  0.00    +0.000 C 
ATOM     22  C   UNL     1       1.018   9.299  19.898  0.00  0.00    +0.000 C 
ATOM     23  C   UNL     1       0.254  10.398  19.796  0.00  0.00    +0.000 C 
ATOM     24  C   UNL     1      -0.492  10.987  20.956  0.00  0.00    +0.000 C 
ATOM     25  C   UNL     1       0.050  10.487  22.297  0.00  0.00    +0.000 C 
ATOM     26  C   UNL     1       0.228   8.966  22.287  0.00  0.00    +0.000 C 
ENDBRANCH  19  21
ENDBRANCH   6  17
TORSDOF 4
ENDMDL
MODEL 2
REMARK VINA RESULT:      -8.0      1.029      1.125
REMARK  Name = 
REMARK  4 active torsions:
REMARK  status: ('A' for Active; 'I' for Inactive)
REMARK    1  A    between atoms: C_2  and  C_10
REMARK    2  A    between atoms: N_3  and  C_4
REMARK    3  A    between atoms: C_15  and  C_16
REMARK    4  A    between atoms: N_18  and  C_19
REMARK                            x       y       z     vdW  Elec       q    Type
REMARK                         _______ _______ _______ _____ _____    ______ ____
ROOT
ATOM      1  C   UNL     1       1.293   4.334  18.952  0.00  0.00    +0.000 C 
ATOM      2  C   UNL     1       0.707   2.930  19.249  0.00  0.00    +0.000 C 
ATOM      3  C   UNL     1       1.639   2.097  20.093  0.00  0.00    +0.000 C 
ATOM      4  C   UNL     1       2.627   2.634  20.825  0.00  0.00    +0.000 C 
ATOM      5  C   UNL     1       2.851   4.120  20.939  0.00  0.00    +0.000 C 
ATOM      6  C   UNL     1       1.700   4.934  20.318  0.00  0.00    +0.000 C 
ENDROOT
BRANCH   1   8
ATOM      7  O   UNL     1       2.344   3.375  16.972  0.00  0.00    +0.000 OA
ATOM      8  C   UNL     1       2.413   4.201  17.881  0.00  0.00    +0.000 C 
ATOM      9  N   UNL     1       3.413   5.137  17.934  0.00  0.00    +0.000 N 
ATOM     10  H   UNL     1       3.561   5.679  18.779  0.00  0.00    +0.000 HD
BRANCH   9  11
ATOM     11  C   UNL     1       4.561   5.138  17.040  0.00  0.00    +0.000 C 
ATOM     12  C   UNL     1       4.932   6.590  16.877  0.00  0.00    +0.000 C 
ATOM     13  C   UNL     1       6.159   7.080  17.109  0.00  0.00    +0.000 C 
ATOM     14  C   UNL     1       7.325   6.213  17.479  0.00  0.00    +0.000 C 
ATOM     15  C   UNL     1       7.077   4.746  17.123  0.00  0.00    +0.000 C 
ATOM     16  C   UNL     1       5.706   4.285  17.618  0.00  0.00    +0.000 C 
ENDBRANCH   9  11
ENDBRANCH   1   8
BRANCH   6  17
ATOM     17  C   UNL     1       1.988   6.432  20.276  0.00  0.00    +0.000 C 
ATOM     18  O   UNL     1       2.992   6.878  19.726  0.00  0.00    +0.000 OA
ATOM     19  N   UNL     1       1.014   7.235  20.824  0.00  0.00    +0.000 N 
ATOM     20  H   UNL     1       0.277   6.807  21.370  0.00  0.00    +0.000 HD
BRANCH  19  21
ATOM     21  C   UNL     1       1.172   8.679  20.951  0.00  0.00    +0.000 C 
ATOM     22  C   UNL     1       0.792   9.280  19.621  0.00  0.00    +0.000 C 
ATOM     23  C   UNL     1      -0.071  10.298  19.478  0.00  0.00    +0.000 C 
ATOM     24  C   UNL     1      -0.720  10.991  20.639  0.00  0.00    +0.000 C 
ATOM     25  C   UNL     1       0.021  10.724  21.950  0.00  0.00    +0.000 C 
ATOM     26  C   UNL     1       0.328   9.233  22.116  0.00  0.00    +0.000 C 
ENDBRANCH  19  21
ENDBRANCH   6  17
TORSDOF 4
ENDMDL
MODEL 3
REMARK VINA RESULT:      -7.9      3.881      8.368
REMARK  Name = 
REMARK  4 active torsions:
REMARK  status: ('A' for Active; 'I' for Inactive)
REMARK    1  A    between atoms: C_2  and  C_10
REMARK    2  A    between atoms: N_3  and  C_4
REMARK    3  A    between atoms: C_15  and  C_16
REMARK    4  A    between atoms: N_18  and  C_19
REMARK                            x       y       z     vdW  Elec       q    Type
REMARK                         _______ _______ _______ _____ _____    ______ ____
ROOT
ATOM      1  C   UNL     1       5.322   5.740  17.156  0.00  0.00    +0.000 C 
ATOM      2  C   UNL     1       5.922   6.186  18.514  0.00  0.00    +0.000 C 
ATOM      3  C   UNL     1       7.075   5.308  18.936  0.00  0.00    +0.000 C 
ATOM      4  C   UNL     1       7.746   4.530  18.072  0.00  0.00    +0.000 C 
ATOM      5  C   UNL     1       7.469   4.517  16.590  0.00  0.00    +0.000 C 
ATOM      6  C   UNL     1       6.507   5.643  16.167  0.00  0.00    +0.000 C 
ENDROOT
BRANCH   1   8
ATOM      7  O   UNL     1       4.371   3.595  16.493  0.00  0.00    +0.000 OA
ATOM      8  C   UNL     1       4.479   4.451  17.371  0.00  0.00    +0.000 C 
ATOM      9  N   UNL     1       3.972   4.263  18.630  0.00  0.00    +0.000 N 
ATOM     10  H   UNL     1       3.903   5.045  19.275  0.00  0.00    +0.000 HD
BRANCH   9  11
ATOM     11  C   UNL     1       3.126   3.138  18.998  0.00  0.00    +0.000 C 
ATOM     12  C   UNL     1       3.501   2.811  20.421  0.00  0.00    +0.000 C 
ATOM     13  C   UNL     1       2.618   2.735  21.428  0.00  0.00    +0.000 C 
ATOM     14  C   UNL     1       1.140   2.887  21.229  0.00  0.00    +0.000 C 
ATOM     15  C   UNL     1       0.740   2.682  19.766  0.00  0.00    +0.000 C 
ATOM     16  C   UNL     1       1.637   3.496  18.833  0.00  0.00    +0.000 C 
ENDBRANCH   9  11
ENDBRANCH   1   8
BRANCH   6  17
ATOM     17  C   UNL     1       6.086   5.543  14.703  0.00  0.00    +0.000 C 
ATOM     18  O   UNL     1       5.416   6.420  14.165  0.00  0.00    +0.000 OA
ATOM     19  N   UNL     1       6.574   4.450  14.023  0.00  0.00    +0.000 N 
ATOM     20  H   UNL     1       7.010   3.702  14.547  0.00  0.00    +0.000 HD
BRANCH  19  21
ATOM     21  C   UNL     1       6.193   4.152  12.647  0.00  0.00    +0.000 C 
ATOM     22  C   UNL     1       7.294   3.306  12.060  0.00  0.00    +0.000 C 
ATOM     23  C   UNL     1       7.087   2.149  11.412  0.00  0.00    +0.000 C 
ATOM     24  C   UNL     1       5.719   1.591  11.152  0.00  0.00    +0.000 C 
ATOM     25  C   UNL     1       4.630   2.655  11.297  0.00  0.00    +0.000 C 
ATOM     26  C   UNL     1       4.816   3.461  12.586  0.00  0.00    +0.000 C 
ENDBRANCH  19  21
ENDBRANCH   6  17
TORSDOF 4
ENDMDL
MODEL 4
REMARK VINA RESULT:      -7.9      3.762      8.330
REMARK  Name = 
REMARK  4 active torsions:
REMARK  status: ('A' for Active; 'I' for Inactive)
REMARK    1  A    between atoms: C_2  and  C_10
REMARK    2  A    between atoms: N_3  and  C_4
REMARK    3  A    between atoms: C_15  and  C_16
REMARK    4  A    between atoms: N_18  and  C_19
REMARK                            x       y       z     vdW  Elec       q    Type
REMARK                         _______ _______ _______ _____ _____    ______ ____
ROOT
ATOM      1  C   UNL     1       6.389   6.522  16.456  0.00  0.00    +0.000 C 
ATOM      2  C   UNL     1       7.302   7.305  17.434  0.00  0.00    +0.000 C 
ATOM      3  C   UNL     1       7.776   6.442  18.577  0.00  0.00    +0.000 C 
ATOM      4  C   UNL     1       7.758   5.101  18.526  0.00  0.00    +0.000 C 
ATOM      5  C   UNL     1       7.340   4.330  17.300  0.00  0.00    +0.000 C 
ATOM      6  C   UNL     1       7.162   5.240  16.070  0.00  0.00    +0.000 C 
ENDROOT
BRANCH   1   8
ATOM      7  O   UNL     1       4.302   7.287  17.458  0.00  0.00    +0.000 OA
ATOM      8  C   UNL     1       4.991   6.329  17.110  0.00  0.00    +0.000 C 
ATOM      9  N   UNL     1       4.520   5.043  17.160  0.00  0.00    +0.000 N 
ATOM     10  H   UNL     1       5.158   4.260  17.052  0.00  0.00    +0.000 HD
BRANCH   9  11
ATOM     11  C   UNL     1       3.254   4.673  17.775  0.00  0.00    +0.000 C 
ATOM     12  C   UNL     1       2.837   3.400  17.085  0.00  0.00    +0.000 C 
ATOM     13  C   UNL     1       2.533   2.264  17.730  0.00  0.00    +0.000 C 
ATOM     14  C   UNL     1       2.494   2.162  19.225  0.00  0.00    +0.000 C 
ATOM     15  C   UNL     1       2.388   3.539  19.885  0.00  0.00    +0.000 C 
ATOM     16  C   UNL     1       3.413   4.510  19.298  0.00  0.00    +0.000 C 
ENDBRANCH   9  11
ENDBRANCH   1   8
BRANCH   6  17
ATOM     17  C   UNL     1       6.581   4.503  14.867  0.00  0.00    +0.000 C 
ATOM     18  O   UNL     1       5.992   3.433  14.992  0.00  0.00    +0.000 OA
ATOM     19  N   UNL     1       6.696   5.159  13.662  0.00  0.00    +0.000 N 
ATOM     20  H   UNL     1       7.298   5.971  13.602  0.00  0.00    +0.000 HD
BRANCH  19  21
ATOM     21  C   UNL     1       6.278   4.556  12.401  0.00  0.00    +0.000 C 
ATOM     22  C   UNL     1       7.402   3.656  11.954  0.00  0.00    +0.000 C 
ATOM     23  C   UNL     1       7.233   2.378  11.577  0.00  0.00    +0.000 C 
ATOM     24  C   UNL     1       5.890   1.715  11.510  0.00  0.00    +0.000 C 
ATOM     25  C   UNL     1       4.750   2.734  11.480  0.00  0.00    +0.000 C 
ATOM     26  C   UNL     1       4.940   3.806  12.557  0.00  0.00    +0.000 C 
ENDBRANCH  19  21
ENDBRANCH   6  17
TORSDOF 4
ENDMDL
MODEL 5
REMARK VINA RESULT:      -7.7      1.706      4.956
REMARK  Name = 
REMARK  4 active torsions:
REMARK  status: ('A' for Active; 'I' for Inactive)
REMARK    1  A    between atoms: C_2  and  C_10
REMARK    2  A    between atoms: N_3  and  C_4
REMARK    3  A    between atoms: C_15  and  C_16
REMARK    4  A    between atoms: N_18  and  C_19
REMARK                            x       y       z     vdW  Elec       q    Type
REMARK                         _______ _______ _______ _____ _____    ______ ____
ROOT
ATOM      1  C   UNL     1       5.645   6.398  18.425  0.00  0.00    +0.000 C 
ATOM      2  C   UNL     1       7.130   6.399  17.981  0.00  0.00    +0.000 C 
ATOM      3  C   UNL     1       7.330   5.655  16.683  0.00  0.00    +0.000 C 
ATOM      4  C   UNL     1       6.324   5.401  15.833  0.00  0.00    +0.000 C 
ATOM      5  C   UNL     1       4.918   5.899  16.049  0.00  0.00    +0.000 C 
ATOM      6  C   UNL     1       4.827   6.903  17.214  0.00  0.00    +0.000 C 
ENDROOT
BRANCH   1   8
ATOM      7  O   UNL     1       6.143   4.144  19.210  0.00  0.00    +0.000 OA
ATOM      8  C   UNL     1       5.281   4.992  18.981  0.00  0.00    +0.000 C 
ATOM      9  N   UNL     1       3.967   4.796  19.318  0.00  0.00    +0.000 N 
ATOM     10  H   UNL     1       3.249   5.415  18.954  0.00  0.00    +0.000 HD
BRANCH   9  11
ATOM     11  C   UNL     1       3.442   3.532  19.810  0.00  0.00    +0.000 C 
ATOM     12  C   UNL     1       2.353   3.909  20.782  0.00  0.00    +0.000 C 
ATOM     13  C   UNL     1       1.094   3.452  20.709  0.00  0.00    +0.000 C 
ATOM     14  C   UNL     1       0.651   2.444  19.691  0.00  0.00    +0.000 C 
ATOM     15  C   UNL     1       1.837   1.690  19.085  0.00  0.00    +0.000 C 
ATOM     16  C   UNL     1       2.936   2.659  18.646  0.00  0.00    +0.000 C 
ENDBRANCH   9  11
ENDBRANCH   1   8
BRANCH   6  17
ATOM     17  C   UNL     1       3.390   7.288  17.553  0.00  0.00    +0.000 C 
ATOM     18  O   UNL     1       2.492   6.452  17.590  0.00  0.00    +0.000 OA
ATOM     19  N   UNL     1       3.197   8.610  17.885  0.00  0.00    +0.000 N 
ATOM     20  H   UNL     1       3.944   9.272  17.714  0.00  0.00    +0.000 HD
BRANCH  19  21
ATOM     21  C   UNL     1       1.873   9.166  18.143  0.00  0.00    +0.000 C 
ATOM     22  C   UNL     1       1.446   8.667  19.500  0.00  0.00    +0.000 C 
ATOM     23  C   UNL     1       0.976   9.461  20.476  0.00  0.00    +0.000 C 
ATOM     24  C   UNL     1       0.772  10.936  20.305  0.00  0.00    +0.000 C 
ATOM     25  C   UNL     1       0.730  11.340  18.830  0.00  0.00    +0.000 C 
ATOM     26  C   UNL     1       1.886  10.705  18.052  0.00  0.00    +0.000 C 
ENDBRANCH  19  21
ENDBRANCH   6  17
TORSDOF 4
ENDMDL
MODEL 6
REMARK VINA RESULT:      -7.7      1.137      1.601
REMARK  Name = 
REMARK  4 active torsions:
REMARK  status: ('A' for Active; 'I' for Inactive)
REMARK    1  A    between atoms: C_2  and  C_10
REMARK    2  A    between atoms: N_3  and  C_4
REMARK    3  A    between atoms: C_15  and  C_16
REMARK    4  A    between atoms: N_18  and  C_19
REMARK                            x       y       z     vdW  Elec       q    Type
REMARK                         _______ _______ _______ _____ _____    ______ ____
ROOT
ATOM      1  C   UNL     1       1.796   4.114  18.978  0.00  0.00    +0.000 C 
ATOM      2  C   UNL     1       0.963   2.838  19.263  0.00  0.00    +0.000 C 
ATOM      3  C   UNL     1       1.309   2.224  20.596  0.00  0.00    +0.000 C 
ATOM      4  C   UNL     1       1.933   2.908  21.568  0.00  0.00    +0.000 C 
ATOM      5  C   UNL     1       2.275   4.372  21.454  0.00  0.00    +0.000 C 
ATOM      6  C   UNL     1       1.633   5.026  20.216  0.00  0.00    +0.000 C 
ENDROOT
BRANCH   1   8
ATOM      7  O   UNL     1       3.708   2.601  18.909  0.00  0.00    +0.000 OA
ATOM      8  C   UNL     1       3.247   3.699  18.599  0.00  0.00    +0.000 C 
ATOM      9  N   UNL     1       3.934   4.570  17.793  0.00  0.00    +0.000 N 
ATOM     10  H   UNL     1       3.627   5.534  17.705  0.00  0.00    +0.000 HD
BRANCH   9  11
ATOM     11  C   UNL     1       5.312   4.364  17.377  0.00  0.00    +0.000 C 
ATOM     12  C   UNL     1       5.222   3.651  16.052  0.00  0.00    +0.000 C 
ATOM     13  C   UNL     1       5.819   4.079  14.930  0.00  0.00    +0.000 C 
ATOM     14  C   UNL     1       6.716   5.279  14.892  0.00  0.00    +0.000 C 
ATOM     15  C   UNL     1       7.217   5.658  16.288  0.00  0.00    +0.000 C 
ATOM     16  C   UNL     1       6.064   5.705  17.291  0.00  0.00    +0.000 C 
ENDBRANCH   9  11
ENDBRANCH   1   8
BRANCH   6  17
ATOM     17  C   UNL     1       2.103   6.461  19.994  0.00  0.00    +0.000 C 
ATOM     18  O   UNL     1       3.167   6.711  19.434  0.00  0.00    +0.000 OA
ATOM     19  N   UNL     1       1.219   7.439  20.393  0.00  0.00    +0.000 N 
ATOM     20  H   UNL     1       0.422   7.176  20.959  0.00  0.00    +0.000 HD
BRANCH  19  21
ATOM     21  C   UNL     1       1.548   8.859  20.340  0.00  0.00    +0.000 C 
ATOM     22  C   UNL     1       1.207   9.336  18.951  0.00  0.00    +0.000 C 
ATOM     23  C   UNL     1       0.465  10.425  18.695  0.00  0.00    +0.000 C 
ATOM     24  C   UNL     1      -0.068  11.325  19.770  0.00  0.00    +0.000 C 
ATOM     25  C   UNL     1       0.671  11.132  21.095  0.00  0.00    +0.000 C 
ATOM     26  C   UNL     1       0.806   9.645  21.439  0.00  0.00    +0.000 C 
ENDBRANCH  19  21
ENDBRANCH   6  17
TORSDOF 4
ENDMDL
MODEL 7
REMARK VINA RESULT:      -7.6      0.949      1.404
REMARK  Name = 
REMARK  4 active torsions:
REMARK  status: ('A' for Active; 'I' for Inactive)
REMARK    1  A    between atoms: C_2  and  C_10
REMARK    2  A    between atoms: N_3  and  C_4
REMARK    3  A    between atoms: C_15  and  C_16
REMARK    4  A    between atoms: N_18  and  C_19
REMARK                            x       y       z     vdW  Elec       q    Type
REMARK                         _______ _______ _______ _____ _____    ______ ____
ROOT
ATOM      1  C   UNL     1       1.899   4.695  18.533  0.00  0.00    +0.000 C 
ATOM      2  C   UNL     1       1.311   3.261  18.500  0.00  0.00    +0.000 C 
ATOM      3  C   UNL     1       1.898   2.387  19.580  0.00  0.00    +0.000 C 
ATOM      4  C   UNL     1       2.514   2.888  20.663  0.00  0.00    +0.000 C 
ATOM      5  C   UNL     1       2.608   4.366  20.944  0.00  0.00    +0.000 C 
ATOM      6  C   UNL     1       1.737   5.200  19.986  0.00  0.00    +0.000 C 
ENDROOT
BRANCH   1   8
ATOM      7  O   UNL     1       4.024   3.640  17.969  0.00  0.00    +0.000 OA
ATOM      8  C   UNL     1       3.343   4.666  17.957  0.00  0.00    +0.000 C 
ATOM      9  N   UNL     1       3.766   5.807  17.326  0.00  0.00    +0.000 N 
ATOM     10  H   UNL     1       3.286   6.687  17.488  0.00  0.00    +0.000 HD
BRANCH   9  11
ATOM     11  C   UNL     1       5.100   5.972  16.769  0.00  0.00    +0.000 C 
ATOM     12  C   UNL     1       5.984   6.281  17.949  0.00  0.00    +0.000 C 
ATOM     13  C   UNL     1       7.096   5.594  18.251  0.00  0.00    +0.000 C 
ATOM     14  C   UNL     1       7.628   4.487  17.392  0.00  0.00    +0.000 C 
ATOM     15  C   UNL     1       7.053   4.542  15.975  0.00  0.00    +0.000 C 
ATOM     16  C   UNL     1       5.533   4.706  16.005  0.00  0.00    +0.000 C 
ENDBRANCH   9  11
ENDBRANCH   1   8
BRANCH   6  17
ATOM     17  C   UNL     1       1.949   6.702  20.148  0.00  0.00    +0.000 C 
ATOM     18  O   UNL     1       2.889   7.281  19.609  0.00  0.00    +0.000 OA
ATOM     19  N   UNL     1       0.977   7.360  20.867  0.00  0.00    +0.000 N 
ATOM     20  H   UNL     1       0.301   6.816  21.389  0.00  0.00    +0.000 HD
BRANCH  19  21
ATOM     21  C   UNL     1       1.074   8.778  21.196  0.00  0.00    +0.000 C 
ATOM     22  C   UNL     1       0.636   9.542  19.973  0.00  0.00    +0.000 C 
ATOM     23  C   UNL     1      -0.275  10.528  19.991  0.00  0.00    +0.000 C 
ATOM     24  C   UNL     1      -0.926  11.018  21.250  0.00  0.00    +0.000 C 
ATOM     25  C   UNL     1      -0.143  10.604  22.497  0.00  0.00    +0.000 C 
ATOM     26  C   UNL     1       0.234   9.121  22.443  0.00  0.00    +0.000 C 
ENDBRANCH  19  21
ENDBRANCH   6  17
TORSDOF 4
ENDMDL
MODEL 8
REMARK VINA RESULT:      -7.5      1.210      6.226
REMARK  Name = 
REMARK  4 active torsions:
REMARK  status: ('A' for Active; 'I' for Inactive)
REMARK    1  A    between atoms: C_2  and  C_10
REMARK    2  A    between atoms: N_3  and  C_4
REMARK    3  A    between atoms: C_15  and  C_16
REMARK    4  A    between atoms: N_18  and  C_19
REMARK                            x       y       z     vdW  Elec       q    Type
REMARK                         _______ _______ _______ _____ _____    ______ ____
ROOT
ATOM      1  C   UNL     1       2.854   4.422  20.359  0.00  0.00    +0.000 C 
ATOM      2  C   UNL     1       1.829   3.703  21.273  0.00  0.00    +0.000 C 
ATOM      3  C   UNL     1       0.629   3.215  20.499  0.00  0.00    +0.000 C 
ATOM      4  C   UNL     1       0.644   3.053  19.167  0.00  0.00    +0.000 C 
ATOM      5  C   UNL     1       1.877   3.264  18.327  0.00  0.00    +0.000 C 
ATOM      6  C   UNL     1       3.142   3.458  19.184  0.00  0.00    +0.000 C 
ENDROOT
BRANCH   1   8
ATOM      7  O   UNL     1       2.249   6.220  18.826  0.00  0.00    +0.000 OA
ATOM      8  C   UNL     1       2.307   5.831  19.993  0.00  0.00    +0.000 C 
ATOM      9  N   UNL     1       1.780   6.562  21.025  0.00  0.00    +0.000 N 
ATOM     10  H   UNL     1       2.003   6.323  21.986  0.00  0.00    +0.000 HD
BRANCH   9  11
ATOM     11  C   UNL     1       1.266   7.915  20.873  0.00  0.00    +0.000 C 
ATOM     12  C   UNL     1      -0.214   7.806  21.136  0.00  0.00    +0.000 C 
ATOM     13  C   UNL     1      -0.870   8.547  22.042  0.00  0.00    +0.000 C 
ATOM     14  C   UNL     1      -0.209   9.632  22.838  0.00  0.00    +0.000 C 
ATOM     15  C   UNL     1       1.106  10.084  22.200  0.00  0.00    +0.000 C 
ATOM     16  C   UNL     1       1.980   8.883  21.834  0.00  0.00    +0.000 C 
ENDBRANCH   9  11
ENDBRANCH   1   8
BRANCH   6  17
ATOM     17  C   UNL     1       4.366   3.838  18.357  0.00  0.00    +0.000 C 
ATOM     18  O   UNL     1       4.563   3.359  17.243  0.00  0.00    +0.000 OA
ATOM     19  N   UNL     1       5.178   4.801  18.912  0.00  0.00    +0.000 N 
ATOM     20  H   UNL     1       5.035   5.062  19.880  0.00  0.00    +0.000 HD
BRANCH  19  21
ATOM     21  C   UNL     1       6.437   5.210  18.300  0.00  0.00    +0.000 C 
ATOM     22  C   UNL     1       6.091   6.159  17.180  0.00  0.00    +0.000 C 
ATOM     23  C   UNL     1       6.664   7.362  17.014  0.00  0.00    +0.000 C 
ATOM     24  C   UNL     1       7.758   7.877  17.900  0.00  0.00    +0.000 C 
ATOM     25  C   UNL     1       8.428   6.754  18.692  0.00  0.00    +0.000 C 
ATOM     26  C   UNL     1       7.386   5.838  19.340  0.00  0.00    +0.000 C 
ENDBRANCH  19  21
ENDBRANCH   6  17
TORSDOF 4
ENDMDL
MODEL 9
REMARK VINA RESULT:      -7.4      3.189      7.270
REMARK  Name = 
REMARK  4 active torsions:
REMARK  status: ('A' for Active; 'I' for Inactive)
REMARK    1  A    between atoms: C_2  and  C_10
REMARK    2  A    between atoms: N_3  and  C_4
REMARK    3  A    between atoms: C_15  and  C_16
REMARK    4  A    between atoms: N_18  and  C_19
REMARK                            x       y       z     vdW  Elec       q    Type
REMARK                         _______ _______ _______ _____ _____    ______ ____
ROOT
ATOM      1  C   UNL     1       6.775   6.161  18.486  0.00  0.00    +0.000 C 
ATOM      2  C   UNL     1       7.155   4.664  18.356  0.00  0.00    +0.000 C 
ATOM      3  C   UNL     1       7.067   4.182  16.929  0.00  0.00    +0.000 C 
ATOM      4  C   UNL     1       7.072   5.020  15.881  0.00  0.00    +0.000 C 
ATOM      5  C   UNL     1       7.246   6.510  16.020  0.00  0.00    +0.000 C 
ATOM      6  C   UNL     1       7.638   6.921  17.452  0.00  0.00    +0.000 C 
ENDROOT
BRANCH   1   8
ATOM      7  O   UNL     1       4.722   7.108  17.572  0.00  0.00    +0.000 OA
ATOM      8  C   UNL     1       5.232   6.307  18.356  0.00  0.00    +0.000 C 
ATOM      9  N   UNL     1       4.477   5.411  19.067  0.00  0.00    +0.000 N 
ATOM     10  H   UNL     1       4.889   4.896  19.839  0.00  0.00    +0.000 HD
BRANCH   9  11
ATOM     11  C   UNL     1       3.023   5.429  19.097  0.00  0.00    +0.000 C 
ATOM     12  C   UNL     1       2.594   4.504  17.986  0.00  0.00    +0.000 C 
ATOM     13  C   UNL     1       1.758   3.469  18.156  0.00  0.00    +0.000 C 
ATOM     14  C   UNL     1       1.090   3.168  19.464  0.00  0.00    +0.000 C 
ATOM     15  C   UNL     1       1.102   4.378  20.400  0.00  0.00    +0.000 C 
ATOM     16  C   UNL     1       2.499   4.996  20.479  0.00  0.00    +0.000 C 
ENDBRANCH   9  11
ENDBRANCH   1   8
BRANCH   6  17
ATOM     17  C   UNL     1       7.655   8.434  17.651  0.00  0.00    +0.000 C 
ATOM     18  O   UNL     1       6.793   9.157  17.158  0.00  0.00    +0.000 OA
ATOM     19  N   UNL     1       8.649   8.909  18.477  0.00  0.00    +0.000 N 
ATOM     20  H   UNL     1       9.399   8.285  18.748  0.00  0.00    +0.000 HD
BRANCH  19  21
ATOM     21  C   UNL     1       8.866  10.334  18.698  0.00  0.00    +0.000 C 
ATOM     22  C   UNL     1       9.169  10.508  20.165  0.00  0.00    +0.000 C 
ATOM     23  C   UNL     1      10.221  11.198  20.636  0.00  0.00    +0.000 C 
ATOM     24  C   UNL     1      11.189  11.922  19.749  0.00  0.00    +0.000 C 
ATOM     25  C   UNL     1      10.617  12.155  18.349  0.00  0.00    +0.000 C 
ATOM     26  C   UNL     1       9.989  10.875  17.790  0.00  0.00    +0.000 C 
ENDBRANCH  19  21
ENDBRANCH   6  17
TORSDOF 4
ENDMDL
