MODEL 1
REMARK VINA RESULT:      -7.1      0.000      0.000
REMARK  Name = 
REMARK  4 active torsions:
REMARK  status: ('A' for Active; 'I' for Inactive)
REMARK    1  A    between atoms: N_1  and  C_2
REMARK    2  A    between atoms: C_2  and  C_3
REMARK    3  A    between atoms: N_6  and  C_7
REMARK    4  A    between atoms: C_7  and  C_8
REMARK                            x       y       z     vdW  Elec       q    Type
REMARK                         _______ _______ _______ _____ _____    ______ ____
ROOT
ATOM      1  C   UNL     1       6.837   6.205  17.214  0.00  0.00    +0.000 C 
ATOM      2  C   UNL     1       5.325   6.483  17.320  0.00  0.00    +0.000 C 
ATOM      3  C   UNL     1       4.422   5.441  17.987  0.00  0.00    +0.000 C 
ATOM      4  N   UNL     1       4.724   4.154  17.352  0.00  0.00    +0.000 NA
ATOM      5  C   UNL     1       5.165   4.476  15.998  0.00  0.00    +0.000 C 
ATOM      6  C   UNL     1       5.885   5.821  16.075  0.00  0.00    +0.000 C 
ENDROOT
BRANCH   1   7
ATOM      7  C   UNL     1       7.380   5.259  18.299  0.00  0.00    +0.000 C 
BRANCH   7   8
ATOM      8  N   UNL     1       8.096   4.150  17.683  0.00  0.00    +0.000 NA
ATOM      9  H   UNL     1       7.396   3.516  17.233  0.00  0.00    +0.000 HD
ATOM     10  H   UNL     1       8.581   3.603  18.431  0.00  0.00    +0.000 HD
ENDBRANCH   7   8
ENDBRANCH   1   7
BRANCH   4  11
ATOM     11  C   UNL     1       3.683   3.109  17.468  0.00  0.00    +0.000 C 
BRANCH  11  12
ATOM     12  C   UNL     1       2.902   3.167  18.765  0.00  0.00    +0.000 A 
ATOM     13  C   UNL     1       3.469   2.661  19.947  0.00  0.00    +0.000 A 
ATOM     14  C   UNL     1       2.781   2.750  21.158  0.00  0.00    +0.000 A 
ATOM     15  C   UNL     1       1.515   3.337  21.202  0.00  0.00    +0.000 A 
ATOM     16  C   UNL     1       0.931   3.826  20.031  0.00  0.00    +0.000 A 
ATOM     17  C   UNL     1       1.617   3.738  18.814  0.00  0.00    +0.000 A 
ATOM     18  F   UNL     1       1.025   4.223  17.691  0.00  0.00    +0.000 F 
ENDBRANCH  11  12
ENDBRANCH   4  11
TORSDOF 4
ENDMDL
MODEL 2
REMARK VINA RESULT:      -7.1      1.019      1.080
REMARK  Name = 
REMARK  4 active torsions:
REMARK  status: ('A' for Active; 'I' for Inactive)
REMARK    1  A    between atoms: N_1  and  C_2
REMARK    2  A    between atoms: C_2  and  C_3
REMARK    3  A    between atoms: N_6  and  C_7
REMARK    4  A    between atoms: C_7  and  C_8
REMARK                            x       y       z     vdW  Elec       q    Type
REMARK                         _______ _______ _______ _____ _____    ______ ____
ROOT
ATOM      1  C   UNL     1       7.466   6.053  18.067  0.00  0.00    +0.000 C 
ATOM      2  C   UNL     1       6.290   6.596  17.232  0.00  0.00    +0.000 C 
ATOM      3  C   UNL     1       4.881   6.054  17.494  0.00  0.00    +0.000 C 
ATOM      4  N   UNL     1       4.979   4.592  17.461  0.00  0.00    +0.000 NA
ATOM      5  C   UNL     1       6.090   4.290  16.563  0.00  0.00    +0.000 C 
ATOM      6  C   UNL     1       7.104   5.422  16.717  0.00  0.00    +0.000 C 
ENDROOT
BRANCH   1   7
ATOM      7  C   UNL     1       7.062   5.522  19.453  0.00  0.00    +0.000 C 
BRANCH   7   8
ATOM      8  N   UNL     1       8.220   5.497  20.337  0.00  0.00    +0.000 NA
ATOM      9  H   UNL     1       8.185   6.345  20.948  0.00  0.00    +0.000 HD
ATOM     10  H   UNL     1       9.089   5.560  19.760  0.00  0.00    +0.000 HD
ENDBRANCH   7   8
ENDBRANCH   1   7
BRANCH   4  11
ATOM     11  C   UNL     1       3.718   3.859  17.208  0.00  0.00    +0.000 C 
BRANCH  11  12
ATOM     12  C   UNL     1       2.927   3.555  18.463  0.00  0.00    +0.000 A 
ATOM     13  C   UNL     1       3.571   2.990  19.577  0.00  0.00    +0.000 A 
ATOM     14  C   UNL     1       2.865   2.747  20.757  0.00  0.00    +0.000 A 
ATOM     15  C   UNL     1       1.507   3.059  20.836  0.00  0.00    +0.000 A 
ATOM     16  C   UNL     1       0.850   3.602  19.730  0.00  0.00    +0.000 A 
ATOM     17  C   UNL     1       1.553   3.846  18.545  0.00  0.00    +0.000 A 
ATOM     18  F   UNL     1       0.888   4.378  17.485  0.00  0.00    +0.000 F 
ENDBRANCH  11  12
ENDBRANCH   4  11
TORSDOF 4
ENDMDL
MODEL 3
REMARK VINA RESULT:      -7.1      1.487      1.791
REMARK  Name = 
REMARK  4 active torsions:
REMARK  status: ('A' for Active; 'I' for Inactive)
REMARK    1  A    between atoms: N_1  and  C_2
REMARK    2  A    between atoms: C_2  and  C_3
REMARK    3  A    between atoms: N_6  and  C_7
REMARK    4  A    between atoms: C_7  and  C_8
REMARK                            x       y       z     vdW  Elec       q    Type
REMARK                         _______ _______ _______ _____ _____    ______ ____
ROOT
ATOM      1  C   UNL     1       7.617   5.449  18.115  0.00  0.00    +0.000 C 
ATOM      2  C   UNL     1       6.823   6.268  17.078  0.00  0.00    +0.000 C 
ATOM      3  C   UNL     1       5.341   6.556  17.336  0.00  0.00    +0.000 C 
ATOM      4  N   UNL     1       4.711   5.271  17.654  0.00  0.00    +0.000 NA
ATOM      5  C   UNL     1       5.496   4.261  16.951  0.00  0.00    +0.000 C 
ATOM      6  C   UNL     1       6.939   4.762  16.924  0.00  0.00    +0.000 C 
ENDROOT
BRANCH   1   7
ATOM      7  C   UNL     1       7.060   5.538  19.546  0.00  0.00    +0.000 C 
BRANCH   7   8
ATOM      8  N   UNL     1       8.143   5.416  20.514  0.00  0.00    +0.000 NA
ATOM      9  H   UNL     1       9.012   5.808  20.085  0.00  0.00    +0.000 HD
ATOM     10  H   UNL     1       8.315   4.402  20.704  0.00  0.00    +0.000 HD
ENDBRANCH   7   8
ENDBRANCH   1   7
BRANCH   4  11
ATOM     11  C   UNL     1       3.244   5.201  17.471  0.00  0.00    +0.000 C 
BRANCH  11  12
ATOM     12  C   UNL     1       2.530   4.425  18.558  0.00  0.00    +0.000 A 
ATOM     13  C   UNL     1       2.221   5.052  19.778  0.00  0.00    +0.000 A 
ATOM     14  C   UNL     1       1.522   4.363  20.771  0.00  0.00    +0.000 A 
ATOM     15  C   UNL     1       1.131   3.039  20.563  0.00  0.00    +0.000 A 
ATOM     16  C   UNL     1       1.451   2.398  19.364  0.00  0.00    +0.000 A 
ATOM     17  C   UNL     1       2.152   3.083  18.365  0.00  0.00    +0.000 A 
ATOM     18  F   UNL     1       2.446   2.435  17.208  0.00  0.00    +0.000 F 
ENDBRANCH  11  12
ENDBRANCH   4  11
TORSDOF 4
ENDMDL
MODEL 4
REMARK VINA RESULT:      -7.1      1.806      2.174
REMARK  Name = 
REMARK  4 active torsions:
REMARK  status: ('A' for Active; 'I' for Inactive)
REMARK    1  A    between atoms: N_1  and  C_2
REMARK    2  A    between atoms: C_2  and  C_3
REMARK    3  A    between atoms: N_6  and  C_7
REMARK    4  A    between atoms: C_7  and  C_8
REMARK                            x       y       z     vdW  Elec       q    Type
REMARK                         _______ _______ _______ _____ _____    ______ ____
ROOT
ATOM      1  C   UNL     1       7.662   5.221  18.167  0.00  0.00    +0.000 C 
ATOM      2  C   UNL     1       7.050   6.115  17.070  0.00  0.00    +0.000 C 
ATOM      3  C   UNL     1       5.655   6.708  17.286  0.00  0.00    +0.000 C 
ATOM      4  N   UNL     1       4.780   5.596  17.670  0.00  0.00    +0.000 NA
ATOM      5  C   UNL     1       5.351   4.408  17.042  0.00  0.00    +0.000 C 
ATOM      6  C   UNL     1       6.865   4.610  17.008  0.00  0.00    +0.000 C 
ENDROOT
BRANCH   1   7
ATOM      7  C   UNL     1       7.128   5.508  19.581  0.00  0.00    +0.000 C 
BRANCH   7   8
ATOM      8  N   UNL     1       8.203   5.383  20.556  0.00  0.00    +0.000 NA
ATOM      9  H   UNL     1       9.100   5.229  20.040  0.00  0.00    +0.000 HD
ATOM     10  H   UNL     1       8.029   4.537  21.146  0.00  0.00    +0.000 HD
ENDBRANCH   7   8
ENDBRANCH   1   7
BRANCH   4  11
ATOM     11  C   UNL     1       3.329   5.807  17.469  0.00  0.00    +0.000 C 
BRANCH  11  12
ATOM     12  C   UNL     1       2.458   4.967  18.379  0.00  0.00    +0.000 A 
ATOM     13  C   UNL     1       1.912   3.761  17.908  0.00  0.00    +0.000 A 
ATOM     14  C   UNL     1       1.145   2.953  18.750  0.00  0.00    +0.000 A 
ATOM     15  C   UNL     1       0.908   3.344  20.069  0.00  0.00    +0.000 A 
ATOM     16  C   UNL     1       1.427   4.551  20.544  0.00  0.00    +0.000 A 
ATOM     17  C   UNL     1       2.196   5.364  19.703  0.00  0.00    +0.000 A 
ATOM     18  F   UNL     1       2.690   6.531  20.193  0.00  0.00    +0.000 F 
ENDBRANCH  11  12
ENDBRANCH   4  11
TORSDOF 4
ENDMDL
MODEL 5
REMARK VINA RESULT:      -7.0      1.193      1.696
REMARK  Name = 
REMARK  4 active torsions:
REMARK  status: ('A' for Active; 'I' for Inactive)
REMARK    1  A    between atoms: N_1  and  C_2
REMARK    2  A    between atoms: C_2  and  C_3
REMARK    3  A    between atoms: N_6  and  C_7
REMARK    4  A    between atoms: C_7  and  C_8
REMARK                            x       y       z     vdW  Elec       q    Type
REMARK                         _______ _______ _______ _____ _____    ______ ____
ROOT
ATOM      1  C   UNL     1       6.675   6.357  17.178  0.00  0.00    +0.000 C 
ATOM      2  C   UNL     1       5.178   6.696  17.031  0.00  0.00    +0.000 C 
ATOM      3  C   UNL     1       4.141   5.782  17.692  0.00  0.00    +0.000 C 
ATOM      4  N   UNL     1       4.462   4.413  17.277  0.00  0.00    +0.000 NA
ATOM      5  C   UNL     1       5.099   4.535  15.969  0.00  0.00    +0.000 C 
ATOM      6  C   UNL     1       5.869   5.854  15.974  0.00  0.00    +0.000 C 
ENDROOT
BRANCH   1   7
ATOM      7  C   UNL     1       7.016   5.549  18.440  0.00  0.00    +0.000 C 
BRANCH   7   8
ATOM      8  N   UNL     1       7.727   4.330  18.078  0.00  0.00    +0.000 NA
ATOM      9  H   UNL     1       7.608   3.637  18.853  0.00  0.00    +0.000 HD
ATOM     10  H   UNL     1       8.748   4.543  18.001  0.00  0.00    +0.000 HD
ENDBRANCH   7   8
ENDBRANCH   1   7
BRANCH   4  11
ATOM     11  C   UNL     1       3.363   3.426  17.378  0.00  0.00    +0.000 C 
BRANCH  11  12
ATOM     12  C   UNL     1       2.732   3.355  18.753  0.00  0.00    +0.000 A 
ATOM     13  C   UNL     1       1.415   3.805  18.943  0.00  0.00    +0.000 A 
ATOM     14  C   UNL     1       0.804   3.702  20.195  0.00  0.00    +0.000 A 
ATOM     15  C   UNL     1       1.504   3.156  21.272  0.00  0.00    +0.000 A 
ATOM     16  C   UNL     1       2.821   2.724  21.102  0.00  0.00    +0.000 A 
ATOM     17  C   UNL     1       3.438   2.826  19.849  0.00  0.00    +0.000 A 
ATOM     18  F   UNL     1       4.720   2.395  19.713  0.00  0.00    +0.000 F 
ENDBRANCH  11  12
ENDBRANCH   4  11
TORSDOF 4
ENDMDL
MODEL 6
REMARK VINA RESULT:      -7.0      1.122      1.567
REMARK  Name = 
REMARK  4 active torsions:
REMARK  status: ('A' for Active; 'I' for Inactive)
REMARK    1  A    between atoms: N_1  and  C_2
REMARK    2  A    between atoms: C_2  and  C_3
REMARK    3  A    between atoms: N_6  and  C_7
REMARK    4  A    between atoms: C_7  and  C_8
REMARK                            x       y       z     vdW  Elec       q    Type
REMARK                         _______ _______ _______ _____ _____    ______ ____
ROOT
ATOM      1  C   UNL     1       6.731   4.590  16.055  0.00  0.00    +0.000 C 
ATOM      2  C   UNL     1       5.667   5.545  15.479  0.00  0.00    +0.000 C 
ATOM      3  C   UNL     1       4.829   6.391  16.442  0.00  0.00    +0.000 C 
ATOM      4  N   UNL     1       4.288   5.472  17.448  0.00  0.00    +0.000 NA
ATOM      5  C   UNL     1       4.168   4.180  16.780  0.00  0.00    +0.000 C 
ATOM      6  C   UNL     1       5.307   4.098  15.766  0.00  0.00    +0.000 C 
ENDROOT
BRANCH   1   7
ATOM      7  C   UNL     1       7.282   5.015  17.426  0.00  0.00    +0.000 C 
BRANCH   7   8
ATOM      8  N   UNL     1       8.319   4.089  17.859  0.00  0.00    +0.000 NA
ATOM      9  H   UNL     1       8.510   4.260  18.874  0.00  0.00    +0.000 HD
ATOM     10  H   UNL     1       9.199   4.296  17.334  0.00  0.00    +0.000 HD
ENDBRANCH   7   8
ENDBRANCH   1   7
BRANCH   4  11
ATOM     11  C   UNL     1       3.092   5.941  18.184  0.00  0.00    +0.000 C 
BRANCH  11  12
ATOM     12  C   UNL     1       2.465   4.882  19.066  0.00  0.00    +0.000 A 
ATOM     13  C   UNL     1       2.929   4.701  20.380  0.00  0.00    +0.000 A 
ATOM     14  C   UNL     1       2.330   3.761  21.221  0.00  0.00    +0.000 A 
ATOM     15  C   UNL     1       1.267   2.985  20.757  0.00  0.00    +0.000 A 
ATOM     16  C   UNL     1       0.809   3.140  19.446  0.00  0.00    +0.000 A 
ATOM     17  C   UNL     1       1.407   4.080  18.600  0.00  0.00    +0.000 A 
ATOM     18  F   UNL     1       0.939   4.211  17.331  0.00  0.00    +0.000 F 
ENDBRANCH  11  12
ENDBRANCH   4  11
TORSDOF 4
ENDMDL
MODEL 7
REMARK VINA RESULT:      -6.9      2.257      5.343
REMARK  Name = 
REMARK  4 active torsions:
REMARK  status: ('A' for Active; 'I' for Inactive)
REMARK    1  A    between atoms: N_1  and  C_2
REMARK    2  A    between atoms: C_2  and  C_3
REMARK    3  A    between atoms: N_6  and  C_7
REMARK    4  A    between atoms: C_7  and  C_8
REMARK                            x       y       z     vdW  Elec       q    Type
REMARK                         _______ _______ _______ _____ _____    ______ ____
ROOT
ATOM      1  C   UNL     1       1.355   2.838  19.975  0.00  0.00    +0.000 C 
ATOM      2  C   UNL     1       1.557   2.112  18.631  0.00  0.00    +0.000 C 
ATOM      3  C   UNL     1       2.923   2.189  17.943  0.00  0.00    +0.000 C 
ATOM      4  N   UNL     1       3.288   3.608  17.887  0.00  0.00    +0.000 NA
ATOM      5  C   UNL     1       2.025   4.339  17.839  0.00  0.00    +0.000 C 
ATOM      6  C   UNL     1       1.014   3.530  18.650  0.00  0.00    +0.000 C 
ENDROOT
BRANCH   1   7
ATOM      7  C   UNL     1       2.646   3.026  20.789  0.00  0.00    +0.000 C 
BRANCH   7   8
ATOM      8  N   UNL     1       2.343   3.039  22.214  0.00  0.00    +0.000 NA
ATOM      9  H   UNL     1       1.434   2.543  22.362  0.00  0.00    +0.000 HD
ATOM     10  H   UNL     1       2.215   4.030  22.524  0.00  0.00    +0.000 HD
ENDBRANCH   7   8
ENDBRANCH   1   7
BRANCH   4  11
ATOM     11  C   UNL     1       4.298   3.982  16.872  0.00  0.00    +0.000 C 
BRANCH  11  12
ATOM     12  C   UNL     1       5.424   4.835  17.418  0.00  0.00    +0.000 A 
ATOM     13  C   UNL     1       5.780   4.739  18.774  0.00  0.00    +0.000 A 
ATOM     14  C   UNL     1       6.847   5.485  19.282  0.00  0.00    +0.000 A 
ATOM     15  C   UNL     1       7.564   6.340  18.444  0.00  0.00    +0.000 A 
ATOM     16  C   UNL     1       7.207   6.460  17.098  0.00  0.00    +0.000 A 
ATOM     17  C   UNL     1       6.139   5.716  16.585  0.00  0.00    +0.000 A 
ATOM     18  F   UNL     1       5.816   5.851  15.272  0.00  0.00    +0.000 F 
ENDBRANCH  11  12
ENDBRANCH   4  11
TORSDOF 4
ENDMDL
MODEL 8
REMARK VINA RESULT:      -6.9      2.480      5.693
REMARK  Name = 
REMARK  4 active torsions:
REMARK  status: ('A' for Active; 'I' for Inactive)
REMARK    1  A    between atoms: N_1  and  C_2
REMARK    2  A    between atoms: C_2  and  C_3
REMARK    3  A    between atoms: N_6  and  C_7
REMARK    4  A    between atoms: C_7  and  C_8
REMARK                            x       y       z     vdW  Elec       q    Type
REMARK                         _______ _______ _______ _____ _____    ______ ____
ROOT
ATOM      1  C   UNL     1       1.073   3.023  19.909  0.00  0.00    +0.000 C 
ATOM      2  C   UNL     1       1.717   4.189  20.686  0.00  0.00    +0.000 C 
ATOM      3  C   UNL     1       2.845   4.988  20.027  0.00  0.00    +0.000 C 
ATOM      4  N   UNL     1       3.826   4.011  19.545  0.00  0.00    +0.000 NA
ATOM      5  C   UNL     1       3.711   2.861  20.436  0.00  0.00    +0.000 C 
ATOM      6  C   UNL     1       2.247   2.778  20.864  0.00  0.00    +0.000 C 
ENDROOT
BRANCH   1   7
ATOM      7  C   UNL     1       1.163   3.161  18.380  0.00  0.00    +0.000 C 
BRANCH   7   8
ATOM      8  N   UNL     1       1.816   1.991  17.808  0.00  0.00    +0.000 NA
ATOM      9  H   UNL     1       1.539   1.919  16.802  0.00  0.00    +0.000 HD
ATOM     10  H   UNL     1       1.464   1.135  18.295  0.00  0.00    +0.000 HD
ENDBRANCH   7   8
ENDBRANCH   1   7
BRANCH   4  11
ATOM     11  C   UNL     1       5.196   4.522  19.312  0.00  0.00    +0.000 C 
BRANCH  11  12
ATOM     12  C   UNL     1       5.622   4.487  17.859  0.00  0.00    +0.000 A 
ATOM     13  C   UNL     1       4.663   4.278  16.854  0.00  0.00    +0.000 A 
ATOM     14  C   UNL     1       5.034   4.288  15.507  0.00  0.00    +0.000 A 
ATOM     15  C   UNL     1       6.366   4.499  15.150  0.00  0.00    +0.000 A 
ATOM     16  C   UNL     1       7.333   4.688  16.141  0.00  0.00    +0.000 A 
ATOM     17  C   UNL     1       6.967   4.677  17.491  0.00  0.00    +0.000 A 
ATOM     18  F   UNL     1       7.928   4.865  18.433  0.00  0.00    +0.000 F 
ENDBRANCH  11  12
ENDBRANCH   4  11
TORSDOF 4
ENDMDL
MODEL 9
REMARK VINA RESULT:      -6.8      1.360      1.669
REMARK  Name = 
REMARK  4 active torsions:
REMARK  status: ('A' for Active; 'I' for Inactive)
REMARK    1  A    between atoms: N_1  and  C_2
REMARK    2  A    between atoms: C_2  and  C_3
REMARK    3  A    between atoms: N_6  and  C_7
REMARK    4  A    between atoms: C_7  and  C_8
REMARK                            x       y       z     vdW  Elec       q    Type
REMARK                         _______ _______ _______ _____ _____    ______ ____
ROOT
ATOM      1  C   UNL     1       7.273   5.320  17.338  0.00  0.00    +0.000 C 
ATOM      2  C   UNL     1       6.203   5.805  16.340  0.00  0.00    +0.000 C 
ATOM      3  C   UNL     1       4.983   6.564  16.869  0.00  0.00    +0.000 C 
ATOM      4  N   UNL     1       4.425   5.756  17.958  0.00  0.00    +0.000 NA
ATOM      5  C   UNL     1       4.768   4.373  17.641  0.00  0.00    +0.000 C 
ATOM      6  C   UNL     1       6.115   4.406  16.922  0.00  0.00    +0.000 C 
ENDROOT
BRANCH   1   7
ATOM      7  C   UNL     1       7.351   6.151  18.630  0.00  0.00    +0.000 C 
BRANCH   7   8
ATOM      8  N   UNL     1       7.196   5.287  19.793  0.00  0.00    +0.000 NA
ATOM      9  H   UNL     1       6.674   4.430  19.498  0.00  0.00    +0.000 HD
ATOM     10  H   UNL     1       6.612   5.781  20.506  0.00  0.00    +0.000 HD
ENDBRANCH   7   8
ENDBRANCH   1   7
BRANCH   4  11
ATOM     11  C   UNL     1       3.008   6.015  18.302  0.00  0.00    +0.000 C 
BRANCH  11  12
ATOM     12  C   UNL     1       2.384   4.939  19.166  0.00  0.00    +0.000 A 
ATOM     13  C   UNL     1       2.703   4.865  20.533  0.00  0.00    +0.000 A 
ATOM     14  C   UNL     1       2.100   3.908  21.351  0.00  0.00    +0.000 A 
ATOM     15  C   UNL     1       1.179   3.008  20.813  0.00  0.00    +0.000 A 
ATOM     16  C   UNL     1       0.868   3.057  19.452  0.00  0.00    +0.000 A 
ATOM     17  C   UNL     1       1.471   4.014  18.628  0.00  0.00    +0.000 A 
ATOM     18  F   UNL     1       1.148   4.039  17.308  0.00  0.00    +0.000 F 
ENDBRANCH  11  12
ENDBRANCH   4  11
TORSDOF 4
ENDMDL
