MODEL 1
REMARK VINA RESULT:      -6.7      0.000      0.000
REMARK  Name = 
REMARK  0 active torsions:
REMARK  status: ('A' for Active; 'I' for Inactive)
REMARK                            x       y       z     vdW  Elec       q    Type
REMARK                         _______ _______ _______ _____ _____    ______ ____
ROOT
ATOM      1  O   UNL     1       6.289   4.384  18.501  0.00  0.00    +0.000 OA
ATOM      2  S   UNL     1       4.928   3.968  18.219  0.00  0.00    +0.000 S 
ATOM      3  O   UNL     1       4.568   3.454  16.909  0.00  0.00    +0.000 OA
ATOM      4  C   UNL     1       4.474   2.730  19.433  0.00  0.00    +0.000 C 
ATOM      5  C   UNL     1       3.395   3.144  20.345  0.00  0.00    +0.000 A 
ATOM      6  C   UNL     1       2.781   2.456  21.407  0.00  0.00    +0.000 A 
ATOM      7  N   UNL     1       1.830   3.190  21.993  0.00  0.00    +0.000 NA
ATOM      8  O   UNL     1       1.814   4.396  21.301  0.00  0.00    +0.000 OA
ATOM      9  C   UNL     1       2.752   4.352  20.321  0.00  0.00    +0.000 A 
ATOM     10  C   UNL     1       2.942   5.487  19.450  0.00  0.00    +0.000 A 
ATOM     11  C   UNL     1       2.180   6.657  19.558  0.00  0.00    +0.000 A 
ATOM     12  C   UNL     1       2.402   7.732  18.689  0.00  0.00    +0.000 A 
ATOM     13  C   UNL     1       3.388   7.652  17.706  0.00  0.00    +0.000 A 
ATOM     14  C   UNL     1       4.154   6.496  17.586  0.00  0.00    +0.000 A 
ATOM     15  C   UNL     1       3.924   5.421  18.453  0.00  0.00    +0.000 A 
ENDROOT
TORSDOF 0
ENDMDL
MODEL 2
REMARK VINA RESULT:      -6.7      1.963      3.976
REMARK  Name = 
REMARK  0 active torsions:
REMARK  status: ('A' for Active; 'I' for Inactive)
REMARK                            x       y       z     vdW  Elec       q    Type
REMARK                         _______ _______ _______ _____ _____    ______ ____
ROOT
ATOM      1  O   UNL     1       4.456   3.296  17.036  0.00  0.00    +0.000 OA
ATOM      2  S   UNL     1       4.848   4.269  18.039  0.00  0.00    +0.000 S 
ATOM      3  O   UNL     1       6.179   4.236  18.622  0.00  0.00    +0.000 OA
ATOM      4  C   UNL     1       4.601   5.901  17.341  0.00  0.00    +0.000 C 
ATOM      5  C   UNL     1       3.560   6.696  18.013  0.00  0.00    +0.000 A 
ATOM      6  C   UNL     1       3.091   7.997  17.754  0.00  0.00    +0.000 A 
ATOM      7  N   UNL     1       2.124   8.357  18.603  0.00  0.00    +0.000 NA
ATOM      8  O   UNL     1       1.947   7.266  19.447  0.00  0.00    +0.000 OA
ATOM      9  C   UNL     1       2.811   6.285  19.083  0.00  0.00    +0.000 A 
ATOM     10  C   UNL     1       2.832   5.035  19.804  0.00  0.00    +0.000 A 
ATOM     11  C   UNL     1       1.994   4.780  20.897  0.00  0.00    +0.000 A 
ATOM     12  C   UNL     1       2.051   3.551  21.564  0.00  0.00    +0.000 A 
ATOM     13  C   UNL     1       2.942   2.562  21.147  0.00  0.00    +0.000 A 
ATOM     14  C   UNL     1       3.781   2.800  20.062  0.00  0.00    +0.000 A 
ATOM     15  C   UNL     1       3.725   4.033  19.402  0.00  0.00    +0.000 A 
ENDROOT
TORSDOF 0
ENDMDL
MODEL 3
REMARK VINA RESULT:      -6.6      2.804      4.137
REMARK  Name = 
REMARK  0 active torsions:
REMARK  status: ('A' for Active; 'I' for Inactive)
REMARK                            x       y       z     vdW  Elec       q    Type
REMARK                         _______ _______ _______ _____ _____    ______ ____
ROOT
ATOM      1  O   UNL     1       2.807   2.280  18.182  0.00  0.00    +0.000 OA
ATOM      2  S   UNL     1       3.919   3.140  18.542  0.00  0.00    +0.000 S 
ATOM      3  O   UNL     1       4.826   2.768  19.614  0.00  0.00    +0.000 OA
ATOM      4  C   UNL     1       4.900   3.408  17.067  0.00  0.00    +0.000 C 
ATOM      5  C   UNL     1       4.910   4.802  16.591  0.00  0.00    +0.000 A 
ATOM      6  C   UNL     1       5.555   5.387  15.486  0.00  0.00    +0.000 A 
ATOM      7  N   UNL     1       5.308   6.698  15.402  0.00  0.00    +0.000 NA
ATOM      8  O   UNL     1       4.479   6.989  16.479  0.00  0.00    +0.000 OA
ATOM      9  C   UNL     1       4.252   5.848  17.179  0.00  0.00    +0.000 A 
ATOM     10  C   UNL     1       3.414   5.875  18.354  0.00  0.00    +0.000 A 
ATOM     11  C   UNL     1       2.818   7.049  18.829  0.00  0.00    +0.000 A 
ATOM     12  C   UNL     1       2.013   7.025  19.974  0.00  0.00    +0.000 A 
ATOM     13  C   UNL     1       1.791   5.828  20.654  0.00  0.00    +0.000 A 
ATOM     14  C   UNL     1       2.376   4.651  20.194  0.00  0.00    +0.000 A 
ATOM     15  C   UNL     1       3.187   4.683  19.052  0.00  0.00    +0.000 A 
ENDROOT
TORSDOF 0
ENDMDL
MODEL 4
REMARK VINA RESULT:      -6.6      2.229      3.049
REMARK  Name = 
REMARK  0 active torsions:
REMARK  status: ('A' for Active; 'I' for Inactive)
REMARK                            x       y       z     vdW  Elec       q    Type
REMARK                         _______ _______ _______ _____ _____    ______ ____
ROOT
ATOM      1  O   UNL     1       4.149   2.181  18.935  0.00  0.00    +0.000 OA
ATOM      2  S   UNL     1       3.088   2.970  18.337  0.00  0.00    +0.000 S 
ATOM      3  O   UNL     1       2.190   2.382  17.358  0.00  0.00    +0.000 OA
ATOM      4  C   UNL     1       2.086   3.632  19.667  0.00  0.00    +0.000 C 
ATOM      5  C   UNL     1       2.130   5.099  19.786  0.00  0.00    +0.000 A 
ATOM      6  C   UNL     1       1.488   5.963  20.691  0.00  0.00    +0.000 A 
ATOM      7  N   UNL     1       1.795   7.244  20.460  0.00  0.00    +0.000 NA
ATOM      8  O   UNL     1       2.662   7.228  19.374  0.00  0.00    +0.000 OA
ATOM      9  C   UNL     1       2.851   5.942  18.983  0.00  0.00    +0.000 A 
ATOM     10  C   UNL     1       3.717   5.645  17.867  0.00  0.00    +0.000 A 
ATOM     11  C   UNL     1       4.379   6.641  17.140  0.00  0.00    +0.000 A 
ATOM     12  C   UNL     1       5.209   6.303  16.064  0.00  0.00    +0.000 A 
ATOM     13  C   UNL     1       5.390   4.967  15.706  0.00  0.00    +0.000 A 
ATOM     14  C   UNL     1       4.739   3.965  16.420  0.00  0.00    +0.000 A 
ATOM     15  C   UNL     1       3.905   4.309  17.490  0.00  0.00    +0.000 A 
ENDROOT
TORSDOF 0
ENDMDL
MODEL 5
REMARK VINA RESULT:      -6.5      2.746      3.937
REMARK  Name = 
REMARK  0 active torsions:
REMARK  status: ('A' for Active; 'I' for Inactive)
REMARK                            x       y       z     vdW  Elec       q    Type
REMARK                         _______ _______ _______ _____ _____    ______ ____
ROOT
ATOM      1  O   UNL     1       5.210   3.277  19.584  0.00  0.00    +0.000 OA
ATOM      2  S   UNL     1       4.079   3.594  18.732  0.00  0.00    +0.000 S 
ATOM      3  O   UNL     1       3.219   2.541  18.221  0.00  0.00    +0.000 OA
ATOM      4  C   UNL     1       3.044   4.762  19.613  0.00  0.00    +0.000 C 
ATOM      5  C   UNL     1       2.968   6.094  18.990  0.00  0.00    +0.000 A 
ATOM      6  C   UNL     1       2.268   7.250  19.383  0.00  0.00    +0.000 A 
ATOM      7  N   UNL     1       2.464   8.264  18.534  0.00  0.00    +0.000 NA
ATOM      8  O   UNL     1       3.315   7.767  17.553  0.00  0.00    +0.000 OA
ATOM      9  C   UNL     1       3.605   6.472  17.839  0.00  0.00    +0.000 A 
ATOM     10  C   UNL     1       4.476   5.718  16.970  0.00  0.00    +0.000 A 
ATOM     11  C   UNL     1       5.043   6.262  15.812  0.00  0.00    +0.000 A 
ATOM     12  C   UNL     1       5.883   5.490  15.001  0.00  0.00    +0.000 A 
ATOM     13  C   UNL     1       6.170   4.168  15.339  0.00  0.00    +0.000 A 
ATOM     14  C   UNL     1       5.614   3.612  16.488  0.00  0.00    +0.000 A 
ATOM     15  C   UNL     1       4.769   4.386  17.292  0.00  0.00    +0.000 A 
ENDROOT
TORSDOF 0
ENDMDL
MODEL 6
REMARK VINA RESULT:      -6.5      3.176      4.283
REMARK  Name = 
REMARK  0 active torsions:
REMARK  status: ('A' for Active; 'I' for Inactive)
REMARK                            x       y       z     vdW  Elec       q    Type
REMARK                         _______ _______ _______ _____ _____    ______ ____
ROOT
ATOM      1  O   UNL     1       5.013   5.932  15.178  0.00  0.00    +0.000 OA
ATOM      2  S   UNL     1       5.703   4.825  15.814  0.00  0.00    +0.000 S 
ATOM      3  O   UNL     1       6.093   3.655  15.045  0.00  0.00    +0.000 OA
ATOM      4  C   UNL     1       7.177   5.478  16.595  0.00  0.00    +0.000 C 
ATOM      5  C   UNL     1       7.177   5.383  18.064  0.00  0.00    +0.000 A 
ATOM      6  C   UNL     1       8.141   5.783  19.008  0.00  0.00    +0.000 A 
ATOM      7  N   UNL     1       7.754   5.517  20.260  0.00  0.00    +0.000 NA
ATOM      8  O   UNL     1       6.501   4.926  20.142  0.00  0.00    +0.000 OA
ATOM      9  C   UNL     1       6.172   4.852  18.828  0.00  0.00    +0.000 A 
ATOM     10  C   UNL     1       4.910   4.276  18.429  0.00  0.00    +0.000 A 
ATOM     11  C   UNL     1       3.989   3.764  19.351  0.00  0.00    +0.000 A 
ATOM     12  C   UNL     1       2.778   3.214  18.915  0.00  0.00    +0.000 A 
ATOM     13  C   UNL     1       2.470   3.173  17.556  0.00  0.00    +0.000 A 
ATOM     14  C   UNL     1       3.375   3.679  16.626  0.00  0.00    +0.000 A 
ATOM     15  C   UNL     1       4.589   4.221  17.067  0.00  0.00    +0.000 A 
ENDROOT
TORSDOF 0
ENDMDL
MODEL 7
REMARK VINA RESULT:      -6.4      2.727      3.967
REMARK  Name = 
REMARK  0 active torsions:
REMARK  status: ('A' for Active; 'I' for Inactive)
REMARK                            x       y       z     vdW  Elec       q    Type
REMARK                         _______ _______ _______ _____ _____    ______ ____
ROOT
ATOM      1  O   UNL     1       1.608   2.343  18.914  0.00  0.00    +0.000 OA
ATOM      2  S   UNL     1       2.900   2.929  19.214  0.00  0.00    +0.000 S 
ATOM      3  O   UNL     1       3.644   2.520  20.392  0.00  0.00    +0.000 OA
ATOM      4  C   UNL     1       3.958   2.676  17.789  0.00  0.00    +0.000 C 
ATOM      5  C   UNL     1       4.357   3.916  17.103  0.00  0.00    +0.000 A 
ATOM      6  C   UNL     1       5.166   4.114  15.969  0.00  0.00    +0.000 A 
ATOM      7  N   UNL     1       5.285   5.410  15.662  0.00  0.00    +0.000 NA
ATOM      8  O   UNL     1       4.536   6.087  16.618  0.00  0.00    +0.000 OA
ATOM      9  C   UNL     1       3.991   5.182  17.470  0.00  0.00    +0.000 A 
ATOM     10  C   UNL     1       3.160   5.627  18.563  0.00  0.00    +0.000 A 
ATOM     11  C   UNL     1       2.891   6.980  18.804  0.00  0.00    +0.000 A 
ATOM     12  C   UNL     1       2.078   7.363  19.878  0.00  0.00    +0.000 A 
ATOM     13  C   UNL     1       1.523   6.399  20.720  0.00  0.00    +0.000 A 
ATOM     14  C   UNL     1       1.780   5.050  20.493  0.00  0.00    +0.000 A 
ATOM     15  C   UNL     1       2.599   4.673  19.422  0.00  0.00    +0.000 A 
ENDROOT
TORSDOF 0
ENDMDL
MODEL 8
REMARK VINA RESULT:      -6.4      2.968      4.107
REMARK  Name = 
REMARK  0 active torsions:
REMARK  status: ('A' for Active; 'I' for Inactive)
REMARK                            x       y       z     vdW  Elec       q    Type
REMARK                         _______ _______ _______ _____ _____    ______ ____
ROOT
ATOM      1  O   UNL     1       7.280   6.860  18.052  0.00  0.00    +0.000 OA
ATOM      2  S   UNL     1       7.034   5.433  18.143  0.00  0.00    +0.000 S 
ATOM      3  O   UNL     1       8.108   4.517  18.484  0.00  0.00    +0.000 OA
ATOM      4  C   UNL     1       5.709   5.183  19.323  0.00  0.00    +0.000 C 
ATOM      5  C   UNL     1       4.475   4.631  18.741  0.00  0.00    +0.000 A 
ATOM      6  C   UNL     1       3.245   4.305  19.341  0.00  0.00    +0.000 A 
ATOM      7  N   UNL     1       2.369   3.823  18.454  0.00  0.00    +0.000 NA
ATOM      8  O   UNL     1       3.036   3.830  17.234  0.00  0.00    +0.000 OA
ATOM      9  C   UNL     1       4.290   4.313  17.422  0.00  0.00    +0.000 A 
ATOM     10  C   UNL     1       5.197   4.425  16.305  0.00  0.00    +0.000 A 
ATOM     11  C   UNL     1       4.845   4.040  15.005  0.00  0.00    +0.000 A 
ATOM     12  C   UNL     1       5.760   4.168  13.954  0.00  0.00    +0.000 A 
ATOM     13  C   UNL     1       7.034   4.686  14.186  0.00  0.00    +0.000 A 
ATOM     14  C   UNL     1       7.398   5.075  15.473  0.00  0.00    +0.000 A 
ATOM     15  C   UNL     1       6.482   4.937  16.522  0.00  0.00    +0.000 A 
ENDROOT
TORSDOF 0
ENDMDL
MODEL 9
REMARK VINA RESULT:      -6.4      3.233      4.413
REMARK  Name = 
REMARK  0 active torsions:
REMARK  status: ('A' for Active; 'I' for Inactive)
REMARK                            x       y       z     vdW  Elec       q    Type
REMARK                         _______ _______ _______ _____ _____    ______ ____
ROOT
ATOM      1  O   UNL     1       2.318   3.140  17.023  0.00  0.00    +0.000 OA
ATOM      2  S   UNL     1       3.441   3.635  17.797  0.00  0.00    +0.000 S 
ATOM      3  O   UNL     1       3.595   3.272  19.195  0.00  0.00    +0.000 OA
ATOM      4  C   UNL     1       4.943   3.158  16.942  0.00  0.00    +0.000 C 
ATOM      5  C   UNL     1       5.729   4.289  16.421  0.00  0.00    +0.000 A 
ATOM      6  C   UNL     1       6.942   4.309  15.709  0.00  0.00    +0.000 A 
ATOM      7  N   UNL     1       7.327   5.555  15.417  0.00  0.00    +0.000 NA
ATOM      8  O   UNL     1       6.344   6.382  15.949  0.00  0.00    +0.000 OA
ATOM      9  C   UNL     1       5.399   5.611  16.545  0.00  0.00    +0.000 A 
ATOM     10  C   UNL     1       4.259   6.228  17.180  0.00  0.00    +0.000 A 
ATOM     11  C   UNL     1       4.078   7.615  17.225  0.00  0.00    +0.000 A 
ATOM     12  C   UNL     1       2.955   8.166  17.853  0.00  0.00    +0.000 A 
ATOM     13  C   UNL     1       1.998   7.338  18.439  0.00  0.00    +0.000 A 
ATOM     14  C   UNL     1       2.162   5.956  18.403  0.00  0.00    +0.000 A 
ATOM     15  C   UNL     1       3.291   5.411  17.779  0.00  0.00    +0.000 A 
ENDROOT
TORSDOF 0
ENDMDL
