MODEL 1
REMARK VINA RESULT:      -9.1      0.000      0.000
REMARK  Name = 
REMARK  9 active torsions:
REMARK  status: ('A' for Active; 'I' for Inactive)
REMARK    1  A    between atoms: C_1  and  C_2
REMARK    2  A    between atoms: N_4  and  C_5
REMARK    3  A    between atoms: C_5  and  C_6
REMARK    4  A    between atoms: C_5  and  C_7
REMARK    5  A    between atoms: C_5  and  C_8
REMARK    6  A    between atoms: C_13  and  C_14
REMARK    7  A    between atoms: C_16  and  C_17
REMARK    8  A    between atoms: N_19  and  C_20
REMARK    9  A    between atoms: C_26  and  C_27
REMARK                            x       y       z     vdW  Elec       q    Type
REMARK                         _______ _______ _______ _____ _____    ______ ____
ROOT
ATOM      1  C   UNL     1       0.655  10.895  19.834  0.00  0.00    +0.000 A 
ATOM      2  N   UNL     1       0.402  10.725  21.123  0.00  0.00    +0.000 NA
ATOM      3  N   UNL     1       0.811   9.473  21.499  0.00  0.00    +0.000 NA
ATOM      4  C   UNL     1       1.300   8.877  20.439  0.00  0.00    +0.000 A 
ATOM      5  C   UNL     1       1.877   7.589  20.255  0.00  0.00    +0.000 A 
ATOM      6  C   UNL     1       2.303   7.202  19.031  0.00  0.00    +0.000 A 
ATOM      7  C   UNL     1       2.146   8.107  17.887  0.00  0.00    +0.000 A 
ATOM      8  C   UNL     1       1.611   9.328  18.063  0.00  0.00    +0.000 A 
ATOM      9  N   UNL     1       1.206   9.722  19.339  0.00  0.00    +0.000 N 
ENDROOT
BRANCH   6  10
ATOM     10  C   UNL     1       2.952   5.880  18.909  0.00  0.00    +0.000 A 
ATOM     11  C   UNL     1       4.050   5.760  18.033  0.00  0.00    +0.000 A 
ATOM     12  C   UNL     1       4.702   4.529  17.865  0.00  0.00    +0.000 A 
ATOM     13  C   UNL     1       4.245   3.412  18.561  0.00  0.00    +0.000 A 
ATOM     14  C   UNL     1       3.161   3.530  19.424  0.00  0.00    +0.000 A 
ATOM     15  F   UNL     1       2.753   2.435  20.084  0.00  0.00    +0.000 F 
ATOM     16  C   UNL     1       2.494   4.747  19.614  0.00  0.00    +0.000 A 
ATOM     17  C   UNL     1       1.325   4.807  20.556  0.00  0.00    +0.000 C 
BRANCH  12  18
ATOM     18  C   UNL     1       5.837   4.345  16.923  0.00  0.00    +0.000 C 
ATOM     19  O   UNL     1       6.982   4.543  17.315  0.00  0.00    +0.000 OA
ATOM     20  N   UNL     1       5.524   3.975  15.627  0.00  0.00    +0.000 N 
ATOM     21  H   UNL     1       4.555   3.965  15.330  0.00  0.00    +0.000 HD
BRANCH  20  22
ATOM     22  C   UNL     1       6.531   3.820  14.624  0.00  0.00    +0.000 C 
ATOM     23  C   UNL     1       6.169   3.743  13.166  0.00  0.00    +0.000 C 
ATOM     24  C   UNL     1       6.868   4.958  13.701  0.00  0.00    +0.000 C 
ENDBRANCH  20  22
ENDBRANCH  12  18
ENDBRANCH   6  10
BRANCH   1  25
ATOM     25  C   UNL     1       0.387  12.174  19.052  0.00  0.00    +0.000 C 
ATOM     26  C   UNL     1       1.710  12.767  18.531  0.00  0.00    +0.000 C 
ATOM     27  C   UNL     1      -0.262  13.215  19.997  0.00  0.00    +0.000 C 
BRANCH  25  31
ATOM     28  C   UNL     1      -2.559  11.134  16.858  0.00  0.00    +0.000 C 
ATOM     29  C   UNL     1      -1.867  11.552  18.127  0.00  0.00    +0.000 C 
ATOM     30  O   UNL     1      -2.461  11.626  19.195  0.00  0.00    +0.000 OA
ATOM     31  N   UNL     1      -0.530  11.839  17.950  0.00  0.00    +0.000 N 
ATOM     32  H   UNL     1      -0.127  11.617  17.048  0.00  0.00    +0.000 HD
ENDBRANCH  25  31
ENDBRANCH   1  25
TORSDOF 5
ENDMDL
MODEL 2
REMARK VINA RESULT:      -8.8      1.268      1.941
REMARK  Name = 
REMARK  9 active torsions:
REMARK  status: ('A' for Active; 'I' for Inactive)
REMARK    1  A    between atoms: C_1  and  C_2
REMARK    2  A    between atoms: N_4  and  C_5
REMARK    3  A    between atoms: C_5  and  C_6
REMARK    4  A    between atoms: C_5  and  C_7
REMARK    5  A    between atoms: C_5  and  C_8
REMARK    6  A    between atoms: C_13  and  C_14
REMARK    7  A    between atoms: C_16  and  C_17
REMARK    8  A    between atoms: N_19  and  C_20
REMARK    9  A    between atoms: C_26  and  C_27
REMARK                            x       y       z     vdW  Elec       q    Type
REMARK                         _______ _______ _______ _____ _____    ______ ____
ROOT
ATOM      1  C   UNL     1       0.775  10.648  20.583  0.00  0.00    +0.000 A 
ATOM      2  N   UNL     1       0.602  10.375  21.869  0.00  0.00    +0.000 NA
ATOM      3  N   UNL     1       0.985   9.082  22.109  0.00  0.00    +0.000 NA
ATOM      4  C   UNL     1       1.379   8.564  20.970  0.00  0.00    +0.000 A 
ATOM      5  C   UNL     1       1.891   7.279  20.639  0.00  0.00    +0.000 A 
ATOM      6  C   UNL     1       2.218   6.985  19.360  0.00  0.00    +0.000 A 
ATOM      7  C   UNL     1       2.020   7.990  18.310  0.00  0.00    +0.000 A 
ATOM      8  C   UNL     1       1.548   9.208  18.625  0.00  0.00    +0.000 A 
ATOM      9  N   UNL     1       1.245   9.504  19.955  0.00  0.00    +0.000 N 
ENDROOT
BRANCH   6  10
ATOM     10  C   UNL     1       2.804   5.657  19.082  0.00  0.00    +0.000 A 
ATOM     11  C   UNL     1       3.948   5.597  18.260  0.00  0.00    +0.000 A 
ATOM     12  C   UNL     1       4.544   4.365  17.950  0.00  0.00    +0.000 A 
ATOM     13  C   UNL     1       3.988   3.190  18.449  0.00  0.00    +0.000 A 
ATOM     14  C   UNL     1       2.859   3.248  19.260  0.00  0.00    +0.000 A 
ATOM     15  F   UNL     1       2.354   2.098  19.729  0.00  0.00    +0.000 F 
ATOM     16  C   UNL     1       2.245   4.464  19.588  0.00  0.00    +0.000 A 
ATOM     17  C   UNL     1       1.023   4.460  20.463  0.00  0.00    +0.000 C 
BRANCH  12  18
ATOM     18  C   UNL     1       5.726   4.250  17.056  0.00  0.00    +0.000 C 
ATOM     19  O   UNL     1       6.850   4.403  17.520  0.00  0.00    +0.000 OA
ATOM     20  N   UNL     1       5.478   3.992  15.719  0.00  0.00    +0.000 N 
ATOM     21  H   UNL     1       4.526   4.017  15.372  0.00  0.00    +0.000 HD
BRANCH  20  22
ATOM     22  C   UNL     1       6.535   3.912  14.758  0.00  0.00    +0.000 C 
ATOM     23  C   UNL     1       6.241   3.739  13.294  0.00  0.00    +0.000 C 
ATOM     24  C   UNL     1       6.781   5.044  13.800  0.00  0.00    +0.000 C 
ENDBRANCH  20  22
ENDBRANCH  12  18
ENDBRANCH   6  10
BRANCH   1  25
ATOM     25  C   UNL     1       0.506  11.998  19.932  0.00  0.00    +0.000 C 
ATOM     26  C   UNL     1      -0.135  12.961  20.949  0.00  0.00    +0.000 C 
ATOM     27  C   UNL     1      -0.493  11.803  18.765  0.00  0.00    +0.000 C 
BRANCH  25  31
ATOM     28  C   UNL     1       3.328  13.995  18.314  0.00  0.00    +0.000 C 
ATOM     29  C   UNL     1       1.940  13.751  18.841  0.00  0.00    +0.000 C 
ATOM     30  O   UNL     1       1.054  14.591  18.748  0.00  0.00    +0.000 OA
ATOM     31  N   UNL     1       1.791  12.514  19.429  0.00  0.00    +0.000 N 
ATOM     32  H   UNL     1       2.558  11.861  19.331  0.00  0.00    +0.000 HD
ENDBRANCH  25  31
ENDBRANCH   1  25
TORSDOF 5
ENDMDL
MODEL 3
REMARK VINA RESULT:      -8.8      1.570      2.145
REMARK  Name = 
REMARK  9 active torsions:
REMARK  status: ('A' for Active; 'I' for Inactive)
REMARK    1  A    between atoms: C_1  and  C_2
REMARK    2  A    between atoms: N_4  and  C_5
REMARK    3  A    between atoms: C_5  and  C_6
REMARK    4  A    between atoms: C_5  and  C_7
REMARK    5  A    between atoms: C_5  and  C_8
REMARK    6  A    between atoms: C_13  and  C_14
REMARK    7  A    between atoms: C_16  and  C_17
REMARK    8  A    between atoms: N_19  and  C_20
REMARK    9  A    between atoms: C_26  and  C_27
REMARK                            x       y       z     vdW  Elec       q    Type
REMARK                         _______ _______ _______ _____ _____    ______ ____
ROOT
ATOM      1  C   UNL     1       0.837  10.111  20.362  0.00  0.00    +0.000 A 
ATOM      2  N   UNL     1       0.818   9.592  21.581  0.00  0.00    +0.000 NA
ATOM      3  N   UNL     1       1.363   8.335  21.543  0.00  0.00    +0.000 NA
ATOM      4  C   UNL     1       1.702   8.085  20.302  0.00  0.00    +0.000 A 
ATOM      5  C   UNL     1       2.321   6.955  19.696  0.00  0.00    +0.000 A 
ATOM      6  C   UNL     1       2.557   6.940  18.364  0.00  0.00    +0.000 A 
ATOM      7  C   UNL     1       2.150   8.084  17.541  0.00  0.00    +0.000 A 
ATOM      8  C   UNL     1       1.577   9.156  18.115  0.00  0.00    +0.000 A 
ATOM      9  N   UNL     1       1.370   9.167  19.495  0.00  0.00    +0.000 N 
ENDROOT
BRANCH   6  10
ATOM     10  C   UNL     1       3.257   5.769  17.798  0.00  0.00    +0.000 A 
ATOM     11  C   UNL     1       4.438   5.997  17.061  0.00  0.00    +0.000 A 
ATOM     12  C   UNL     1       5.143   4.927  16.488  0.00  0.00    +0.000 A 
ATOM     13  C   UNL     1       4.659   3.629  16.639  0.00  0.00    +0.000 A 
ATOM     14  C   UNL     1       3.495   3.404  17.366  0.00  0.00    +0.000 A 
ATOM     15  F   UNL     1       3.063   2.141  17.497  0.00  0.00    +0.000 F 
ATOM     16  C   UNL     1       2.773   4.452  17.951  0.00  0.00    +0.000 A 
ATOM     17  C   UNL     1       1.518   4.144  18.718  0.00  0.00    +0.000 C 
BRANCH  12  18
ATOM     18  C   UNL     1       6.368   5.122  15.670  0.00  0.00    +0.000 C 
ATOM     19  O   UNL     1       7.235   5.897  16.058  0.00  0.00    +0.000 OA
ATOM     20  N   UNL     1       6.447   4.417  14.481  0.00  0.00    +0.000 N 
ATOM     21  H   UNL     1       5.639   3.904  14.149  0.00  0.00    +0.000 HD
BRANCH  20  22
ATOM     22  C   UNL     1       7.555   4.566  13.590  0.00  0.00    +0.000 C 
ATOM     23  C   UNL     1       7.397   4.340  12.112  0.00  0.00    +0.000 C 
ATOM     24  C   UNL     1       7.616   5.728  12.637  0.00  0.00    +0.000 C 
ENDBRANCH  20  22
ENDBRANCH  12  18
ENDBRANCH   6  10
BRANCH   1  25
ATOM     25  C   UNL     1       0.360  11.510  20.000  0.00  0.00    +0.000 C 
ATOM     26  C   UNL     1      -0.160  12.236  21.255  0.00  0.00    +0.000 C 
ATOM     27  C   UNL     1      -0.813  11.398  18.995  0.00  0.00    +0.000 C 
BRANCH  25  31
ATOM     28  C   UNL     1       2.659  13.883  18.087  0.00  0.00    +0.000 C 
ATOM     29  C   UNL     1       1.371  13.417  18.709  0.00  0.00    +0.000 C 
ATOM     30  O   UNL     1       0.333  14.060  18.611  0.00  0.00    +0.000 OA
ATOM     31  N   UNL     1       1.494  12.224  19.389  0.00  0.00    +0.000 N 
ATOM     32  H   UNL     1       2.370  11.727  19.291  0.00  0.00    +0.000 HD
ENDBRANCH  25  31
ENDBRANCH   1  25
TORSDOF 5
ENDMDL
MODEL 4
REMARK VINA RESULT:      -8.7      1.504      2.249
REMARK  Name = 
REMARK  9 active torsions:
REMARK  status: ('A' for Active; 'I' for Inactive)
REMARK    1  A    between atoms: C_1  and  C_2
REMARK    2  A    between atoms: N_4  and  C_5
REMARK    3  A    between atoms: C_5  and  C_6
REMARK    4  A    between atoms: C_5  and  C_7
REMARK    5  A    between atoms: C_5  and  C_8
REMARK    6  A    between atoms: C_13  and  C_14
REMARK    7  A    between atoms: C_16  and  C_17
REMARK    8  A    between atoms: N_19  and  C_20
REMARK    9  A    between atoms: C_26  and  C_27
REMARK                            x       y       z     vdW  Elec       q    Type
REMARK                         _______ _______ _______ _____ _____    ______ ____
ROOT
ATOM      1  C   UNL     1       0.399  10.366  20.269  0.00  0.00    +0.000 A 
ATOM      2  N   UNL     1       0.321   9.956  21.527  0.00  0.00    +0.000 NA
ATOM      3  N   UNL     1       0.967   8.754  21.648  0.00  0.00    +0.000 NA
ATOM      4  C   UNL     1       1.426   8.426  20.465  0.00  0.00    +0.000 A 
ATOM      5  C   UNL     1       2.181   7.306  20.016  0.00  0.00    +0.000 A 
ATOM      6  C   UNL     1       2.526   7.195  18.714  0.00  0.00    +0.000 A 
ATOM      7  C   UNL     1       2.098   8.222  17.758  0.00  0.00    +0.000 A 
ATOM      8  C   UNL     1       1.395   9.286  18.184  0.00  0.00    +0.000 A 
ATOM      9  N   UNL     1       1.075   9.400  19.537  0.00  0.00    +0.000 N 
ENDROOT
BRANCH   6  10
ATOM     10  C   UNL     1       3.362   6.044  18.314  0.00  0.00    +0.000 A 
ATOM     11  C   UNL     1       4.071   6.131  17.098  0.00  0.00    +0.000 A 
ATOM     12  C   UNL     1       4.874   5.068  16.658  0.00  0.00    +0.000 A 
ATOM     13  C   UNL     1       4.957   3.909  17.427  0.00  0.00    +0.000 A 
ATOM     14  C   UNL     1       4.258   3.822  18.626  0.00  0.00    +0.000 A 
ATOM     15  F   UNL     1       4.366   2.694  19.344  0.00  0.00    +0.000 F 
ATOM     16  C   UNL     1       3.451   4.869  19.091  0.00  0.00    +0.000 A 
ATOM     17  C   UNL     1       2.716   4.711  20.392  0.00  0.00    +0.000 C 
BRANCH  12  18
ATOM     18  C   UNL     1       5.607   5.099  15.365  0.00  0.00    +0.000 C 
ATOM     19  O   UNL     1       6.499   5.922  15.199  0.00  0.00    +0.000 OA
ATOM     20  N   UNL     1       5.212   4.190  14.399  0.00  0.00    +0.000 N 
ATOM     21  H   UNL     1       4.378   3.634  14.546  0.00  0.00    +0.000 HD
BRANCH  20  22
ATOM     22  C   UNL     1       5.811   4.163  13.101  0.00  0.00    +0.000 C 
ATOM     23  C   UNL     1       6.340   2.883  12.516  0.00  0.00    +0.000 C 
ATOM     24  C   UNL     1       5.101   3.509  11.948  0.00  0.00    +0.000 C 
ENDBRANCH  20  22
ENDBRANCH  12  18
ENDBRANCH   6  10
BRANCH   1  25
ATOM     25  C   UNL     1      -0.158  11.681  19.742  0.00  0.00    +0.000 C 
ATOM     26  C   UNL     1      -0.837  12.466  20.880  0.00  0.00    +0.000 C 
ATOM     27  C   UNL     1      -1.230  11.379  18.666  0.00  0.00    +0.000 C 
BRANCH  25  31
ATOM     28  C   UNL     1       2.937  13.813  19.069  0.00  0.00    +0.000 C 
ATOM     29  C   UNL     1       1.976  13.004  19.896  0.00  0.00    +0.000 C 
ATOM     30  O   UNL     1       2.110  12.875  21.106  0.00  0.00    +0.000 OA
ATOM     31  N   UNL     1       0.962  12.436  19.154  0.00  0.00    +0.000 N 
ATOM     32  H   UNL     1       0.886  12.719  18.186  0.00  0.00    +0.000 HD
ENDBRANCH  25  31
ENDBRANCH   1  25
TORSDOF 5
ENDMDL
MODEL 5
REMARK VINA RESULT:      -8.6      1.768      2.380
REMARK  Name = 
REMARK  9 active torsions:
REMARK  status: ('A' for Active; 'I' for Inactive)
REMARK    1  A    between atoms: C_1  and  C_2
REMARK    2  A    between atoms: N_4  and  C_5
REMARK    3  A    between atoms: C_5  and  C_6
REMARK    4  A    between atoms: C_5  and  C_7
REMARK    5  A    between atoms: C_5  and  C_8
REMARK    6  A    between atoms: C_13  and  C_14
REMARK    7  A    between atoms: C_16  and  C_17
REMARK    8  A    between atoms: N_19  and  C_20
REMARK    9  A    between atoms: C_26  and  C_27
REMARK                            x       y       z     vdW  Elec       q    Type
REMARK                         _______ _______ _______ _____ _____    ______ ____
ROOT
ATOM      1  C   UNL     1       0.106  11.244  21.306  0.00  0.00    +0.000 A 
ATOM      2  N   UNL     1       0.162  10.834  22.565  0.00  0.00    +0.000 NA
ATOM      3  N   UNL     1       0.750   9.597  22.609  0.00  0.00    +0.000 NA
ATOM      4  C   UNL     1       1.040   9.250  21.379  0.00  0.00    +0.000 A 
ATOM      5  C   UNL     1       1.670   8.092  20.843  0.00  0.00    +0.000 A 
ATOM      6  C   UNL     1       1.845   7.967  19.508  0.00  0.00    +0.000 A 
ATOM      7  C   UNL     1       1.360   9.021  18.610  0.00  0.00    +0.000 A 
ATOM      8  C   UNL     1       0.775  10.120  19.117  0.00  0.00    +0.000 A 
ATOM      9  N   UNL     1       0.632  10.245  20.499  0.00  0.00    +0.000 N 
ENDROOT
BRANCH   6  10
ATOM     10  C   UNL     1       2.561   6.774  19.010  0.00  0.00    +0.000 A 
ATOM     11  C   UNL     1       3.478   6.945  17.953  0.00  0.00    +0.000 A 
ATOM     12  C   UNL     1       4.181   5.849  17.430  0.00  0.00    +0.000 A 
ATOM     13  C   UNL     1       3.955   4.578  17.953  0.00  0.00    +0.000 A 
ATOM     14  C   UNL     1       3.051   4.408  18.995  0.00  0.00    +0.000 A 
ATOM     15  F   UNL     1       2.864   3.171  19.479  0.00  0.00    +0.000 F 
ATOM     16  C   UNL     1       2.337   5.484  19.540  0.00  0.00    +0.000 A 
ATOM     17  C   UNL     1       1.369   5.235  20.661  0.00  0.00    +0.000 C 
BRANCH  12  18
ATOM     18  C   UNL     1       5.127   5.974  16.290  0.00  0.00    +0.000 C 
ATOM     19  O   UNL     1       5.884   6.937  16.239  0.00  0.00    +0.000 OA
ATOM     20  N   UNL     1       5.078   4.985  15.323  0.00  0.00    +0.000 N 
ATOM     21  H   UNL     1       4.336   4.296  15.349  0.00  0.00    +0.000 HD
BRANCH  20  22
ATOM     22  C   UNL     1       5.904   5.030  14.157  0.00  0.00    +0.000 C 
ATOM     23  C   UNL     1       7.328   4.549  14.196  0.00  0.00    +0.000 C 
ATOM     24  C   UNL     1       6.292   3.762  13.448  0.00  0.00    +0.000 C 
ENDBRANCH  20  22
ENDBRANCH  12  18
ENDBRANCH   6  10
BRANCH   1  25
ATOM     25  C   UNL     1      -0.438  12.591  20.849  0.00  0.00    +0.000 C 
ATOM     26  C   UNL     1      -0.661  13.514  22.061  0.00  0.00    +0.000 C 
ATOM     27  C   UNL     1      -1.807  12.372  20.159  0.00  0.00    +0.000 C 
BRANCH  25  31
ATOM     28  C   UNL     1       2.571  14.177  19.117  0.00  0.00    +0.000 C 
ATOM     29  C   UNL     1       1.821  13.513  20.238  0.00  0.00    +0.000 C 
ATOM     30  O   UNL     1       2.334  13.309  21.331  0.00  0.00    +0.000 OA
ATOM     31  N   UNL     1       0.531  13.164  19.899  0.00  0.00    +0.000 N 
ATOM     32  H   UNL     1       0.182  13.499  19.011  0.00  0.00    +0.000 HD
ENDBRANCH  25  31
ENDBRANCH   1  25
TORSDOF 5
ENDMDL
MODEL 6
REMARK VINA RESULT:      -8.5      2.994      8.370
REMARK  Name = 
REMARK  9 active torsions:
REMARK  status: ('A' for Active; 'I' for Inactive)
REMARK    1  A    between atoms: C_1  and  C_2
REMARK    2  A    between atoms: N_4  and  C_5
REMARK    3  A    between atoms: C_5  and  C_6
REMARK    4  A    between atoms: C_5  and  C_7
REMARK    5  A    between atoms: C_5  and  C_8
REMARK    6  A    between atoms: C_13  and  C_14
REMARK    7  A    between atoms: C_16  and  C_17
REMARK    8  A    between atoms: N_19  and  C_20
REMARK    9  A    between atoms: C_26  and  C_27
REMARK                            x       y       z     vdW  Elec       q    Type
REMARK                         _______ _______ _______ _____ _____    ______ ____
ROOT
ATOM      1  C   UNL     1       4.830   5.666  17.810  0.00  0.00    +0.000 A 
ATOM      2  N   UNL     1       4.557   4.723  18.701  0.00  0.00    +0.000 NA
ATOM      3  N   UNL     1       3.500   5.127  19.473  0.00  0.00    +0.000 NA
ATOM      4  C   UNL     1       3.137   6.317  19.062  0.00  0.00    +0.000 A 
ATOM      5  C   UNL     1       2.097   7.192  19.486  0.00  0.00    +0.000 A 
ATOM      6  C   UNL     1       1.938   8.398  18.895  0.00  0.00    +0.000 A 
ATOM      7  C   UNL     1       2.857   8.812  17.830  0.00  0.00    +0.000 A 
ATOM      8  C   UNL     1       3.832   7.981  17.422  0.00  0.00    +0.000 A 
ATOM      9  N   UNL     1       3.962   6.728  18.022  0.00  0.00    +0.000 N 
ENDROOT
BRANCH   6  10
ATOM     10  C   UNL     1       0.804   9.239  19.331  0.00  0.00    +0.000 A 
ATOM     11  C   UNL     1      -0.138   9.635  18.360  0.00  0.00    +0.000 A 
ATOM     12  C   UNL     1      -1.231  10.443  18.708  0.00  0.00    +0.000 A 
ATOM     13  C   UNL     1      -1.374  10.869  20.027  0.00  0.00    +0.000 A 
ATOM     14  C   UNL     1      -0.445  10.479  20.986  0.00  0.00    +0.000 A 
ATOM     15  F   UNL     1      -0.618  10.901  22.247  0.00  0.00    +0.000 F 
ATOM     16  C   UNL     1       0.654   9.670  20.666  0.00  0.00    +0.000 A 
ATOM     17  C   UNL     1       1.626   9.288  21.746  0.00  0.00    +0.000 C 
BRANCH  12  18
ATOM     18  C   UNL     1      -2.226  10.919  17.712  0.00  0.00    +0.000 C 
ATOM     19  O   UNL     1      -3.189  11.576  18.090  0.00  0.00    +0.000 OA
ATOM     20  N   UNL     1      -2.011  10.564  16.392  0.00  0.00    +0.000 N 
ATOM     21  H   UNL     1      -1.277   9.903  16.164  0.00  0.00    +0.000 HD
BRANCH  20  22
ATOM     22  C   UNL     1      -2.930  10.922  15.356  0.00  0.00    +0.000 C 
ATOM     23  C   UNL     1      -3.015  10.124  14.085  0.00  0.00    +0.000 C 
ATOM     24  C   UNL     1      -4.136  10.068  15.080  0.00  0.00    +0.000 C 
ENDBRANCH  20  22
ENDBRANCH  12  18
ENDBRANCH   6  10
BRANCH   1  25
ATOM     25  C   UNL     1       5.909   5.573  16.741  0.00  0.00    +0.000 C 
ATOM     26  C   UNL     1       5.274   5.293  15.366  0.00  0.00    +0.000 C 
ATOM     27  C   UNL     1       6.852   4.391  17.079  0.00  0.00    +0.000 C 
BRANCH  25  31
ATOM     28  C   UNL     1       8.080   8.601  17.575  0.00  0.00    +0.000 C 
ATOM     29  C   UNL     1       7.532   7.210  17.746  0.00  0.00    +0.000 C 
ATOM     30  O   UNL     1       7.858   6.496  18.686  0.00  0.00    +0.000 OA
ATOM     31  N   UNL     1       6.655   6.843  16.748  0.00  0.00    +0.000 N 
ATOM     32  H   UNL     1       6.368   7.564  16.099  0.00  0.00    +0.000 HD
ENDBRANCH  25  31
ENDBRANCH   1  25
TORSDOF 5
ENDMDL
MODEL 7
REMARK VINA RESULT:      -8.5      3.134      9.296
REMARK  Name = 
REMARK  9 active torsions:
REMARK  status: ('A' for Active; 'I' for Inactive)
REMARK    1  A    between atoms: C_1  and  C_2
REMARK    2  A    between atoms: N_4  and  C_5
REMARK    3  A    between atoms: C_5  and  C_6
REMARK    4  A    between atoms: C_5  and  C_7
REMARK    5  A    between atoms: C_5  and  C_8
REMARK    6  A    between atoms: C_13  and  C_14
REMARK    7  A    between atoms: C_16  and  C_17
REMARK    8  A    between atoms: N_19  and  C_20
REMARK    9  A    between atoms: C_26  and  C_27
REMARK                            x       y       z     vdW  Elec       q    Type
REMARK                         _______ _______ _______ _____ _____    ______ ____
ROOT
ATOM      1  C   UNL     1       3.277   5.790  19.275  0.00  0.00    +0.000 A 
ATOM      2  N   UNL     1       2.750   5.353  20.410  0.00  0.00    +0.000 NA
ATOM      3  N   UNL     1       1.802   6.245  20.839  0.00  0.00    +0.000 NA
ATOM      4  C   UNL     1       1.761   7.229  19.974  0.00  0.00    +0.000 A 
ATOM      5  C   UNL     1       0.958   8.403  19.909  0.00  0.00    +0.000 A 
ATOM      6  C   UNL     1       1.122   9.285  18.898  0.00  0.00    +0.000 A 
ATOM      7  C   UNL     1       2.150   9.041  17.879  0.00  0.00    +0.000 A 
ATOM      8  C   UNL     1       2.900   7.926  17.934  0.00  0.00    +0.000 A 
ATOM      9  N   UNL     1       2.695   7.012  18.967  0.00  0.00    +0.000 N 
ENDROOT
BRANCH   6  10
ATOM     10  C   UNL     1       0.220  10.455  18.845  0.00  0.00    +0.000 A 
ATOM     11  C   UNL     1      -0.989  10.326  18.132  0.00  0.00    +0.000 A 
ATOM     12  C   UNL     1      -1.883  11.403  18.035  0.00  0.00    +0.000 A 
ATOM     13  C   UNL     1      -1.560  12.616  18.639  0.00  0.00    +0.000 A 
ATOM     14  C   UNL     1      -0.367  12.744  19.342  0.00  0.00    +0.000 A 
ATOM     15  F   UNL     1      -0.092  13.925  19.917  0.00  0.00    +0.000 F 
ATOM     16  C   UNL     1       0.542  11.685  19.457  0.00  0.00    +0.000 A 
ATOM     17  C   UNL     1       1.818  11.888  20.225  0.00  0.00    +0.000 C 
BRANCH  12  18
ATOM     18  C   UNL     1      -3.150  11.326  17.262  0.00  0.00    +0.000 C 
ATOM     19  O   UNL     1      -3.171  10.712  16.202  0.00  0.00    +0.000 OA
ATOM     20  N   UNL     1      -4.246  11.988  17.787  0.00  0.00    +0.000 N 
ATOM     21  H   UNL     1      -4.128  12.593  18.590  0.00  0.00    +0.000 HD
BRANCH  20  22
ATOM     22  C   UNL     1      -5.502  12.026  17.103  0.00  0.00    +0.000 C 
ATOM     23  C   UNL     1      -6.800  11.972  17.860  0.00  0.00    +0.000 C 
ATOM     24  C   UNL     1      -6.378  13.245  17.186  0.00  0.00    +0.000 C 
ENDBRANCH  20  22
ENDBRANCH  12  18
ENDBRANCH   6  10
BRANCH   1  25
ATOM     25  C   UNL     1       4.333   5.055  18.461  0.00  0.00    +0.000 C 
ATOM     26  C   UNL     1       3.722   4.529  17.149  0.00  0.00    +0.000 C 
ATOM     27  C   UNL     1       4.837   3.837  19.274  0.00  0.00    +0.000 C 
BRANCH  25  31
ATOM     28  C   UNL     1       7.616   6.765  17.529  0.00  0.00    +0.000 C 
ATOM     29  C   UNL     1       6.604   5.652  17.562  0.00  0.00    +0.000 C 
ATOM     30  O   UNL     1       6.822   4.562  17.051  0.00  0.00    +0.000 OA
ATOM     31  N   UNL     1       5.437   5.997  18.209  0.00  0.00    +0.000 N 
ATOM     32  H   UNL     1       5.426   6.882  18.699  0.00  0.00    +0.000 HD
ENDBRANCH  25  31
ENDBRANCH   1  25
TORSDOF 5
ENDMDL
MODEL 8
REMARK VINA RESULT:      -8.5      1.306      2.050
REMARK  Name = 
REMARK  9 active torsions:
REMARK  status: ('A' for Active; 'I' for Inactive)
REMARK    1  A    between atoms: C_1  and  C_2
REMARK    2  A    between atoms: N_4  and  C_5
REMARK    3  A    between atoms: C_5  and  C_6
REMARK    4  A    between atoms: C_5  and  C_7
REMARK    5  A    between atoms: C_5  and  C_8
REMARK    6  A    between atoms: C_13  and  C_14
REMARK    7  A    between atoms: C_16  and  C_17
REMARK    8  A    between atoms: N_19  and  C_20
REMARK    9  A    between atoms: C_26  and  C_27
REMARK                            x       y       z     vdW  Elec       q    Type
REMARK                         _______ _______ _______ _____ _____    ______ ____
ROOT
ATOM      1  C   UNL     1       0.718  10.855  20.235  0.00  0.00    +0.000 A 
ATOM      2  N   UNL     1       0.553  10.663  21.535  0.00  0.00    +0.000 NA
ATOM      3  N   UNL     1       0.958   9.394  21.856  0.00  0.00    +0.000 NA
ATOM      4  C   UNL     1       1.357   8.811  20.752  0.00  0.00    +0.000 A 
ATOM      5  C   UNL     1       1.890   7.515  20.502  0.00  0.00    +0.000 A 
ATOM      6  C   UNL     1       2.219   7.145  19.243  0.00  0.00    +0.000 A 
ATOM      7  C   UNL     1       2.002   8.077  18.131  0.00  0.00    +0.000 A 
ATOM      8  C   UNL     1       1.509   9.305  18.370  0.00  0.00    +0.000 A 
ATOM      9  N   UNL     1       1.205   9.680  19.679  0.00  0.00    +0.000 N 
ENDROOT
BRANCH   6  10
ATOM     10  C   UNL     1       2.826   5.812  19.049  0.00  0.00    +0.000 A 
ATOM     11  C   UNL     1       3.958   5.715  18.214  0.00  0.00    +0.000 A 
ATOM     12  C   UNL     1       4.573   4.476  17.981  0.00  0.00    +0.000 A 
ATOM     13  C   UNL     1       4.047   3.329  18.571  0.00  0.00    +0.000 A 
ATOM     14  C   UNL     1       2.931   3.423  19.394  0.00  0.00    +0.000 A 
ATOM     15  F   UNL     1       2.455   2.299  19.951  0.00  0.00    +0.000 F 
ATOM     16  C   UNL     1       2.298   4.648  19.647  0.00  0.00    +0.000 A 
ATOM     17  C   UNL     1       1.091   4.682  20.540  0.00  0.00    +0.000 C 
BRANCH  12  18
ATOM     18  C   UNL     1       5.743   4.320  17.077  0.00  0.00    +0.000 C 
ATOM     19  O   UNL     1       6.871   4.523  17.511  0.00  0.00    +0.000 OA
ATOM     20  N   UNL     1       5.479   3.967  15.765  0.00  0.00    +0.000 N 
ATOM     21  H   UNL     1       4.522   3.952  15.433  0.00  0.00    +0.000 HD
BRANCH  20  22
ATOM     22  C   UNL     1       6.522   3.840  14.795  0.00  0.00    +0.000 C 
ATOM     23  C   UNL     1       6.215   3.826  13.323  0.00  0.00    +0.000 C 
ATOM     24  C   UNL     1       6.907   5.009  13.932  0.00  0.00    +0.000 C 
ENDBRANCH  20  22
ENDBRANCH  12  18
ENDBRANCH   6  10
BRANCH   1  25
ATOM     25  C   UNL     1       0.425  12.155  19.499  0.00  0.00    +0.000 C 
ATOM     26  C   UNL     1      -0.677  11.935  18.446  0.00  0.00    +0.000 C 
ATOM     27  C   UNL     1       1.706  12.615  18.759  0.00  0.00    +0.000 C 
BRANCH  25  31
ATOM     28  C   UNL     1       0.237  14.679  22.358  0.00  0.00    +0.000 C 
ATOM     29  C   UNL     1       0.910  13.784  21.353  0.00  0.00    +0.000 C 
ATOM     30  O   UNL     1       2.127  13.653  21.313  0.00  0.00    +0.000 OA
ATOM     31  N   UNL     1       0.025  13.155  20.504  0.00  0.00    +0.000 N 
ATOM     32  H   UNL     1      -0.960  13.244  20.718  0.00  0.00    +0.000 HD
ENDBRANCH  25  31
ENDBRANCH   1  25
TORSDOF 5
ENDMDL
MODEL 9
REMARK VINA RESULT:      -8.4      3.368      9.487
REMARK  Name = 
REMARK  9 active torsions:
REMARK  status: ('A' for Active; 'I' for Inactive)
REMARK    1  A    between atoms: C_1  and  C_2
REMARK    2  A    between atoms: N_4  and  C_5
REMARK    3  A    between atoms: C_5  and  C_6
REMARK    4  A    between atoms: C_5  and  C_7
REMARK    5  A    between atoms: C_5  and  C_8
REMARK    6  A    between atoms: C_13  and  C_14
REMARK    7  A    between atoms: C_16  and  C_17
REMARK    8  A    between atoms: N_19  and  C_20
REMARK    9  A    between atoms: C_26  and  C_27
REMARK                            x       y       z     vdW  Elec       q    Type
REMARK                         _______ _______ _______ _____ _____    ______ ____
ROOT
ATOM      1  C   UNL     1       3.232   4.085  19.475  0.00  0.00    +0.000 A 
ATOM      2  N   UNL     1       2.794   3.623  20.637  0.00  0.00    +0.000 NA
ATOM      3  N   UNL     1       2.112   4.618  21.287  0.00  0.00    +0.000 NA
ATOM      4  C   UNL     1       2.144   5.686  20.528  0.00  0.00    +0.000 A 
ATOM      5  C   UNL     1       1.589   6.986  20.694  0.00  0.00    +0.000 A 
ATOM      6  C   UNL     1       1.780   7.934  19.749  0.00  0.00    +0.000 A 
ATOM      7  C   UNL     1       2.585   7.625  18.562  0.00  0.00    +0.000 A 
ATOM      8  C   UNL     1       3.100   6.394  18.400  0.00  0.00    +0.000 A 
ATOM      9  N   UNL     1       2.865   5.419  19.370  0.00  0.00    +0.000 N 
ENDROOT
BRANCH   6  10
ATOM     10  C   UNL     1       1.129   9.246  19.942  0.00  0.00    +0.000 A 
ATOM     11  C   UNL     1       0.417   9.462  21.140  0.00  0.00    +0.000 A 
ATOM     12  C   UNL     1      -0.232  10.683  21.378  0.00  0.00    +0.000 A 
ATOM     13  C   UNL     1      -0.183  11.685  20.411  0.00  0.00    +0.000 A 
ATOM     14  C   UNL     1       0.519  11.472  19.229  0.00  0.00    +0.000 A 
ATOM     15  F   UNL     1       0.551  12.461  18.323  0.00  0.00    +0.000 F 
ATOM     16  C   UNL     1       1.179  10.264  18.966  0.00  0.00    +0.000 A 
ATOM     17  C   UNL     1       1.914  10.094  17.667  0.00  0.00    +0.000 C 
BRANCH  12  18
ATOM     18  C   UNL     1      -1.027  10.942  22.607  0.00  0.00    +0.000 C 
ATOM     19  O   UNL     1      -0.783  10.307  23.626  0.00  0.00    +0.000 OA
ATOM     20  N   UNL     1      -2.032  11.889  22.516  0.00  0.00    +0.000 N 
ATOM     21  H   UNL     1      -2.275  12.275  21.612  0.00  0.00    +0.000 HD
BRANCH  20  22
ATOM     22  C   UNL     1      -2.893  12.182  23.620  0.00  0.00    +0.000 C 
ATOM     23  C   UNL     1      -3.185  13.602  24.021  0.00  0.00    +0.000 C 
ATOM     24  C   UNL     1      -4.258  12.768  23.386  0.00  0.00    +0.000 C 
ENDBRANCH  20  22
ENDBRANCH  12  18
ENDBRANCH   6  10
BRANCH   1  25
ATOM     25  C   UNL     1       3.996   3.268  18.442  0.00  0.00    +0.000 C 
ATOM     26  C   UNL     1       3.412   3.507  17.037  0.00  0.00    +0.000 C 
ATOM     27  C   UNL     1       3.839   1.763  18.773  0.00  0.00    +0.000 C 
BRANCH  25  31
ATOM     28  C   UNL     1       7.517   4.606  17.818  0.00  0.00    +0.000 C 
ATOM     29  C   UNL     1       6.045   4.431  17.562  0.00  0.00    +0.000 C 
ATOM     30  O   UNL     1       5.490   4.937  16.595  0.00  0.00    +0.000 OA
ATOM     31  N   UNL     1       5.412   3.666  18.518  0.00  0.00    +0.000 N 
ATOM     32  H   UNL     1       6.000   3.199  19.197  0.00  0.00    +0.000 HD
ENDBRANCH  25  31
ENDBRANCH   1  25
TORSDOF 5
ENDMDL
