MODEL 1
REMARK VINA RESULT:      -9.2      0.000      0.000
REMARK  Name = 
REMARK  7 active torsions:
REMARK  status: ('A' for Active; 'I' for Inactive)
REMARK    1  A    between atoms: C_1  and  O_2
REMARK    2  A    between atoms: O_2  and  C_3
REMARK    3  A    between atoms: C_6  and  C_7
REMARK    4  A    between atoms: C_8  and  C_9
REMARK    5  A    between atoms: C_12  and  C_13
REMARK    6  A    between atoms: C_18  and  C_19
REMARK    7  A    between atoms: C_18  and  O_20
REMARK                            x       y       z     vdW  Elec       q    Type
REMARK                         _______ _______ _______ _____ _____    ______ ____
ROOT
ATOM      1  C   UNL     1       7.404   7.462  17.942  0.00  0.00    +0.000 A 
ATOM      2  C   UNL     1       6.333   7.617  17.064  0.00  0.00    +0.000 A 
ATOM      3  C   UNL     1       5.536   6.520  16.745  0.00  0.00    +0.000 A 
ATOM      4  C   UNL     1       5.712   5.296  17.402  0.00  0.00    +0.000 A 
ATOM      5  C   UNL     1       6.816   5.132  18.249  0.00  0.00    +0.000 A 
ATOM      6  C   UNL     1       7.668   6.213  18.508  0.00  0.00    +0.000 A 
ENDROOT
BRANCH   4   7
ATOM      7  C   UNL     1       4.753   4.159  17.237  0.00  0.00    +0.000 C 
ATOM      8  O   UNL     1       5.062   3.263  16.453  0.00  0.00    +0.000 OA
ATOM      9  N   UNL     1       3.582   4.127  18.004  0.00  0.00    +0.000 N 
ATOM     10  C   UNL     1       2.601   3.059  17.791  0.00  0.00    +0.000 C 
ATOM     11  C   UNL     1       2.295   2.314  19.099  0.00  0.00    +0.000 C 
ATOM     12  C   UNL     1       1.902   3.285  20.225  0.00  0.00    +0.000 C 
ATOM     13  C   UNL     1       1.711   2.578  21.564  0.00  0.00    +0.000 C 
ATOM     14  C   UNL     1       2.979   4.350  20.384  0.00  0.00    +0.000 C 
ATOM     15  C   UNL     1       3.227   5.065  19.073  0.00  0.00    +0.000 C 
BRANCH  12  16
ATOM     16  O   UNL     1       0.674   3.942  19.895  0.00  0.00    +0.000 OA
ATOM     17  H   UNL     1       0.774   4.349  19.019  0.00  0.00    +0.000 HD
ENDBRANCH  12  16
ENDBRANCH   4   7
BRANCH   1  19
ATOM     18  C   UNL     1       8.897   9.548  18.490  0.00  0.00    +0.000 C 
ATOM     19  C   UNL     1       8.233   8.587  18.234  0.00  0.00    +0.000 C 
BRANCH  18  23
ATOM     20  C   UNL     1      11.309  12.901  19.382  0.00  0.00    +0.000 A 
ATOM     21  C   UNL     1      10.676  12.200  20.411  0.00  0.00    +0.000 A 
ATOM     22  C   UNL     1       9.876  11.093  20.122  0.00  0.00    +0.000 A 
ATOM     23  C   UNL     1       9.695  10.695  18.798  0.00  0.00    +0.000 A 
ATOM     24  C   UNL     1      10.298  11.410  17.766  0.00  0.00    +0.000 A 
ATOM     25  C   UNL     1      11.103  12.512  18.058  0.00  0.00    +0.000 A 
BRANCH  20  27
ATOM     26  C   UNL     1      11.565  15.247  19.402  0.00  0.00    +0.000 C 
ATOM     27  O   UNL     1      12.071  13.969  19.774  0.00  0.00    +0.000 OA
ENDBRANCH  20  27
ENDBRANCH  18  23
ENDBRANCH   1  19
TORSDOF 5
ENDMDL
MODEL 2
REMARK VINA RESULT:      -8.6      0.711      1.458
REMARK  Name = 
REMARK  7 active torsions:
REMARK  status: ('A' for Active; 'I' for Inactive)
REMARK    1  A    between atoms: C_1  and  O_2
REMARK    2  A    between atoms: O_2  and  C_3
REMARK    3  A    between atoms: C_6  and  C_7
REMARK    4  A    between atoms: C_8  and  C_9
REMARK    5  A    between atoms: C_12  and  C_13
REMARK    6  A    between atoms: C_18  and  C_19
REMARK    7  A    between atoms: C_18  and  O_20
REMARK                            x       y       z     vdW  Elec       q    Type
REMARK                         _______ _______ _______ _____ _____    ______ ____
ROOT
ATOM      1  C   UNL     1       7.664   7.944  17.997  0.00  0.00    +0.000 A 
ATOM      2  C   UNL     1       7.965   6.768  18.680  0.00  0.00    +0.000 A 
ATOM      3  C   UNL     1       7.137   5.656  18.542  0.00  0.00    +0.000 A 
ATOM      4  C   UNL     1       6.084   5.662  17.619  0.00  0.00    +0.000 A 
ATOM      5  C   UNL     1       5.758   6.859  16.968  0.00  0.00    +0.000 A 
ATOM      6  C   UNL     1       6.541   8.003  17.169  0.00  0.00    +0.000 A 
ENDROOT
BRANCH   4   7
ATOM      7  C   UNL     1       5.302   4.428  17.295  0.00  0.00    +0.000 C 
ATOM      8  O   UNL     1       5.840   3.585  16.579  0.00  0.00    +0.000 OA
ATOM      9  N   UNL     1       4.028   4.253  17.850  0.00  0.00    +0.000 N 
ATOM     10  C   UNL     1       3.225   3.086  17.475  0.00  0.00    +0.000 C 
ATOM     11  C   UNL     1       2.785   2.291  18.713  0.00  0.00    +0.000 C 
ATOM     12  C   UNL     1       2.098   3.193  19.752  0.00  0.00    +0.000 C 
ATOM     13  C   UNL     1       1.762   2.448  21.040  0.00  0.00    +0.000 C 
ATOM     14  C   UNL     1       3.006   4.369  20.090  0.00  0.00    +0.000 C 
ATOM     15  C   UNL     1       3.392   5.128  18.838  0.00  0.00    +0.000 C 
BRANCH  12  16
ATOM     16  O   UNL     1       0.879   3.714  19.213  0.00  0.00    +0.000 OA
ATOM     17  H   UNL     1       0.427   2.998  18.738  0.00  0.00    +0.000 HD
ENDBRANCH  12  16
ENDBRANCH   4   7
BRANCH   1  19
ATOM     18  C   UNL     1       9.185  10.052  18.351  0.00  0.00    +0.000 C 
ATOM     19  C   UNL     1       8.503   9.085  18.175  0.00  0.00    +0.000 C 
BRANCH  18  23
ATOM     20  C   UNL     1      11.564  13.478  19.023  0.00  0.00    +0.000 A 
ATOM     21  C   UNL     1      10.754  13.400  17.888  0.00  0.00    +0.000 A 
ATOM     22  C   UNL     1       9.967  12.269  17.660  0.00  0.00    +0.000 A 
ATOM     23  C   UNL     1      10.004  11.205  18.561  0.00  0.00    +0.000 A 
ATOM     24  C   UNL     1      10.834  11.265  19.678  0.00  0.00    +0.000 A 
ATOM     25  C   UNL     1      11.614  12.400  19.908  0.00  0.00    +0.000 A 
BRANCH  20  27
ATOM     26  C   UNL     1      11.776  15.759  18.455  0.00  0.00    +0.000 C 
ATOM     27  O   UNL     1      12.293  14.630  19.153  0.00  0.00    +0.000 OA
ENDBRANCH  20  27
ENDBRANCH  18  23
ENDBRANCH   1  19
TORSDOF 5
ENDMDL
MODEL 3
REMARK VINA RESULT:      -7.8      1.394      2.001
REMARK  Name = 
REMARK  7 active torsions:
REMARK  status: ('A' for Active; 'I' for Inactive)
REMARK    1  A    between atoms: C_1  and  O_2
REMARK    2  A    between atoms: O_2  and  C_3
REMARK    3  A    between atoms: C_6  and  C_7
REMARK    4  A    between atoms: C_8  and  C_9
REMARK    5  A    between atoms: C_12  and  C_13
REMARK    6  A    between atoms: C_18  and  C_19
REMARK    7  A    between atoms: C_18  and  O_20
REMARK                            x       y       z     vdW  Elec       q    Type
REMARK                         _______ _______ _______ _____ _____    ______ ____
ROOT
ATOM      1  C   UNL     1       8.026   8.436  18.069  0.00  0.00    +0.000 A 
ATOM      2  C   UNL     1       8.412   7.382  18.895  0.00  0.00    +0.000 A 
ATOM      3  C   UNL     1       7.699   6.185  18.868  0.00  0.00    +0.000 A 
ATOM      4  C   UNL     1       6.685   5.982  17.923  0.00  0.00    +0.000 A 
ATOM      5  C   UNL     1       6.272   7.058  17.127  0.00  0.00    +0.000 A 
ATOM      6  C   UNL     1       6.935   8.288  17.211  0.00  0.00    +0.000 A 
ENDROOT
BRANCH   4   7
ATOM      7  C   UNL     1       6.035   4.648  17.727  0.00  0.00    +0.000 C 
ATOM      8  O   UNL     1       6.766   3.659  17.687  0.00  0.00    +0.000 OA
ATOM      9  N   UNL     1       4.639   4.564  17.651  0.00  0.00    +0.000 N 
ATOM     10  C   UNL     1       4.002   3.272  17.381  0.00  0.00    +0.000 C 
ATOM     11  C   UNL     1       2.970   2.923  18.464  0.00  0.00    +0.000 C 
ATOM     12  C   UNL     1       1.963   4.066  18.679  0.00  0.00    +0.000 C 
ATOM     13  C   UNL     1       1.005   3.789  19.834  0.00  0.00    +0.000 C 
ATOM     14  C   UNL     1       2.712   5.361  18.964  0.00  0.00    +0.000 C 
ATOM     15  C   UNL     1       3.699   5.668  17.858  0.00  0.00    +0.000 C 
BRANCH  12  16
ATOM     16  O   UNL     1       1.184   4.255  17.495  0.00  0.00    +0.000 OA
ATOM     17  H   UNL     1       1.199   3.428  16.985  0.00  0.00    +0.000 HD
ENDBRANCH  12  16
ENDBRANCH   4   7
BRANCH   1  19
ATOM     18  C   UNL     1       9.333  10.709  18.155  0.00  0.00    +0.000 C 
ATOM     19  C   UNL     1       8.747   9.667  18.132  0.00  0.00    +0.000 C 
BRANCH  18  23
ATOM     20  C   UNL     1      11.378  14.407  18.186  0.00  0.00    +0.000 A 
ATOM     21  C   UNL     1      12.089  13.215  18.034  0.00  0.00    +0.000 A 
ATOM     22  C   UNL     1      11.419  11.990  18.025  0.00  0.00    +0.000 A 
ATOM     23  C   UNL     1      10.034  11.956  18.186  0.00  0.00    +0.000 A 
ATOM     24  C   UNL     1       9.324  13.140  18.370  0.00  0.00    +0.000 A 
ATOM     25  C   UNL     1       9.995  14.363  18.371  0.00  0.00    +0.000 A 
BRANCH  20  27
ATOM     26  C   UNL     1      11.571  16.651  18.888  0.00  0.00    +0.000 C 
ATOM     27  O   UNL     1      12.130  15.550  18.179  0.00  0.00    +0.000 OA
ENDBRANCH  20  27
ENDBRANCH  18  23
ENDBRANCH   1  19
TORSDOF 5
ENDMDL
MODEL 4
REMARK VINA RESULT:      -7.6      6.124      8.511
REMARK  Name = 
REMARK  7 active torsions:
REMARK  status: ('A' for Active; 'I' for Inactive)
REMARK    1  A    between atoms: C_1  and  O_2
REMARK    2  A    between atoms: O_2  and  C_3
REMARK    3  A    between atoms: C_6  and  C_7
REMARK    4  A    between atoms: C_8  and  C_9
REMARK    5  A    between atoms: C_12  and  C_13
REMARK    6  A    between atoms: C_18  and  C_19
REMARK    7  A    between atoms: C_18  and  O_20
REMARK                            x       y       z     vdW  Elec       q    Type
REMARK                         _______ _______ _______ _____ _____    ______ ____
ROOT
ATOM      1  C   UNL     1       1.481   8.415  19.926  0.00  0.00    +0.000 A 
ATOM      2  C   UNL     1       1.839   8.516  18.583  0.00  0.00    +0.000 A 
ATOM      3  C   UNL     1       2.444   7.434  17.946  0.00  0.00    +0.000 A 
ATOM      4  C   UNL     1       2.569   6.202  18.599  0.00  0.00    +0.000 A 
ATOM      5  C   UNL     1       2.249   6.118  19.960  0.00  0.00    +0.000 A 
ATOM      6  C   UNL     1       1.717   7.230  20.625  0.00  0.00    +0.000 A 
ENDROOT
BRANCH   4   7
ATOM      7  C   UNL     1       3.024   4.966  17.887  0.00  0.00    +0.000 C 
ATOM      8  O   UNL     1       2.167   4.141  17.575  0.00  0.00    +0.000 OA
ATOM      9  N   UNL     1       4.378   4.818  17.558  0.00  0.00    +0.000 N 
ATOM     10  C   UNL     1       4.842   3.577  16.932  0.00  0.00    +0.000 C 
ATOM     11  C   UNL     1       5.578   3.860  15.614  0.00  0.00    +0.000 C 
ATOM     12  C   UNL     1       6.693   4.902  15.799  0.00  0.00    +0.000 C 
ATOM     13  C   UNL     1       7.356   5.288  14.479  0.00  0.00    +0.000 C 
ATOM     14  C   UNL     1       6.119   6.158  16.442  0.00  0.00    +0.000 C 
ATOM     15  C   UNL     1       5.424   5.826  17.745  0.00  0.00    +0.000 C 
BRANCH  12  16
ATOM     16  O   UNL     1       7.706   4.383  16.666  0.00  0.00    +0.000 OA
ATOM     17  H   UNL     1       7.972   5.088  17.279  0.00  0.00    +0.000 HD
ENDBRANCH  12  16
ENDBRANCH   4   7
BRANCH   1  19
ATOM     18  C   UNL     1       0.374  10.466  21.131  0.00  0.00    +0.000 C 
ATOM     19  C   UNL     1       0.893   9.543  20.575  0.00  0.00    +0.000 C 
BRANCH  18  23
ATOM     20  C   UNL     1      -1.391  13.741  23.134  0.00  0.00    +0.000 A 
ATOM     21  C   UNL     1      -1.834  12.441  23.391  0.00  0.00    +0.000 A 
ATOM     22  C   UNL     1      -1.256  11.355  22.731  0.00  0.00    +0.000 A 
ATOM     23  C   UNL     1      -0.242  11.571  21.797  0.00  0.00    +0.000 A 
ATOM     24  C   UNL     1       0.181  12.868  21.514  0.00  0.00    +0.000 A 
ATOM     25  C   UNL     1      -0.394  13.951  22.181  0.00  0.00    +0.000 A 
BRANCH  20  27
ATOM     26  C   UNL     1      -3.254  14.355  24.446  0.00  0.00    +0.000 C 
ATOM     27  O   UNL     1      -2.024  14.731  23.836  0.00  0.00    +0.000 OA
ENDBRANCH  20  27
ENDBRANCH  18  23
ENDBRANCH   1  19
TORSDOF 5
ENDMDL
MODEL 5
REMARK VINA RESULT:      -7.6      1.497      1.831
REMARK  Name = 
REMARK  7 active torsions:
REMARK  status: ('A' for Active; 'I' for Inactive)
REMARK    1  A    between atoms: C_1  and  O_2
REMARK    2  A    between atoms: O_2  and  C_3
REMARK    3  A    between atoms: C_6  and  C_7
REMARK    4  A    between atoms: C_8  and  C_9
REMARK    5  A    between atoms: C_12  and  C_13
REMARK    6  A    between atoms: C_18  and  C_19
REMARK    7  A    between atoms: C_18  and  O_20
REMARK                            x       y       z     vdW  Elec       q    Type
REMARK                         _______ _______ _______ _____ _____    ______ ____
ROOT
ATOM      1  C   UNL     1       7.938   8.344  18.006  0.00  0.00    +0.000 A 
ATOM      2  C   UNL     1       6.957   8.084  17.052  0.00  0.00    +0.000 A 
ATOM      3  C   UNL     1       6.417   6.803  16.947  0.00  0.00    +0.000 A 
ATOM      4  C   UNL     1       6.749   5.812  17.879  0.00  0.00    +0.000 A 
ATOM      5  C   UNL     1       7.767   6.065  18.807  0.00  0.00    +0.000 A 
ATOM      6  C   UNL     1       8.370   7.328  18.860  0.00  0.00    +0.000 A 
ENDROOT
BRANCH   4   7
ATOM      7  C   UNL     1       6.042   4.493  17.923  0.00  0.00    +0.000 C 
ATOM      8  O   UNL     1       6.729   3.485  18.077  0.00  0.00    +0.000 OA
ATOM      9  N   UNL     1       4.644   4.456  17.842  0.00  0.00    +0.000 N 
ATOM     10  C   UNL     1       3.952   3.164  17.805  0.00  0.00    +0.000 C 
ATOM     11  C   UNL     1       2.898   3.065  18.918  0.00  0.00    +0.000 C 
ATOM     12  C   UNL     1       1.941   4.269  18.903  0.00  0.00    +0.000 C 
ATOM     13  C   UNL     1       0.963   4.252  20.074  0.00  0.00    +0.000 C 
ATOM     14  C   UNL     1       2.744   5.563  18.956  0.00  0.00    +0.000 C 
ATOM     15  C   UNL     1       3.752   5.618  17.827  0.00  0.00    +0.000 C 
BRANCH  12  16
ATOM     16  O   UNL     1       1.179   4.269  17.692  0.00  0.00    +0.000 OA
ATOM     17  H   UNL     1       1.756   3.968  16.970  0.00  0.00    +0.000 HD
ENDBRANCH  12  16
ENDBRANCH   4   7
BRANCH   1  19
ATOM     18  C   UNL     1       9.010  10.736  18.121  0.00  0.00    +0.000 C 
ATOM     19  C   UNL     1       8.506   9.652  18.080  0.00  0.00    +0.000 C 
BRANCH  18  23
ATOM     20  C   UNL     1      10.761  14.580  18.203  0.00  0.00    +0.000 A 
ATOM     21  C   UNL     1      11.568  13.442  18.256  0.00  0.00    +0.000 A 
ATOM     22  C   UNL     1      10.995  12.169  18.231  0.00  0.00    +0.000 A 
ATOM     23  C   UNL     1       9.608  12.034  18.171  0.00  0.00    +0.000 A 
ATOM     24  C   UNL     1       8.797  13.167  18.150  0.00  0.00    +0.000 A 
ATOM     25  C   UNL     1       9.374  14.438  18.167  0.00  0.00    +0.000 A 
BRANCH  20  27
ATOM     26  C   UNL     1      11.431  16.499  17.003  0.00  0.00    +0.000 C 
ATOM     27  O   UNL     1      11.424  15.778  18.231  0.00  0.00    +0.000 OA
ENDBRANCH  20  27
ENDBRANCH  18  23
ENDBRANCH   1  19
TORSDOF 5
ENDMDL
MODEL 6
REMARK VINA RESULT:      -7.5      1.159      1.568
REMARK  Name = 
REMARK  7 active torsions:
REMARK  status: ('A' for Active; 'I' for Inactive)
REMARK    1  A    between atoms: C_1  and  O_2
REMARK    2  A    between atoms: O_2  and  C_3
REMARK    3  A    between atoms: C_6  and  C_7
REMARK    4  A    between atoms: C_8  and  C_9
REMARK    5  A    between atoms: C_12  and  C_13
REMARK    6  A    between atoms: C_18  and  C_19
REMARK    7  A    between atoms: C_18  and  O_20
REMARK                            x       y       z     vdW  Elec       q    Type
REMARK                         _______ _______ _______ _____ _____    ______ ____
ROOT
ATOM      1  C   UNL     1       8.328   8.510  18.431  0.00  0.00    +0.000 A 
ATOM      2  C   UNL     1       7.518   8.480  17.297  0.00  0.00    +0.000 A 
ATOM      3  C   UNL     1       6.908   7.287  16.915  0.00  0.00    +0.000 A 
ATOM      4  C   UNL     1       6.986   6.153  17.733  0.00  0.00    +0.000 A 
ATOM      5  C   UNL     1       7.836   6.175  18.847  0.00  0.00    +0.000 A 
ATOM      6  C   UNL     1       8.516   7.351  19.186  0.00  0.00    +0.000 A 
ENDROOT
BRANCH   4   7
ATOM      7  C   UNL     1       6.183   4.919  17.463  0.00  0.00    +0.000 C 
ATOM      8  O   UNL     1       6.772   3.947  16.995  0.00  0.00    +0.000 OA
ATOM      9  N   UNL     1       4.822   4.896  17.793  0.00  0.00    +0.000 N 
ATOM     10  C   UNL     1       4.012   3.721  17.459  0.00  0.00    +0.000 C 
ATOM     11  C   UNL     1       3.304   3.160  18.702  0.00  0.00    +0.000 C 
ATOM     12  C   UNL     1       2.516   4.250  19.446  0.00  0.00    +0.000 C 
ATOM     13  C   UNL     1       1.906   3.742  20.749  0.00  0.00    +0.000 C 
ATOM     14  C   UNL     1       3.436   5.422  19.763  0.00  0.00    +0.000 C 
ATOM     15  C   UNL     1       4.090   5.949  18.503  0.00  0.00    +0.000 C 
BRANCH  12  16
ATOM     16  O   UNL     1       1.452   4.732  18.619  0.00  0.00    +0.000 OA
ATOM     17  H   UNL     1       1.679   5.629  18.324  0.00  0.00    +0.000 HD
ENDBRANCH  12  16
ENDBRANCH   4   7
BRANCH   1  19
ATOM     18  C   UNL     1       9.499  10.771  19.063  0.00  0.00    +0.000 C 
ATOM     19  C   UNL     1       8.973   9.732  18.791  0.00  0.00    +0.000 C 
BRANCH  18  23
ATOM     20  C   UNL     1      11.409  14.406  20.057  0.00  0.00    +0.000 A 
ATOM     21  C   UNL     1      10.320  13.959  20.809  0.00  0.00    +0.000 A 
ATOM     22  C   UNL     1       9.684  12.759  20.484  0.00  0.00    +0.000 A 
ATOM     23  C   UNL     1      10.127  12.013  19.392  0.00  0.00    +0.000 A 
ATOM     24  C   UNL     1      11.192  12.471  18.620  0.00  0.00    +0.000 A 
ATOM     25  C   UNL     1      11.831  13.667  18.952  0.00  0.00    +0.000 A 
BRANCH  20  27
ATOM     26  C   UNL     1      12.323  16.484  19.413  0.00  0.00    +0.000 C 
ATOM     27  O   UNL     1      11.961  15.592  20.462  0.00  0.00    +0.000 OA
ENDBRANCH  20  27
ENDBRANCH  18  23
ENDBRANCH   1  19
TORSDOF 5
ENDMDL
MODEL 7
REMARK VINA RESULT:      -7.4      6.222      8.293
REMARK  Name = 
REMARK  7 active torsions:
REMARK  status: ('A' for Active; 'I' for Inactive)
REMARK    1  A    between atoms: C_1  and  O_2
REMARK    2  A    between atoms: O_2  and  C_3
REMARK    3  A    between atoms: C_6  and  C_7
REMARK    4  A    between atoms: C_8  and  C_9
REMARK    5  A    between atoms: C_12  and  C_13
REMARK    6  A    between atoms: C_18  and  C_19
REMARK    7  A    between atoms: C_18  and  O_20
REMARK                            x       y       z     vdW  Elec       q    Type
REMARK                         _______ _______ _______ _____ _____    ______ ____
ROOT
ATOM      1  C   UNL     1       1.515   8.573  19.816  0.00  0.00    +0.000 A 
ATOM      2  C   UNL     1       1.838   8.626  18.462  0.00  0.00    +0.000 A 
ATOM      3  C   UNL     1       2.428   7.523  17.848  0.00  0.00    +0.000 A 
ATOM      4  C   UNL     1       2.572   6.315  18.541  0.00  0.00    +0.000 A 
ATOM      5  C   UNL     1       2.288   6.279  19.912  0.00  0.00    +0.000 A 
ATOM      6  C   UNL     1       1.771   7.414  20.551  0.00  0.00    +0.000 A 
ENDROOT
BRANCH   4   7
ATOM      7  C   UNL     1       3.011   5.055  17.862  0.00  0.00    +0.000 C 
ATOM      8  O   UNL     1       2.143   4.232  17.574  0.00  0.00    +0.000 OA
ATOM      9  N   UNL     1       4.361   4.881  17.535  0.00  0.00    +0.000 N 
ATOM     10  C   UNL     1       4.810   3.618  16.942  0.00  0.00    +0.000 C 
ATOM     11  C   UNL     1       5.546   3.856  15.615  0.00  0.00    +0.000 C 
ATOM     12  C   UNL     1       6.674   4.890  15.770  0.00  0.00    +0.000 C 
ATOM     13  C   UNL     1       7.338   5.231  14.439  0.00  0.00    +0.000 C 
ATOM     14  C   UNL     1       6.116   6.169  16.379  0.00  0.00    +0.000 C 
ATOM     15  C   UNL     1       5.420   5.881  17.693  0.00  0.00    +0.000 C 
BRANCH  12  16
ATOM     16  O   UNL     1       7.682   4.382  16.648  0.00  0.00    +0.000 OA
ATOM     17  H   UNL     1       8.143   5.137  17.051  0.00  0.00    +0.000 HD
ENDBRANCH  12  16
ENDBRANCH   4   7
BRANCH   1  19
ATOM     18  C   UNL     1       0.487  10.683  20.988  0.00  0.00    +0.000 C 
ATOM     19  C   UNL     1       0.942   9.723  20.439  0.00  0.00    +0.000 C 
BRANCH  18  23
ATOM     20  C   UNL     1      -1.182  14.070  22.883  0.00  0.00    +0.000 A 
ATOM     21  C   UNL     1      -0.154  14.225  21.951  0.00  0.00    +0.000 A 
ATOM     22  C   UNL     1       0.403  13.109  21.323  0.00  0.00    +0.000 A 
ATOM     23  C   UNL     1      -0.059  11.832  21.641  0.00  0.00    +0.000 A 
ATOM     24  C   UNL     1      -1.062  11.671  22.593  0.00  0.00    +0.000 A 
ATOM     25  C   UNL     1      -1.623  12.789  23.214  0.00  0.00    +0.000 A 
BRANCH  20  27
ATOM     26  C   UNL     1      -1.509  16.394  22.633  0.00  0.00    +0.000 C 
ATOM     27  O   UNL     1      -1.658  15.228  23.437  0.00  0.00    +0.000 OA
ENDBRANCH  20  27
ENDBRANCH  18  23
ENDBRANCH   1  19
TORSDOF 5
ENDMDL
MODEL 8
REMARK VINA RESULT:      -7.4      8.530     11.600
REMARK  Name = 
REMARK  7 active torsions:
REMARK  status: ('A' for Active; 'I' for Inactive)
REMARK    1  A    between atoms: C_1  and  O_2
REMARK    2  A    between atoms: O_2  and  C_3
REMARK    3  A    between atoms: C_6  and  C_7
REMARK    4  A    between atoms: C_8  and  C_9
REMARK    5  A    between atoms: C_12  and  C_13
REMARK    6  A    between atoms: C_18  and  C_19
REMARK    7  A    between atoms: C_18  and  O_20
REMARK                            x       y       z     vdW  Elec       q    Type
REMARK                         _______ _______ _______ _____ _____    ______ ____
ROOT
ATOM      1  C   UNL     1       0.369   9.723  21.531  0.00  0.00    +0.000 A 
ATOM      2  C   UNL     1       0.470  10.928  20.838  0.00  0.00    +0.000 A 
ATOM      3  C   UNL     1      -0.180  12.061  21.322  0.00  0.00    +0.000 A 
ATOM      4  C   UNL     1      -0.816  12.038  22.570  0.00  0.00    +0.000 A 
ATOM      5  C   UNL     1      -0.953  10.816  23.241  0.00  0.00    +0.000 A 
ATOM      6  C   UNL     1      -0.370   9.657  22.713  0.00  0.00    +0.000 A 
ENDROOT
BRANCH   4   7
ATOM      7  C   UNL     1      -1.347  13.280  23.215  0.00  0.00    +0.000 C 
ATOM      8  O   UNL     1      -0.557  14.201  23.413  0.00  0.00    +0.000 OA
ATOM      9  N   UNL     1      -2.712  13.370  23.519  0.00  0.00    +0.000 N 
ATOM     10  C   UNL     1      -3.223  14.550  24.222  0.00  0.00    +0.000 C 
ATOM     11  C   UNL     1      -4.370  15.210  23.442  0.00  0.00    +0.000 C 
ATOM     12  C   UNL     1      -5.467  14.195  23.078  0.00  0.00    +0.000 C 
ATOM     13  C   UNL     1      -6.556  14.803  22.199  0.00  0.00    +0.000 C 
ATOM     14  C   UNL     1      -4.848  13.013  22.343  0.00  0.00    +0.000 C 
ATOM     15  C   UNL     1      -3.739  12.389  23.163  0.00  0.00    +0.000 C 
BRANCH  12  16
ATOM     16  O   UNL     1      -6.087  13.701  24.269  0.00  0.00    +0.000 OA
ATOM     17  H   UNL     1      -6.936  14.160  24.383  0.00  0.00    +0.000 HD
ENDBRANCH  12  16
ENDBRANCH   4   7
BRANCH   1  19
ATOM     18  C   UNL     1       1.534   7.595  20.531  0.00  0.00    +0.000 C 
ATOM     19  C   UNL     1       1.013   8.563  21.004  0.00  0.00    +0.000 C 
BRANCH  18  23
ATOM     20  C   UNL     1       3.341   4.183  18.815  0.00  0.00    +0.000 A 
ATOM     21  C   UNL     1       2.584   4.062  19.983  0.00  0.00    +0.000 A 
ATOM     22  C   UNL     1       1.987   5.187  20.556  0.00  0.00    +0.000 A 
ATOM     23  C   UNL     1       2.160   6.440  19.968  0.00  0.00    +0.000 A 
ATOM     24  C   UNL     1       2.940   6.570  18.821  0.00  0.00    +0.000 A 
ATOM     25  C   UNL     1       3.530   5.443  18.246  0.00  0.00    +0.000 A 
BRANCH  20  27
ATOM     26  C   UNL     1       3.148   1.838  18.644  0.00  0.00    +0.000 C 
ATOM     27  O   UNL     1       3.880   3.020  18.336  0.00  0.00    +0.000 OA
ENDBRANCH  20  27
ENDBRANCH  18  23
ENDBRANCH   1  19
TORSDOF 5
ENDMDL
MODEL 9
REMARK VINA RESULT:      -7.4      3.348     10.992
REMARK  Name = 
REMARK  7 active torsions:
REMARK  status: ('A' for Active; 'I' for Inactive)
REMARK    1  A    between atoms: C_1  and  O_2
REMARK    2  A    between atoms: O_2  and  C_3
REMARK    3  A    between atoms: C_6  and  C_7
REMARK    4  A    between atoms: C_8  and  C_9
REMARK    5  A    between atoms: C_12  and  C_13
REMARK    6  A    between atoms: C_18  and  C_19
REMARK    7  A    between atoms: C_18  and  O_20
REMARK                            x       y       z     vdW  Elec       q    Type
REMARK                         _______ _______ _______ _____ _____    ______ ____
ROOT
ATOM      1  C   UNL     1       9.201  10.508  18.670  0.00  0.00    +0.000 A 
ATOM      2  C   UNL     1       9.824  10.541  19.916  0.00  0.00    +0.000 A 
ATOM      3  C   UNL     1      10.551  11.667  20.296  0.00  0.00    +0.000 A 
ATOM      4  C   UNL     1      10.547  12.820  19.500  0.00  0.00    +0.000 A 
ATOM      5  C   UNL     1       9.957  12.767  18.231  0.00  0.00    +0.000 A 
ATOM      6  C   UNL     1       9.296  11.606  17.812  0.00  0.00    +0.000 A 
ENDROOT
BRANCH   4   7
ATOM      7  C   UNL     1      11.143  14.111  19.966  0.00  0.00    +0.000 C 
ATOM      8  O   UNL     1      12.298  14.361  19.625  0.00  0.00    +0.000 OA
ATOM      9  N   UNL     1      10.364  15.000  20.718  0.00  0.00    +0.000 N 
ATOM     10  C   UNL     1      10.965  16.228  21.245  0.00  0.00    +0.000 C 
ATOM     11  C   UNL     1      10.174  17.469  20.803  0.00  0.00    +0.000 C 
ATOM     12  C   UNL     1       8.678  17.334  21.132  0.00  0.00    +0.000 C 
ATOM     13  C   UNL     1       7.856  18.502  20.594  0.00  0.00    +0.000 C 
ATOM     14  C   UNL     1       8.137  16.040  20.538  0.00  0.00    +0.000 C 
ATOM     15  C   UNL     1       8.938  14.850  21.021  0.00  0.00    +0.000 C 
BRANCH  12  16
ATOM     16  O   UNL     1       8.495  17.283  22.550  0.00  0.00    +0.000 OA
ATOM     17  H   UNL     1       9.308  17.603  22.973  0.00  0.00    +0.000 HD
ENDBRANCH  12  16
ENDBRANCH   4   7
BRANCH   1  19
ATOM     18  C   UNL     1       7.904   8.333  17.984  0.00  0.00    +0.000 C 
ATOM     19  C   UNL     1       8.488   9.334  18.281  0.00  0.00    +0.000 C 
BRANCH  18  23
ATOM     20  C   UNL     1       5.783   4.821  16.974  0.00  0.00    +0.000 A 
ATOM     21  C   UNL     1       6.968   4.737  17.708  0.00  0.00    +0.000 A 
ATOM     22  C   UNL     1       7.675   5.894  18.043  0.00  0.00    +0.000 A 
ATOM     23  C   UNL     1       7.203   7.139  17.628  0.00  0.00    +0.000 A 
ATOM     24  C   UNL     1       6.038   7.226  16.868  0.00  0.00    +0.000 A 
ATOM     25  C   UNL     1       5.330   6.068  16.541  0.00  0.00    +0.000 A 
BRANCH  20  27
ATOM     26  C   UNL     1       3.894   3.448  17.308  0.00  0.00    +0.000 C 
ATOM     27  O   UNL     1       5.170   3.628  16.702  0.00  0.00    +0.000 OA
ENDBRANCH  20  27
ENDBRANCH  18  23
ENDBRANCH   1  19
TORSDOF 5
ENDMDL
