MODEL 1
REMARK VINA RESULT:      -7.8      0.000      0.000
REMARK  Name = 
REMARK  7 active torsions:
REMARK  status: ('A' for Active; 'I' for Inactive)
REMARK    1  A    between atoms: C_1  and  C_2
REMARK    2  A    between atoms: C_2  and  O_3
REMARK    3  A    between atoms: O_3  and  C_4
REMARK    4  A    between atoms: C_4  and  C_6
REMARK    5  A    between atoms: C_7  and  O_8
REMARK    6  A    between atoms: C_12  and  C_13
REMARK    7  A    between atoms: C_13  and  C_14
REMARK                            x       y       z     vdW  Elec       q    Type
REMARK                         _______ _______ _______ _____ _____    ______ ____
ROOT
ATOM      1  C   UNL     1       3.476   4.853  19.104  0.00  0.00    +0.000 A 
ATOM      2  C   UNL     1       2.754   5.557  20.004  0.00  0.00    +0.000 A 
ATOM      3  C   UNL     1       2.265   6.911  19.668  0.00  0.00    +0.000 A 
ATOM      4  N   UNL     1       1.549   7.596  20.588  0.00  0.00    +0.000 NA
ATOM      5  C   UNL     1       1.115   8.831  20.240  0.00  0.00    +0.000 A 
ATOM      6  C   UNL     1       1.355   9.428  19.005  0.00  0.00    +0.000 A 
ATOM      7  C   UNL     1       2.127   8.715  18.085  0.00  0.00    +0.000 A 
ATOM      8  C   UNL     1       2.576   7.442  18.418  0.00  0.00    +0.000 A 
ATOM      9  N   UNL     1       3.304   6.685  17.497  0.00  0.00    +0.000 N 
ATOM     10  C   UNL     1       3.727   5.406  17.743  0.00  0.00    +0.000 A 
ATOM     11  O   UNL     1       4.269   4.770  16.844  0.00  0.00    +0.000 OA
ATOM     12  H   UNL     1       3.502   7.048  16.571  0.00  0.00    +0.000 HD
ENDROOT
BRANCH   1  13
ATOM     13  C   UNL     1       4.082   3.583  19.558  0.00  0.00    +0.000 C 
ATOM     14  O   UNL     1       5.290   3.369  19.527  0.00  0.00    +0.000 OA
BRANCH  13  15
ATOM     15  O   UNL     1       3.124   2.659  19.789  0.00  0.00    +0.000 OA
BRANCH  15  17
ATOM     16  C   UNL     1       1.025   2.303  18.726  0.00  0.00    +0.000 C 
ATOM     17  C   UNL     1       2.522   2.065  18.633  0.00  0.00    +0.000 C 
ENDBRANCH  15  17
ENDBRANCH  13  15
ENDBRANCH   1  13
BRANCH   2  18
ATOM     18  O   UNL     1       2.451   5.126  21.290  0.00  0.00    +0.000 OA
ATOM     19  H   UNL     1       1.642   4.570  21.269  0.00  0.00    +0.000 HD
ENDBRANCH   2  18
BRANCH   6  20
ATOM     20  C   UNL     1       0.750  10.758  18.654  0.00  0.00    +0.000 C 
BRANCH  20  21
ATOM     21  C   UNL     1      -0.744  10.770  18.441  0.00  0.00    +0.000 A 
ATOM     22  C   UNL     1      -1.559  11.678  19.130  0.00  0.00    +0.000 A 
ATOM     23  C   UNL     1      -2.925  11.759  18.852  0.00  0.00    +0.000 A 
ATOM     24  C   UNL     1      -3.492  10.926  17.890  0.00  0.00    +0.000 A 
ATOM     25  C   UNL     1      -2.699   9.996  17.222  0.00  0.00    +0.000 A 
ATOM     26  C   UNL     1      -1.332   9.913  17.499  0.00  0.00    +0.000 A 
ENDBRANCH  20  21
ENDBRANCH   6  20
TORSDOF 6
ENDMDL
MODEL 2
REMARK VINA RESULT:      -7.7      0.502      1.101
REMARK  Name = 
REMARK  7 active torsions:
REMARK  status: ('A' for Active; 'I' for Inactive)
REMARK    1  A    between atoms: C_1  and  C_2
REMARK    2  A    between atoms: C_2  and  O_3
REMARK    3  A    between atoms: O_3  and  C_4
REMARK    4  A    between atoms: C_4  and  C_6
REMARK    5  A    between atoms: C_7  and  O_8
REMARK    6  A    between atoms: C_12  and  C_13
REMARK    7  A    between atoms: C_13  and  C_14
REMARK                            x       y       z     vdW  Elec       q    Type
REMARK                         _______ _______ _______ _____ _____    ______ ____
ROOT
ATOM      1  C   UNL     1       3.624   5.388  18.939  0.00  0.00    +0.000 A 
ATOM      2  C   UNL     1       2.828   5.981  19.856  0.00  0.00    +0.000 A 
ATOM      3  C   UNL     1       2.238   7.308  19.580  0.00  0.00    +0.000 A 
ATOM      4  N   UNL     1       1.447   7.881  20.515  0.00  0.00    +0.000 NA
ATOM      5  C   UNL     1       0.922   9.095  20.221  0.00  0.00    +0.000 A 
ATOM      6  C   UNL     1       1.139   9.776  19.026  0.00  0.00    +0.000 A 
ATOM      7  C   UNL     1       1.988   9.179  18.090  0.00  0.00    +0.000 A 
ATOM      8  C   UNL     1       2.532   7.929  18.367  0.00  0.00    +0.000 A 
ATOM      9  N   UNL     1       3.339   7.285  17.428  0.00  0.00    +0.000 N 
ATOM     10  C   UNL     1       3.860   6.032  17.617  0.00  0.00    +0.000 A 
ATOM     11  O   UNL     1       4.472   5.492  16.700  0.00  0.00    +0.000 OA
ATOM     12  H   UNL     1       3.526   7.713  16.527  0.00  0.00    +0.000 HD
ENDROOT
BRANCH   1  13
ATOM     13  C   UNL     1       4.323   4.148  19.342  0.00  0.00    +0.000 C 
ATOM     14  O   UNL     1       5.542   4.018  19.288  0.00  0.00    +0.000 OA
BRANCH  13  15
ATOM     15  O   UNL     1       3.433   3.153  19.554  0.00  0.00    +0.000 OA
BRANCH  15  17
ATOM     16  C   UNL     1       1.347   2.459  18.644  0.00  0.00    +0.000 C 
ATOM     17  C   UNL     1       2.838   2.574  18.386  0.00  0.00    +0.000 C 
ENDBRANCH  15  17
ENDBRANCH  13  15
ENDBRANCH   1  13
BRANCH   2  18
ATOM     18  O   UNL     1       2.533   5.458  21.109  0.00  0.00    +0.000 OA
ATOM     19  H   UNL     1       3.329   5.017  21.478  0.00  0.00    +0.000 HD
ENDBRANCH   2  18
BRANCH   6  20
ATOM     20  C   UNL     1       0.436  11.070  18.729  0.00  0.00    +0.000 C 
BRANCH  20  21
ATOM     21  C   UNL     1      -1.015  10.958  18.330  0.00  0.00    +0.000 A 
ATOM     22  C   UNL     1      -1.438   9.962  17.437  0.00  0.00    +0.000 A 
ATOM     23  C   UNL     1      -2.794   9.793  17.153  0.00  0.00    +0.000 A 
ATOM     24  C   UNL     1      -3.741  10.624  17.749  0.00  0.00    +0.000 A 
ATOM     25  C   UNL     1      -3.331  11.638  18.611  0.00  0.00    +0.000 A 
ATOM     26  C   UNL     1      -1.974  11.809  18.897  0.00  0.00    +0.000 A 
ENDBRANCH  20  21
ENDBRANCH   6  20
TORSDOF 6
ENDMDL
MODEL 3
REMARK VINA RESULT:      -7.4      1.371      2.186
REMARK  Name = 
REMARK  7 active torsions:
REMARK  status: ('A' for Active; 'I' for Inactive)
REMARK    1  A    between atoms: C_1  and  C_2
REMARK    2  A    between atoms: C_2  and  O_3
REMARK    3  A    between atoms: O_3  and  C_4
REMARK    4  A    between atoms: C_4  and  C_6
REMARK    5  A    between atoms: C_7  and  O_8
REMARK    6  A    between atoms: C_12  and  C_13
REMARK    7  A    between atoms: C_13  and  C_14
REMARK                            x       y       z     vdW  Elec       q    Type
REMARK                         _______ _______ _______ _____ _____    ______ ____
ROOT
ATOM      1  C   UNL     1       3.923   5.679  18.595  0.00  0.00    +0.000 A 
ATOM      2  C   UNL     1       3.082   6.140  19.548  0.00  0.00    +0.000 A 
ATOM      3  C   UNL     1       2.377   7.425  19.357  0.00  0.00    +0.000 A 
ATOM      4  N   UNL     1       1.545   7.866  20.327  0.00  0.00    +0.000 NA
ATOM      5  C   UNL     1       0.915   9.045  20.112  0.00  0.00    +0.000 A 
ATOM      6  C   UNL     1       1.066   9.819  18.964  0.00  0.00    +0.000 A 
ATOM      7  C   UNL     1       1.958   9.359  17.992  0.00  0.00    +0.000 A 
ATOM      8  C   UNL     1       2.610   8.147  18.188  0.00  0.00    +0.000 A 
ATOM      9  N   UNL     1       3.465   7.638  17.209  0.00  0.00    +0.000 N 
ATOM     10  C   UNL     1       4.094   6.425  17.317  0.00  0.00    +0.000 A 
ATOM     11  O   UNL     1       4.747   6.001  16.368  0.00  0.00    +0.000 OA
ATOM     12  H   UNL     1       3.611   8.138  16.339  0.00  0.00    +0.000 HD
ENDROOT
BRANCH   1  13
ATOM     13  C   UNL     1       4.728   4.481  18.917  0.00  0.00    +0.000 C 
ATOM     14  O   UNL     1       4.269   3.343  18.908  0.00  0.00    +0.000 OA
BRANCH  13  15
ATOM     15  O   UNL     1       5.930   4.842  19.417  0.00  0.00    +0.000 OA
BRANCH  15  17
ATOM     16  C   UNL     1       7.712   6.204  18.624  0.00  0.00    +0.000 C 
ATOM     17  C   UNL     1       7.025   4.857  18.493  0.00  0.00    +0.000 C 
ENDBRANCH  15  17
ENDBRANCH  13  15
ENDBRANCH   1  13
BRANCH   2  18
ATOM     18  O   UNL     1       2.840   5.513  20.764  0.00  0.00    +0.000 OA
ATOM     19  H   UNL     1       1.873   5.399  20.889  0.00  0.00    +0.000 HD
ENDBRANCH   2  18
BRANCH   6  20
ATOM     20  C   UNL     1       0.251  11.063  18.751  0.00  0.00    +0.000 C 
BRANCH  20  21
ATOM     21  C   UNL     1      -1.192  10.851  18.364  0.00  0.00    +0.000 A 
ATOM     22  C   UNL     1      -2.208  11.636  18.926  0.00  0.00    +0.000 A 
ATOM     23  C   UNL     1      -3.528  11.510  18.487  0.00  0.00    +0.000 A 
ATOM     24  C   UNL     1      -3.847  10.591  17.490  0.00  0.00    +0.000 A 
ATOM     25  C   UNL     1      -2.852   9.782  16.947  0.00  0.00    +0.000 A 
ATOM     26  C   UNL     1      -1.531   9.906  17.385  0.00  0.00    +0.000 A 
ENDBRANCH  20  21
ENDBRANCH   6  20
TORSDOF 6
ENDMDL
MODEL 4
REMARK VINA RESULT:      -7.4      3.802      7.766
REMARK  Name = 
REMARK  7 active torsions:
REMARK  status: ('A' for Active; 'I' for Inactive)
REMARK    1  A    between atoms: C_1  and  C_2
REMARK    2  A    between atoms: C_2  and  O_3
REMARK    3  A    between atoms: O_3  and  C_4
REMARK    4  A    between atoms: C_4  and  C_6
REMARK    5  A    between atoms: C_7  and  O_8
REMARK    6  A    between atoms: C_12  and  C_13
REMARK    7  A    between atoms: C_13  and  C_14
REMARK                            x       y       z     vdW  Elec       q    Type
REMARK                         _______ _______ _______ _____ _____    ______ ____
ROOT
ATOM      1  C   UNL     1       0.150  10.617  21.584  0.00  0.00    +0.000 A 
ATOM      2  C   UNL     1       0.317  10.537  20.245  0.00  0.00    +0.000 A 
ATOM      3  C   UNL     1       1.059   9.403  19.656  0.00  0.00    +0.000 A 
ATOM      4  N   UNL     1       1.215   9.348  18.314  0.00  0.00    +0.000 NA
ATOM      5  C   UNL     1       1.896   8.290  17.814  0.00  0.00    +0.000 A 
ATOM      6  C   UNL     1       2.433   7.264  18.589  0.00  0.00    +0.000 A 
ATOM      7  C   UNL     1       2.288   7.361  19.975  0.00  0.00    +0.000 A 
ATOM      8  C   UNL     1       1.586   8.435  20.510  0.00  0.00    +0.000 A 
ATOM      9  N   UNL     1       1.379   8.528  21.887  0.00  0.00    +0.000 N 
ATOM     10  C   UNL     1       0.650   9.530  22.472  0.00  0.00    +0.000 A 
ATOM     11  O   UNL     1       0.426   9.485  23.678  0.00  0.00    +0.000 OA
ATOM     12  H   UNL     1       1.726   7.809  22.512  0.00  0.00    +0.000 HD
ENDROOT
BRANCH   1  13
ATOM     13  C   UNL     1      -0.446  11.859  22.125  0.00  0.00    +0.000 C 
ATOM     14  O   UNL     1       0.131  12.942  22.105  0.00  0.00    +0.000 OA
BRANCH  13  15
ATOM     15  O   UNL     1      -1.574  11.580  22.814  0.00  0.00    +0.000 OA
BRANCH  15  17
ATOM     16  C   UNL     1      -3.551  12.482  23.782  0.00  0.00    +0.000 C 
ATOM     17  C   UNL     1      -2.717  12.390  22.517  0.00  0.00    +0.000 C 
ENDBRANCH  15  17
ENDBRANCH  13  15
ENDBRANCH   1  13
BRANCH   2  18
ATOM     18  O   UNL     1      -0.125  11.487  19.332  0.00  0.00    +0.000 OA
ATOM     19  H   UNL     1      -0.651  12.172  19.798  0.00  0.00    +0.000 HD
ENDBRANCH   2  18
BRANCH   6  20
ATOM     20  C   UNL     1       3.083   6.068  17.952  0.00  0.00    +0.000 C 
BRANCH  20  21
ATOM     21  C   UNL     1       2.658   4.722  18.486  0.00  0.00    +0.000 A 
ATOM     22  C   UNL     1       3.404   4.078  19.484  0.00  0.00    +0.000 A 
ATOM     23  C   UNL     1       2.951   2.885  20.050  0.00  0.00    +0.000 A 
ATOM     24  C   UNL     1       1.754   2.318  19.619  0.00  0.00    +0.000 A 
ATOM     25  C   UNL     1       1.021   2.930  18.605  0.00  0.00    +0.000 A 
ATOM     26  C   UNL     1       1.473   4.123  18.036  0.00  0.00    +0.000 A 
ENDBRANCH  20  21
ENDBRANCH   6  20
TORSDOF 6
ENDMDL
MODEL 5
REMARK VINA RESULT:      -7.4      0.712      2.259
REMARK  Name = 
REMARK  7 active torsions:
REMARK  status: ('A' for Active; 'I' for Inactive)
REMARK    1  A    between atoms: C_1  and  C_2
REMARK    2  A    between atoms: C_2  and  O_3
REMARK    3  A    between atoms: O_3  and  C_4
REMARK    4  A    between atoms: C_4  and  C_6
REMARK    5  A    between atoms: C_7  and  O_8
REMARK    6  A    between atoms: C_12  and  C_13
REMARK    7  A    between atoms: C_13  and  C_14
REMARK                            x       y       z     vdW  Elec       q    Type
REMARK                         _______ _______ _______ _____ _____    ______ ____
ROOT
ATOM      1  C   UNL     1       3.382   4.931  19.429  0.00  0.00    +0.000 A 
ATOM      2  C   UNL     1       3.483   5.902  18.494  0.00  0.00    +0.000 A 
ATOM      3  C   UNL     1       2.722   7.160  18.645  0.00  0.00    +0.000 A 
ATOM      4  N   UNL     1       2.838   8.114  17.694  0.00  0.00    +0.000 NA
ATOM      5  C   UNL     1       2.128   9.254  17.873  0.00  0.00    +0.000 A 
ATOM      6  C   UNL     1       1.301   9.501  18.966  0.00  0.00    +0.000 A 
ATOM      7  C   UNL     1       1.170   8.486  19.916  0.00  0.00    +0.000 A 
ATOM      8  C   UNL     1       1.896   7.310  19.758  0.00  0.00    +0.000 A 
ATOM      9  N   UNL     1       1.827   6.302  20.721  0.00  0.00    +0.000 N 
ATOM     10  C   UNL     1       2.558   5.145  20.652  0.00  0.00    +0.000 A 
ATOM     11  O   UNL     1       2.521   4.355  21.590  0.00  0.00    +0.000 OA
ATOM     12  H   UNL     1       1.259   6.419  21.552  0.00  0.00    +0.000 HD
ENDROOT
BRANCH   1  13
ATOM     13  C   UNL     1       4.028   3.632  19.136  0.00  0.00    +0.000 C 
ATOM     14  O   UNL     1       5.137   3.325  19.561  0.00  0.00    +0.000 OA
BRANCH  13  15
ATOM     15  O   UNL     1       3.334   2.964  18.189  0.00  0.00    +0.000 OA
BRANCH  15  17
ATOM     16  C   UNL     1       1.113   2.300  18.726  0.00  0.00    +0.000 C 
ATOM     17  C   UNL     1       2.559   1.846  18.640  0.00  0.00    +0.000 C 
ENDBRANCH  15  17
ENDBRANCH  13  15
ENDBRANCH   1  13
BRANCH   2  18
ATOM     18  O   UNL     1       4.236   5.808  17.330  0.00  0.00    +0.000 OA
ATOM     19  H   UNL     1       4.802   5.007  17.368  0.00  0.00    +0.000 HD
ENDBRANCH   2  18
BRANCH   6  20
ATOM     20  C   UNL     1       0.628  10.833  19.146  0.00  0.00    +0.000 C 
BRANCH  20  21
ATOM     21  C   UNL     1      -0.801  10.922  18.670  0.00  0.00    +0.000 A 
ATOM     22  C   UNL     1      -1.282  10.054  17.679  0.00  0.00    +0.000 A 
ATOM     23  C   UNL     1      -2.630  10.068  17.318  0.00  0.00    +0.000 A 
ATOM     24  C   UNL     1      -3.510  10.955  17.935  0.00  0.00    +0.000 A 
ATOM     25  C   UNL     1      -3.038  11.844  18.897  0.00  0.00    +0.000 A 
ATOM     26  C   UNL     1      -1.689  11.833  19.260  0.00  0.00    +0.000 A 
ENDBRANCH  20  21
ENDBRANCH   6  20
TORSDOF 6
ENDMDL
MODEL 6
REMARK VINA RESULT:      -7.3      1.379      2.390
REMARK  Name = 
REMARK  7 active torsions:
REMARK  status: ('A' for Active; 'I' for Inactive)
REMARK    1  A    between atoms: C_1  and  C_2
REMARK    2  A    between atoms: C_2  and  O_3
REMARK    3  A    between atoms: O_3  and  C_4
REMARK    4  A    between atoms: C_4  and  C_6
REMARK    5  A    between atoms: C_7  and  O_8
REMARK    6  A    between atoms: C_12  and  C_13
REMARK    7  A    between atoms: C_13  and  C_14
REMARK                            x       y       z     vdW  Elec       q    Type
REMARK                         _______ _______ _______ _____ _____    ______ ____
ROOT
ATOM      1  C   UNL     1       3.790   5.753  18.697  0.00  0.00    +0.000 A 
ATOM      2  C   UNL     1       2.952   6.164  19.676  0.00  0.00    +0.000 A 
ATOM      3  C   UNL     1       2.238   7.452  19.549  0.00  0.00    +0.000 A 
ATOM      4  N   UNL     1       1.408   7.841  20.543  0.00  0.00    +0.000 NA
ATOM      5  C   UNL     1       0.769   9.025  20.387  0.00  0.00    +0.000 A 
ATOM      6  C   UNL     1       0.907   9.851  19.274  0.00  0.00    +0.000 A 
ATOM      7  C   UNL     1       1.797   9.444  18.277  0.00  0.00    +0.000 A 
ATOM      8  C   UNL     1       2.458   8.228  18.413  0.00  0.00    +0.000 A 
ATOM      9  N   UNL     1       3.310   7.771  17.406  0.00  0.00    +0.000 N 
ATOM     10  C   UNL     1       3.948   6.559  17.454  0.00  0.00    +0.000 A 
ATOM     11  O   UNL     1       4.597   6.183  16.482  0.00  0.00    +0.000 OA
ATOM     12  H   UNL     1       3.447   8.311  16.559  0.00  0.00    +0.000 HD
ENDROOT
BRANCH   1  13
ATOM     13  C   UNL     1       4.605   4.547  18.959  0.00  0.00    +0.000 C 
ATOM     14  O   UNL     1       4.152   3.408  18.908  0.00  0.00    +0.000 OA
BRANCH  13  15
ATOM     15  O   UNL     1       5.812   4.894  19.458  0.00  0.00    +0.000 OA
BRANCH  15  17
ATOM     16  C   UNL     1       7.739   6.113  18.780  0.00  0.00    +0.000 C 
ATOM     17  C   UNL     1       6.912   4.862  18.542  0.00  0.00    +0.000 C 
ENDBRANCH  15  17
ENDBRANCH  13  15
ENDBRANCH   1  13
BRANCH   2  18
ATOM     18  O   UNL     1       2.722   5.480  20.862  0.00  0.00    +0.000 OA
ATOM     19  H   UNL     1       3.334   5.809  21.556  0.00  0.00    +0.000 HD
ENDBRANCH   2  18
BRANCH   6  20
ATOM     20  C   UNL     1       0.083  11.098  19.124  0.00  0.00    +0.000 C 
BRANCH  20  21
ATOM     21  C   UNL     1      -1.259  10.928  18.454  0.00  0.00    +0.000 A 
ATOM     22  C   UNL     1      -1.451   9.941  17.476  0.00  0.00    +0.000 A 
ATOM     23  C   UNL     1      -2.718   9.715  16.936  0.00  0.00    +0.000 A 
ATOM     24  C   UNL     1      -3.804  10.480  17.358  0.00  0.00    +0.000 A 
ATOM     25  C   UNL     1      -3.619  11.486  18.303  0.00  0.00    +0.000 A 
ATOM     26  C   UNL     1      -2.352  11.714  18.845  0.00  0.00    +0.000 A 
ENDBRANCH  20  21
ENDBRANCH   6  20
TORSDOF 6
ENDMDL
MODEL 7
REMARK VINA RESULT:      -7.3      2.215      3.712
REMARK  Name = 
REMARK  7 active torsions:
REMARK  status: ('A' for Active; 'I' for Inactive)
REMARK    1  A    between atoms: C_1  and  C_2
REMARK    2  A    between atoms: C_2  and  O_3
REMARK    3  A    between atoms: O_3  and  C_4
REMARK    4  A    between atoms: C_4  and  C_6
REMARK    5  A    between atoms: C_7  and  O_8
REMARK    6  A    between atoms: C_12  and  C_13
REMARK    7  A    between atoms: C_13  and  C_14
REMARK                            x       y       z     vdW  Elec       q    Type
REMARK                         _______ _______ _______ _____ _____    ______ ____
ROOT
ATOM      1  C   UNL     1       5.447   5.249  17.350  0.00  0.00    +0.000 A 
ATOM      2  C   UNL     1       4.863   6.370  16.870  0.00  0.00    +0.000 A 
ATOM      3  C   UNL     1       3.794   7.038  17.640  0.00  0.00    +0.000 A 
ATOM      4  N   UNL     1       3.223   8.155  17.135  0.00  0.00    +0.000 NA
ATOM      5  C   UNL     1       2.251   8.741  17.875  0.00  0.00    +0.000 A 
ATOM      6  C   UNL     1       1.814   8.271  19.111  0.00  0.00    +0.000 A 
ATOM      7  C   UNL     1       2.394   7.096  19.594  0.00  0.00    +0.000 A 
ATOM      8  C   UNL     1       3.400   6.482  18.856  0.00  0.00    +0.000 A 
ATOM      9  N   UNL     1       4.034   5.337  19.341  0.00  0.00    +0.000 N 
ATOM     10  C   UNL     1       5.068   4.717  18.690  0.00  0.00    +0.000 A 
ATOM     11  O   UNL     1       5.643   3.779  19.232  0.00  0.00    +0.000 OA
ATOM     12  H   UNL     1       3.780   4.948  20.243  0.00  0.00    +0.000 HD
ENDROOT
BRANCH   1  13
ATOM     13  C   UNL     1       6.382   4.530  16.458  0.00  0.00    +0.000 C 
ATOM     14  O   UNL     1       7.586   4.444  16.679  0.00  0.00    +0.000 OA
BRANCH  13  15
ATOM     15  O   UNL     1       5.768   4.194  15.303  0.00  0.00    +0.000 OA
BRANCH  15  17
ATOM     16  C   UNL     1       5.826   3.563  13.009  0.00  0.00    +0.000 C 
ATOM     17  C   UNL     1       6.547   4.323  14.108  0.00  0.00    +0.000 C 
ENDBRANCH  15  17
ENDBRANCH  13  15
ENDBRANCH   1  13
BRANCH   2  18
ATOM     18  O   UNL     1       5.156   6.953  15.644  0.00  0.00    +0.000 OA
ATOM     19  H   UNL     1       4.353   7.391  15.287  0.00  0.00    +0.000 HD
ENDBRANCH   2  18
BRANCH   6  20
ATOM     20  C   UNL     1       0.805   9.036  19.921  0.00  0.00    +0.000 C 
BRANCH  20  21
ATOM     21  C   UNL     1       0.259  10.291  19.283  0.00  0.00    +0.000 A 
ATOM     22  C   UNL     1      -0.958  10.270  18.587  0.00  0.00    +0.000 A 
ATOM     23  C   UNL     1      -1.512  11.452  18.091  0.00  0.00    +0.000 A 
ATOM     24  C   UNL     1      -0.851  12.664  18.277  0.00  0.00    +0.000 A 
ATOM     25  C   UNL     1       0.375  12.693  18.937  0.00  0.00    +0.000 A 
ATOM     26  C   UNL     1       0.932  11.512  19.434  0.00  0.00    +0.000 A 
ENDBRANCH  20  21
ENDBRANCH   6  20
TORSDOF 6
ENDMDL
MODEL 8
REMARK VINA RESULT:      -7.2      3.813      7.936
REMARK  Name = 
REMARK  7 active torsions:
REMARK  status: ('A' for Active; 'I' for Inactive)
REMARK    1  A    between atoms: C_1  and  C_2
REMARK    2  A    between atoms: C_2  and  O_3
REMARK    3  A    between atoms: O_3  and  C_4
REMARK    4  A    between atoms: C_4  and  C_6
REMARK    5  A    between atoms: C_7  and  O_8
REMARK    6  A    between atoms: C_12  and  C_13
REMARK    7  A    between atoms: C_13  and  C_14
REMARK                            x       y       z     vdW  Elec       q    Type
REMARK                         _______ _______ _______ _____ _____    ______ ____
ROOT
ATOM      1  C   UNL     1       0.078  10.628  21.607  0.00  0.00    +0.000 A 
ATOM      2  C   UNL     1       0.258  10.546  20.269  0.00  0.00    +0.000 A 
ATOM      3  C   UNL     1       1.018   9.419  19.690  0.00  0.00    +0.000 A 
ATOM      4  N   UNL     1       1.187   9.363  18.350  0.00  0.00    +0.000 NA
ATOM      5  C   UNL     1       1.885   8.312  17.858  0.00  0.00    +0.000 A 
ATOM      6  C   UNL     1       2.428   7.295  18.640  0.00  0.00    +0.000 A 
ATOM      7  C   UNL     1       2.271   7.394  20.024  0.00  0.00    +0.000 A 
ATOM      8  C   UNL     1       1.551   8.461  20.551  0.00  0.00    +0.000 A 
ATOM      9  N   UNL     1       1.332   8.555  21.926  0.00  0.00    +0.000 N 
ATOM     10  C   UNL     1       0.585   9.550  22.502  0.00  0.00    +0.000 A 
ATOM     11  O   UNL     1       0.351   9.504  23.706  0.00  0.00    +0.000 OA
ATOM     12  H   UNL     1       1.682   7.842  22.556  0.00  0.00    +0.000 HD
ENDROOT
BRANCH   1  13
ATOM     13  C   UNL     1      -0.537  11.863  22.139  0.00  0.00    +0.000 C 
ATOM     14  O   UNL     1      -1.703  11.922  22.514  0.00  0.00    +0.000 OA
BRANCH  13  15
ATOM     15  O   UNL     1       0.283  12.920  21.944  0.00  0.00    +0.000 OA
BRANCH  15  17
ATOM     16  C   UNL     1      -0.418  14.795  20.658  0.00  0.00    +0.000 C 
ATOM     17  C   UNL     1      -0.315  14.217  22.058  0.00  0.00    +0.000 C 
ENDBRANCH  15  17
ENDBRANCH  13  15
ENDBRANCH   1  13
BRANCH   2  18
ATOM     18  O   UNL     1      -0.188  11.488  19.351  0.00  0.00    +0.000 OA
ATOM     19  H   UNL     1      -0.392  12.329  19.813  0.00  0.00    +0.000 HD
ENDBRANCH   2  18
BRANCH   6  20
ATOM     20  C   UNL     1       3.099   6.106  18.012  0.00  0.00    +0.000 C 
BRANCH  20  21
ATOM     21  C   UNL     1       2.663   4.754  18.523  0.00  0.00    +0.000 A 
ATOM     22  C   UNL     1       1.482   4.159  18.058  0.00  0.00    +0.000 A 
ATOM     23  C   UNL     1       1.137   2.864  18.452  0.00  0.00    +0.000 A 
ATOM     24  C   UNL     1       1.963   2.156  19.322  0.00  0.00    +0.000 A 
ATOM     25  C   UNL     1       3.121   2.749  19.818  0.00  0.00    +0.000 A 
ATOM     26  C   UNL     1       3.468   4.045  19.426  0.00  0.00    +0.000 A 
ENDBRANCH  20  21
ENDBRANCH   6  20
TORSDOF 6
ENDMDL
MODEL 9
REMARK VINA RESULT:      -7.2      3.992      8.090
REMARK  Name = 
REMARK  7 active torsions:
REMARK  status: ('A' for Active; 'I' for Inactive)
REMARK    1  A    between atoms: C_1  and  C_2
REMARK    2  A    between atoms: C_2  and  O_3
REMARK    3  A    between atoms: O_3  and  C_4
REMARK    4  A    between atoms: C_4  and  C_6
REMARK    5  A    between atoms: C_7  and  O_8
REMARK    6  A    between atoms: C_12  and  C_13
REMARK    7  A    between atoms: C_13  and  C_14
REMARK                            x       y       z     vdW  Elec       q    Type
REMARK                         _______ _______ _______ _____ _____    ______ ____
ROOT
ATOM      1  C   UNL     1       0.112  10.674  21.383  0.00  0.00    +0.000 A 
ATOM      2  C   UNL     1       0.313  10.548  20.052  0.00  0.00    +0.000 A 
ATOM      3  C   UNL     1       1.082   9.402  19.522  0.00  0.00    +0.000 A 
ATOM      4  N   UNL     1       1.272   9.302  18.187  0.00  0.00    +0.000 NA
ATOM      5  C   UNL     1       1.977   8.234  17.742  0.00  0.00    +0.000 A 
ATOM      6  C   UNL     1       2.507   7.244  18.565  0.00  0.00    +0.000 A 
ATOM      7  C   UNL     1       2.327   7.389  19.943  0.00  0.00    +0.000 A 
ATOM      8  C   UNL     1       1.599   8.472  20.422  0.00  0.00    +0.000 A 
ATOM      9  N   UNL     1       1.359   8.612  21.790  0.00  0.00    +0.000 N 
ATOM     10  C   UNL     1       0.604   9.625  22.321  0.00  0.00    +0.000 A 
ATOM     11  O   UNL     1       0.351   9.620  23.522  0.00  0.00    +0.000 OA
ATOM     12  H   UNL     1       1.699   7.920  22.449  0.00  0.00    +0.000 HD
ENDROOT
BRANCH   1  13
ATOM     13  C   UNL     1      -0.510  11.926  21.864  0.00  0.00    +0.000 C 
ATOM     14  O   UNL     1       0.136  12.859  22.330  0.00  0.00    +0.000 OA
BRANCH  13  15
ATOM     15  O   UNL     1      -1.854  11.795  21.917  0.00  0.00    +0.000 OA
BRANCH  15  17
ATOM     16  C   UNL     1      -3.380  13.149  23.141  0.00  0.00    +0.000 C 
ATOM     17  C   UNL     1      -2.457  11.946  23.207  0.00  0.00    +0.000 C 
ENDBRANCH  15  17
ENDBRANCH  13  15
ENDBRANCH   1  13
BRANCH   2  18
ATOM     18  O   UNL     1      -0.117  11.458  19.095  0.00  0.00    +0.000 OA
ATOM     19  H   UNL     1      -0.379  12.297  19.533  0.00  0.00    +0.000 HD
ENDBRANCH   2  18
BRANCH   6  20
ATOM     20  C   UNL     1       3.186   6.034  17.988  0.00  0.00    +0.000 C 
BRANCH  20  21
ATOM     21  C   UNL     1       4.694   6.028  18.055  0.00  0.00    +0.000 A 
ATOM     22  C   UNL     1       5.455   6.775  17.145  0.00  0.00    +0.000 A 
ATOM     23  C   UNL     1       6.843   6.851  17.276  0.00  0.00    +0.000 A 
ATOM     24  C   UNL     1       7.485   6.175  18.311  0.00  0.00    +0.000 A 
ATOM     25  C   UNL     1       6.743   5.403  19.202  0.00  0.00    +0.000 A 
ATOM     26  C   UNL     1       5.355   5.324  19.072  0.00  0.00    +0.000 A 
ENDBRANCH  20  21
ENDBRANCH   6  20
TORSDOF 6
ENDMDL
