MODEL 1
REMARK VINA RESULT:      -6.8      0.000      0.000
REMARK  Name = 
REMARK  6 active torsions:
REMARK  status: ('A' for Active; 'I' for Inactive)
REMARK    1  A    between atoms: C_1  and  C_2
REMARK    2  A    between atoms: C_6  and  C_7
REMARK    3  A    between atoms: C_7  and  N_8
REMARK    4  A    between atoms: N_8  and  C_9
REMARK    5  A    between atoms: C_9  and  C_10
REMARK    6  A    between atoms: C_10  and  C_11
REMARK                            x       y       z     vdW  Elec       q    Type
REMARK                         _______ _______ _______ _____ _____    ______ ____
ROOT
ATOM      1  N   UNL     1       5.314   3.253  19.125  0.00  0.00    +0.000 NA
ATOM      2  H   UNL     1       5.018   3.137  18.155  0.00  0.00    +0.000 HD
ENDROOT
BRANCH   1   3
ATOM      3  C   UNL     1       4.507   2.349  19.951  0.00  0.00    +0.000 C 
BRANCH   3   9
ATOM      4  C   UNL     1       2.149   3.088  21.974  0.00  0.00    +0.000 C 
ATOM      5  C   UNL     1       2.006   2.847  20.506  0.00  0.00    +0.000 A 
ATOM      6  C   UNL     1       0.765   2.957  19.797  0.00  0.00    +0.000 A 
ATOM      7  C   UNL     1       0.897   2.702  18.452  0.00  0.00    +0.000 A 
ATOM      8  S   UNL     1       2.501   2.314  18.030  0.00  0.00    +0.000 S 
ATOM      9  C   UNL     1       3.042   2.503  19.648  0.00  0.00    +0.000 A 
ENDBRANCH   3   9
ENDBRANCH   1   3
BRANCH   1  10
ATOM     10  C   UNL     1       5.134   4.660  19.511  0.00  0.00    +0.000 C 
BRANCH  10  11
ATOM     11  C   UNL     1       6.137   5.605  18.834  0.00  0.00    +0.000 C 
BRANCH  11  12
ATOM     12  C   UNL     1       6.174   5.446  17.338  0.00  0.00    +0.000 A 
ATOM     13  C   UNL     1       5.196   6.031  16.528  0.00  0.00    +0.000 A 
ATOM     14  C   UNL     1       5.220   5.835  15.143  0.00  0.00    +0.000 A 
ATOM     15  C   UNL     1       6.225   5.061  14.561  0.00  0.00    +0.000 A 
ATOM     16  C   UNL     1       7.214   4.490  15.358  0.00  0.00    +0.000 A 
ATOM     17  C   UNL     1       7.185   4.691  16.734  0.00  0.00    +0.000 A 
ATOM     18  F   UNL     1       8.143   4.133  17.490  0.00  0.00    +0.000 F 
ENDBRANCH  11  12
ENDBRANCH  10  11
ENDBRANCH   1  10
TORSDOF 5
ENDMDL
MODEL 2
REMARK VINA RESULT:      -6.6      1.093      1.597
REMARK  Name = 
REMARK  6 active torsions:
REMARK  status: ('A' for Active; 'I' for Inactive)
REMARK    1  A    between atoms: C_1  and  C_2
REMARK    2  A    between atoms: C_6  and  C_7
REMARK    3  A    between atoms: C_7  and  N_8
REMARK    4  A    between atoms: N_8  and  C_9
REMARK    5  A    between atoms: C_9  and  C_10
REMARK    6  A    between atoms: C_10  and  C_11
REMARK                            x       y       z     vdW  Elec       q    Type
REMARK                         _______ _______ _______ _____ _____    ______ ____
ROOT
ATOM      1  N   UNL     1       5.421   3.186  19.239  0.00  0.00    +0.000 NA
ATOM      2  H   UNL     1       5.291   3.100  18.231  0.00  0.00    +0.000 HD
ENDROOT
BRANCH   1   3
ATOM      3  C   UNL     1       4.457   2.293  19.892  0.00  0.00    +0.000 C 
BRANCH   3   9
ATOM      4  C   UNL     1       2.710   2.963  17.304  0.00  0.00    +0.000 C 
ATOM      5  C   UNL     1       2.281   3.140  18.725  0.00  0.00    +0.000 A 
ATOM      6  C   UNL     1       0.985   3.609  19.115  0.00  0.00    +0.000 A 
ATOM      7  C   UNL     1       0.830   3.670  20.480  0.00  0.00    +0.000 A 
ATOM      8  S   UNL     1       2.238   3.183  21.305  0.00  0.00    +0.000 S 
ATOM      9  C   UNL     1       3.068   2.865  19.837  0.00  0.00    +0.000 A 
ENDBRANCH   3   9
ENDBRANCH   1   3
BRANCH   1  10
ATOM     10  C   UNL     1       5.220   4.590  19.627  0.00  0.00    +0.000 C 
BRANCH  10  11
ATOM     11  C   UNL     1       6.198   5.552  18.936  0.00  0.00    +0.000 C 
BRANCH  11  12
ATOM     12  C   UNL     1       6.189   5.420  17.437  0.00  0.00    +0.000 A 
ATOM     13  C   UNL     1       5.178   6.006  16.670  0.00  0.00    +0.000 A 
ATOM     14  C   UNL     1       5.161   5.835  15.282  0.00  0.00    +0.000 A 
ATOM     15  C   UNL     1       6.157   5.086  14.653  0.00  0.00    +0.000 A 
ATOM     16  C   UNL     1       7.179   4.516  15.408  0.00  0.00    +0.000 A 
ATOM     17  C   UNL     1       7.191   4.691  16.788  0.00  0.00    +0.000 A 
ATOM     18  F   UNL     1       8.180   4.134  17.504  0.00  0.00    +0.000 F 
ENDBRANCH  11  12
ENDBRANCH  10  11
ENDBRANCH   1  10
TORSDOF 5
ENDMDL
MODEL 3
REMARK VINA RESULT:      -6.6      2.220      3.209
REMARK  Name = 
REMARK  6 active torsions:
REMARK  status: ('A' for Active; 'I' for Inactive)
REMARK    1  A    between atoms: C_1  and  C_2
REMARK    2  A    between atoms: C_6  and  C_7
REMARK    3  A    between atoms: C_7  and  N_8
REMARK    4  A    between atoms: N_8  and  C_9
REMARK    5  A    between atoms: C_9  and  C_10
REMARK    6  A    between atoms: C_10  and  C_11
REMARK                            x       y       z     vdW  Elec       q    Type
REMARK                         _______ _______ _______ _____ _____    ______ ____
ROOT
ATOM      1  N   UNL     1       2.587   3.024  16.978  0.00  0.00    +0.000 NA
ATOM      2  H   UNL     1       2.442   3.071  15.968  0.00  0.00    +0.000 HD
ENDROOT
BRANCH   1   3
ATOM      3  C   UNL     1       1.714   4.025  17.600  0.00  0.00    +0.000 C 
BRANCH   3   9
ATOM      4  C   UNL     1       2.839   6.321  19.514  0.00  0.00    +0.000 C 
ATOM      5  C   UNL     1       2.306   4.994  19.950  0.00  0.00    +0.000 A 
ATOM      6  C   UNL     1       2.195   4.591  21.321  0.00  0.00    +0.000 A 
ATOM      7  C   UNL     1       1.661   3.332  21.463  0.00  0.00    +0.000 A 
ATOM      8  S   UNL     1       1.302   2.617  19.958  0.00  0.00    +0.000 S 
ATOM      9  C   UNL     1       1.843   4.000  19.098  0.00  0.00    +0.000 A 
ENDBRANCH   3   9
ENDBRANCH   1   3
BRANCH   1  10
ATOM     10  C   UNL     1       4.006   3.275  17.268  0.00  0.00    +0.000 C 
BRANCH  10  11
ATOM     11  C   UNL     1       4.652   4.275  16.297  0.00  0.00    +0.000 C 
BRANCH  11  12
ATOM     12  C   UNL     1       5.710   5.124  16.949  0.00  0.00    +0.000 A 
ATOM     13  C   UNL     1       6.603   4.576  17.874  0.00  0.00    +0.000 A 
ATOM     14  C   UNL     1       7.551   5.391  18.503  0.00  0.00    +0.000 A 
ATOM     15  C   UNL     1       7.615   6.753  18.206  0.00  0.00    +0.000 A 
ATOM     16  C   UNL     1       6.742   7.303  17.271  0.00  0.00    +0.000 A 
ATOM     17  C   UNL     1       5.803   6.487  16.648  0.00  0.00    +0.000 A 
ATOM     18  F   UNL     1       4.966   7.031  15.751  0.00  0.00    +0.000 F 
ENDBRANCH  11  12
ENDBRANCH  10  11
ENDBRANCH   1  10
TORSDOF 5
ENDMDL
MODEL 4
REMARK VINA RESULT:      -6.6      2.003      2.894
REMARK  Name = 
REMARK  6 active torsions:
REMARK  status: ('A' for Active; 'I' for Inactive)
REMARK    1  A    between atoms: C_1  and  C_2
REMARK    2  A    between atoms: C_6  and  C_7
REMARK    3  A    between atoms: C_7  and  N_8
REMARK    4  A    between atoms: N_8  and  C_9
REMARK    5  A    between atoms: C_9  and  C_10
REMARK    6  A    between atoms: C_10  and  C_11
REMARK                            x       y       z     vdW  Elec       q    Type
REMARK                         _______ _______ _______ _____ _____    ______ ____
ROOT
ATOM      1  N   UNL     1       4.323   2.653  17.477  0.00  0.00    +0.000 NA
ATOM      2  H   UNL     1       4.842   2.074  16.815  0.00  0.00    +0.000 HD
ENDROOT
BRANCH   1   3
ATOM      3  C   UNL     1       3.101   1.929  17.841  0.00  0.00    +0.000 C 
BRANCH   3   9
ATOM      4  C   UNL     1       4.714   2.087  20.593  0.00  0.00    +0.000 C 
ATOM      5  C   UNL     1       3.282   2.466  20.389  0.00  0.00    +0.000 A 
ATOM      6  C   UNL     1       2.443   2.999  21.421  0.00  0.00    +0.000 A 
ATOM      7  C   UNL     1       1.172   3.284  20.979  0.00  0.00    +0.000 A 
ATOM      8  S   UNL     1       0.969   2.902  19.332  0.00  0.00    +0.000 S 
ATOM      9  C   UNL     1       2.593   2.367  19.187  0.00  0.00    +0.000 A 
ENDBRANCH   3   9
ENDBRANCH   1   3
BRANCH   1  10
ATOM     10  C   UNL     1       4.027   3.948  16.846  0.00  0.00    +0.000 C 
BRANCH  10  11
ATOM     11  C   UNL     1       4.059   5.122  17.835  0.00  0.00    +0.000 C 
BRANCH  11  12
ATOM     12  C   UNL     1       5.446   5.665  18.056  0.00  0.00    +0.000 A 
ATOM     13  C   UNL     1       6.215   5.249  19.146  0.00  0.00    +0.000 A 
ATOM     14  C   UNL     1       7.483   5.798  19.361  0.00  0.00    +0.000 A 
ATOM     15  C   UNL     1       7.992   6.759  18.485  0.00  0.00    +0.000 A 
ATOM     16  C   UNL     1       7.239   7.164  17.386  0.00  0.00    +0.000 A 
ATOM     17  C   UNL     1       5.980   6.613  17.176  0.00  0.00    +0.000 A 
ATOM     18  F   UNL     1       5.265   7.014  16.115  0.00  0.00    +0.000 F 
ENDBRANCH  11  12
ENDBRANCH  10  11
ENDBRANCH   1  10
TORSDOF 5
ENDMDL
MODEL 5
REMARK VINA RESULT:      -6.6      2.050      3.094
REMARK  Name = 
REMARK  6 active torsions:
REMARK  status: ('A' for Active; 'I' for Inactive)
REMARK    1  A    between atoms: C_1  and  C_2
REMARK    2  A    between atoms: C_6  and  C_7
REMARK    3  A    between atoms: C_7  and  N_8
REMARK    4  A    between atoms: N_8  and  C_9
REMARK    5  A    between atoms: C_9  and  C_10
REMARK    6  A    between atoms: C_10  and  C_11
REMARK                            x       y       z     vdW  Elec       q    Type
REMARK                         _______ _______ _______ _____ _____    ______ ____
ROOT
ATOM      1  N   UNL     1       6.400   3.967  18.081  0.00  0.00    +0.000 NA
ATOM      2  H   UNL     1       5.839   3.375  17.467  0.00  0.00    +0.000 HD
ENDROOT
BRANCH   1   3
ATOM      3  C   UNL     1       5.484   4.860  18.798  0.00  0.00    +0.000 C 
BRANCH   3   9
ATOM      4  C   UNL     1       3.125   6.866  18.016  0.00  0.00    +0.000 C 
ATOM      5  C   UNL     1       3.017   5.379  18.126  0.00  0.00    +0.000 A 
ATOM      6  C   UNL     1       1.818   4.644  17.849  0.00  0.00    +0.000 A 
ATOM      7  C   UNL     1       1.977   3.287  18.005  0.00  0.00    +0.000 A 
ATOM      8  S   UNL     1       3.556   2.883  18.500  0.00  0.00    +0.000 S 
ATOM      9  C   UNL     1       4.051   4.526  18.491  0.00  0.00    +0.000 A 
ENDBRANCH   3   9
ENDBRANCH   1   3
BRANCH   1  10
ATOM     10  C   UNL     1       7.372   4.712  17.268  0.00  0.00    +0.000 C 
BRANCH  10  11
ATOM     11  C   UNL     1       6.711   5.621  16.222  0.00  0.00    +0.000 C 
BRANCH  11  12
ATOM     12  C   UNL     1       6.669   5.003  14.850  0.00  0.00    +0.000 A 
ATOM     13  C   UNL     1       7.665   5.277  13.908  0.00  0.00    +0.000 A 
ATOM     14  C   UNL     1       7.586   4.729  12.623  0.00  0.00    +0.000 A 
ATOM     15  C   UNL     1       6.517   3.901  12.276  0.00  0.00    +0.000 A 
ATOM     16  C   UNL     1       5.531   3.608  13.215  0.00  0.00    +0.000 A 
ATOM     17  C   UNL     1       5.617   4.154  14.492  0.00  0.00    +0.000 A 
ATOM     18  F   UNL     1       4.659   3.865  15.386  0.00  0.00    +0.000 F 
ENDBRANCH  11  12
ENDBRANCH  10  11
ENDBRANCH   1  10
TORSDOF 5
ENDMDL
MODEL 6
REMARK VINA RESULT:      -6.4      2.014      2.580
REMARK  Name = 
REMARK  6 active torsions:
REMARK  status: ('A' for Active; 'I' for Inactive)
REMARK    1  A    between atoms: C_1  and  C_2
REMARK    2  A    between atoms: C_6  and  C_7
REMARK    3  A    between atoms: C_7  and  N_8
REMARK    4  A    between atoms: N_8  and  C_9
REMARK    5  A    between atoms: C_9  and  C_10
REMARK    6  A    between atoms: C_10  and  C_11
REMARK                            x       y       z     vdW  Elec       q    Type
REMARK                         _______ _______ _______ _____ _____    ______ ____
ROOT
ATOM      1  N   UNL     1       6.102   4.512  19.454  0.00  0.00    +0.000 NA
ATOM      2  H   UNL     1       6.079   4.146  18.502  0.00  0.00    +0.000 HD
ENDROOT
BRANCH   1   3
ATOM      3  C   UNL     1       4.748   4.967  19.790  0.00  0.00    +0.000 C 
BRANCH   3   9
ATOM      4  C   UNL     1       2.451   6.372  18.073  0.00  0.00    +0.000 C 
ATOM      5  C   UNL     1       2.732   4.905  18.134  0.00  0.00    +0.000 A 
ATOM      6  C   UNL     1       2.011   3.923  17.380  0.00  0.00    +0.000 A 
ATOM      7  C   UNL     1       2.469   2.644  17.596  0.00  0.00    +0.000 A 
ATOM      8  S   UNL     1       3.753   2.607  18.715  0.00  0.00    +0.000 S 
ATOM      9  C   UNL     1       3.723   4.313  18.907  0.00  0.00    +0.000 A 
ENDBRANCH   3   9
ENDBRANCH   1   3
BRANCH   1  10
ATOM     10  C   UNL     1       7.082   5.606  19.521  0.00  0.00    +0.000 C 
BRANCH  10  11
ATOM     11  C   UNL     1       7.791   5.862  18.183  0.00  0.00    +0.000 C 
BRANCH  11  12
ATOM     12  C   UNL     1       6.941   5.509  16.992  0.00  0.00    +0.000 A 
ATOM     13  C   UNL     1       7.163   4.328  16.276  0.00  0.00    +0.000 A 
ATOM     14  C   UNL     1       6.393   4.038  15.144  0.00  0.00    +0.000 A 
ATOM     15  C   UNL     1       5.395   4.921  14.727  0.00  0.00    +0.000 A 
ATOM     16  C   UNL     1       5.156   6.090  15.446  0.00  0.00    +0.000 A 
ATOM     17  C   UNL     1       5.923   6.371  16.571  0.00  0.00    +0.000 A 
ATOM     18  F   UNL     1       5.684   7.502  17.253  0.00  0.00    +0.000 F 
ENDBRANCH  11  12
ENDBRANCH  10  11
ENDBRANCH   1  10
TORSDOF 5
ENDMDL
MODEL 7
REMARK VINA RESULT:      -6.4      2.261      3.167
REMARK  Name = 
REMARK  6 active torsions:
REMARK  status: ('A' for Active; 'I' for Inactive)
REMARK    1  A    between atoms: C_1  and  C_2
REMARK    2  A    between atoms: C_6  and  C_7
REMARK    3  A    between atoms: C_7  and  N_8
REMARK    4  A    between atoms: N_8  and  C_9
REMARK    5  A    between atoms: C_9  and  C_10
REMARK    6  A    between atoms: C_10  and  C_11
REMARK                            x       y       z     vdW  Elec       q    Type
REMARK                         _______ _______ _______ _____ _____    ______ ____
ROOT
ATOM      1  N   UNL     1       1.763   5.472  17.805  0.00  0.00    +0.000 NA
ATOM      2  H   UNL     1       1.101   5.745  18.532  0.00  0.00    +0.000 HD
ENDROOT
BRANCH   1   3
ATOM      3  C   UNL     1       1.882   4.011  17.835  0.00  0.00    +0.000 C 
BRANCH   3   9
ATOM      4  C   UNL     1       3.769   1.635  18.832  0.00  0.00    +0.000 C 
ATOM      5  C   UNL     1       2.909   2.499  19.698  0.00  0.00    +0.000 A 
ATOM      6  C   UNL     1       2.851   2.391  21.126  0.00  0.00    +0.000 A 
ATOM      7  C   UNL     1       1.999   3.308  21.694  0.00  0.00    +0.000 A 
ATOM      8  S   UNL     1       1.250   4.294  20.524  0.00  0.00    +0.000 S 
ATOM      9  C   UNL     1       2.077   3.513  19.240  0.00  0.00    +0.000 A 
ENDBRANCH   3   9
ENDBRANCH   1   3
BRANCH   1  10
ATOM     10  C   UNL     1       3.050   6.135  18.060  0.00  0.00    +0.000 C 
BRANCH  10  11
ATOM     11  C   UNL     1       4.213   5.518  17.269  0.00  0.00    +0.000 C 
BRANCH  11  12
ATOM     12  C   UNL     1       5.562   5.974  17.757  0.00  0.00    +0.000 A 
ATOM     13  C   UNL     1       6.244   7.012  17.115  0.00  0.00    +0.000 A 
ATOM     14  C   UNL     1       7.517   7.393  17.554  0.00  0.00    +0.000 A 
ATOM     15  C   UNL     1       8.109   6.745  18.639  0.00  0.00    +0.000 A 
ATOM     16  C   UNL     1       7.428   5.724  19.296  0.00  0.00    +0.000 A 
ATOM     17  C   UNL     1       6.162   5.351  18.856  0.00  0.00    +0.000 A 
ATOM     18  F   UNL     1       5.518   4.364  19.496  0.00  0.00    +0.000 F 
ENDBRANCH  11  12
ENDBRANCH  10  11
ENDBRANCH   1  10
TORSDOF 5
ENDMDL
MODEL 8
REMARK VINA RESULT:      -6.4      1.435      1.956
REMARK  Name = 
REMARK  6 active torsions:
REMARK  status: ('A' for Active; 'I' for Inactive)
REMARK    1  A    between atoms: C_1  and  C_2
REMARK    2  A    between atoms: C_6  and  C_7
REMARK    3  A    between atoms: C_7  and  N_8
REMARK    4  A    between atoms: N_8  and  C_9
REMARK    5  A    between atoms: C_9  and  C_10
REMARK    6  A    between atoms: C_10  and  C_11
REMARK                            x       y       z     vdW  Elec       q    Type
REMARK                         _______ _______ _______ _____ _____    ______ ____
ROOT
ATOM      1  N   UNL     1       5.843   4.417  19.295  0.00  0.00    +0.000 NA
ATOM      2  H   UNL     1       5.885   4.151  18.310  0.00  0.00    +0.000 HD
ENDROOT
BRANCH   1   3
ATOM      3  C   UNL     1       4.483   4.888  19.574  0.00  0.00    +0.000 C 
BRANCH   3   9
ATOM      4  C   UNL     1       2.095   3.767  21.374  0.00  0.00    +0.000 C 
ATOM      5  C   UNL     1       2.404   3.360  19.969  0.00  0.00    +0.000 A 
ATOM      6  C   UNL     1       1.624   2.418  19.222  0.00  0.00    +0.000 A 
ATOM      7  C   UNL     1       2.103   2.223  17.948  0.00  0.00    +0.000 A 
ATOM      8  S   UNL     1       3.498   3.152  17.642  0.00  0.00    +0.000 S 
ATOM      9  C   UNL     1       3.464   3.843  19.212  0.00  0.00    +0.000 A 
ENDBRANCH   3   9
ENDBRANCH   1   3
BRANCH   1  10
ATOM     10  C   UNL     1       6.849   5.458  19.549  0.00  0.00    +0.000 C 
BRANCH  10  11
ATOM     11  C   UNL     1       7.626   5.867  18.290  0.00  0.00    +0.000 C 
BRANCH  11  12
ATOM     12  C   UNL     1       6.896   5.534  17.016  0.00  0.00    +0.000 A 
ATOM     13  C   UNL     1       7.248   4.414  16.258  0.00  0.00    +0.000 A 
ATOM     14  C   UNL     1       6.589   4.145  15.054  0.00  0.00    +0.000 A 
ATOM     15  C   UNL     1       5.571   4.990  14.606  0.00  0.00    +0.000 A 
ATOM     16  C   UNL     1       5.202   6.097  15.365  0.00  0.00    +0.000 A 
ATOM     17  C   UNL     1       5.860   6.357  16.563  0.00  0.00    +0.000 A 
ATOM     18  F   UNL     1       5.495   7.429  17.283  0.00  0.00    +0.000 F 
ENDBRANCH  11  12
ENDBRANCH  10  11
ENDBRANCH   1  10
TORSDOF 5
ENDMDL
MODEL 9
REMARK VINA RESULT:      -6.4      2.527      3.724
REMARK  Name = 
REMARK  6 active torsions:
REMARK  status: ('A' for Active; 'I' for Inactive)
REMARK    1  A    between atoms: C_1  and  C_2
REMARK    2  A    between atoms: C_6  and  C_7
REMARK    3  A    between atoms: C_7  and  N_8
REMARK    4  A    between atoms: N_8  and  C_9
REMARK    5  A    between atoms: C_9  and  C_10
REMARK    6  A    between atoms: C_10  and  C_11
REMARK                            x       y       z     vdW  Elec       q    Type
REMARK                         _______ _______ _______ _____ _____    ______ ____
ROOT
ATOM      1  N   UNL     1       4.526   2.582  17.585  0.00  0.00    +0.000 NA
ATOM      2  H   UNL     1       4.990   1.986  16.898  0.00  0.00    +0.000 HD
ENDROOT
BRANCH   1   3
ATOM      3  C   UNL     1       3.203   2.008  17.853  0.00  0.00    +0.000 C 
BRANCH   3   9
ATOM      4  C   UNL     1       0.229   2.727  18.767  0.00  0.00    +0.000 C 
ATOM      5  C   UNL     1       1.432   2.669  19.653  0.00  0.00    +0.000 A 
ATOM      6  C   UNL     1       1.394   2.899  21.067  0.00  0.00    +0.000 A 
ATOM      7  C   UNL     1       2.628   2.773  21.660  0.00  0.00    +0.000 A 
ATOM      8  S   UNL     1       3.844   2.396  20.528  0.00  0.00    +0.000 S 
ATOM      9  C   UNL     1       2.723   2.378  19.229  0.00  0.00    +0.000 A 
ENDBRANCH   3   9
ENDBRANCH   1   3
BRANCH   1  10
ATOM     10  C   UNL     1       4.434   3.947  17.045  0.00  0.00    +0.000 C 
BRANCH  10  11
ATOM     11  C   UNL     1       4.987   5.012  18.002  0.00  0.00    +0.000 C 
BRANCH  11  12
ATOM     12  C   UNL     1       3.974   6.069  18.352  0.00  0.00    +0.000 A 
ATOM     13  C   UNL     1       3.229   5.988  19.532  0.00  0.00    +0.000 A 
ATOM     14  C   UNL     1       2.260   6.955  19.819  0.00  0.00    +0.000 A 
ATOM     15  C   UNL     1       2.036   8.010  18.932  0.00  0.00    +0.000 A 
ATOM     16  C   UNL     1       2.786   8.108  17.764  0.00  0.00    +0.000 A 
ATOM     17  C   UNL     1       3.750   7.144  17.485  0.00  0.00    +0.000 A 
ATOM     18  F   UNL     1       4.464   7.250  16.355  0.00  0.00    +0.000 F 
ENDBRANCH  11  12
ENDBRANCH  10  11
ENDBRANCH   1  10
TORSDOF 5
ENDMDL
