MODEL 1
REMARK VINA RESULT:      -7.3      0.000      0.000
REMARK  Name = 
REMARK  4 active torsions:
REMARK  status: ('A' for Active; 'I' for Inactive)
REMARK    1  A    between atoms: C_1  and  C_2
REMARK    2  A    between atoms: C_7  and  C_8
REMARK    3  A    between atoms: N_12  and  C_13
REMARK    4  A    between atoms: C_31  and  C_32
REMARK                            x       y       z     vdW  Elec       q    Type
REMARK                         _______ _______ _______ _____ _____    ______ ____
ROOT
ATOM      1  C   UNL     1      -3.163  14.839  22.184  0.00  0.00    +0.000 C 
ATOM      2  C   UNL     1      -4.116  13.896  21.995  0.00  0.00    +0.000 C 
ATOM      3  C   UNL     1      -4.078  13.113  20.706  0.00  0.00    +0.000 C 
ATOM      4  O   UNL     1      -3.092  12.880  20.032  0.00  0.00    +0.000 OA
ATOM      5  N   UNL     1      -5.371  12.661  20.489  0.00  0.00    +0.000 N 
ATOM      6  C   UNL     1      -6.087  12.703  21.690  0.00  0.00    +0.000 A 
ATOM      7  C   UNL     1      -7.286  12.022  21.873  0.00  0.00    +0.000 A 
ATOM      8  C   UNL     1      -7.917  12.131  23.095  0.00  0.00    +0.000 A 
ATOM      9  C   UNL     1      -7.343  12.965  24.068  0.00  0.00    +0.000 A 
ATOM     10  C   UNL     1      -6.101  13.647  23.864  0.00  0.00    +0.000 A 
ATOM     11  C   UNL     1      -5.410  13.471  22.671  0.00  0.00    +0.000 A 
ENDROOT
BRANCH   1  18
ATOM     12  C   UNL     1       2.174  17.784  16.656  0.00  0.00    +0.000 C 
ATOM     13  C   UNL     1       1.084  17.373  17.624  0.00  0.00    +0.000 A 
ATOM     14  C   UNL     1      -0.148  18.021  17.572  0.00  0.00    +0.000 A 
ATOM     15  C   UNL     1      -1.178  17.644  18.442  0.00  0.00    +0.000 A 
ATOM     16  C   UNL     1      -1.033  16.610  19.387  0.00  0.00    +0.000 A 
ATOM     17  C   UNL     1      -2.119  16.233  20.256  0.00  0.00    +0.000 A 
ATOM     18  C   UNL     1      -2.010  15.233  21.233  0.00  0.00    +0.000 A 
ATOM     19  C   UNL     1      -0.742  14.644  21.230  0.00  0.00    +0.000 A 
ATOM     20 CL   UNL     1      -0.326  13.397  22.348  0.00  0.00    +0.000 Cl
ATOM     21  N   UNL     1       0.325  14.959  20.409  0.00  0.00    +0.000 NA
ATOM     22  C   UNL     1       0.215  15.940  19.473  0.00  0.00    +0.000 A 
ATOM     23  C   UNL     1       1.262  16.335  18.584  0.00  0.00    +0.000 A 
ATOM     24  C   UNL     1       2.610  15.648  18.622  0.00  0.00    +0.000 C 
ENDBRANCH   1  18
BRANCH   5  25
ATOM     25  C   UNL     1      -6.024  13.197  19.329  0.00  0.00    +0.000 A 
ATOM     26  C   UNL     1      -6.125  12.366  18.201  0.00  0.00    +0.000 A 
ATOM     27 CL   UNL     1      -5.545  10.734  18.200  0.00  0.00    +0.000 Cl
ATOM     28  C   UNL     1      -6.745  12.818  17.035  0.00  0.00    +0.000 A 
ATOM     29  C   UNL     1      -7.275  14.102  16.965  0.00  0.00    +0.000 A 
ATOM     30  C   UNL     1      -7.158  14.956  18.054  0.00  0.00    +0.000 A 
ATOM     31  C   UNL     1      -6.523  14.526  19.221  0.00  0.00    +0.000 A 
ATOM     32 CL   UNL     1      -6.330  15.776  20.413  0.00  0.00    +0.000 Cl
ENDBRANCH   5  25
TORSDOF 2
ENDMDL
MODEL 2
REMARK VINA RESULT:      -7.3      1.119      1.387
REMARK  Name = 
REMARK  4 active torsions:
REMARK  status: ('A' for Active; 'I' for Inactive)
REMARK    1  A    between atoms: C_1  and  C_2
REMARK    2  A    between atoms: C_7  and  C_8
REMARK    3  A    between atoms: N_12  and  C_13
REMARK    4  A    between atoms: C_31  and  C_32
REMARK                            x       y       z     vdW  Elec       q    Type
REMARK                         _______ _______ _______ _____ _____    ______ ____
ROOT
ATOM      1  C   UNL     1      -2.583  13.588  22.342  0.00  0.00    +0.000 C 
ATOM      2  C   UNL     1      -3.789  13.051  22.040  0.00  0.00    +0.000 C 
ATOM      3  C   UNL     1      -4.037  12.653  20.607  0.00  0.00    +0.000 C 
ATOM      4  O   UNL     1      -3.195  12.320  19.794  0.00  0.00    +0.000 OA
ATOM      5  N   UNL     1      -5.412  12.676  20.431  0.00  0.00    +0.000 N 
ATOM      6  C   UNL     1      -6.043  12.616  21.678  0.00  0.00    +0.000 A 
ATOM      7  C   UNL     1      -7.389  12.297  21.824  0.00  0.00    +0.000 A 
ATOM      8  C   UNL     1      -7.916  12.269  23.099  0.00  0.00    +0.000 A 
ATOM      9  C   UNL     1      -7.082  12.616  24.173  0.00  0.00    +0.000 A 
ATOM     10  C   UNL     1      -5.695  12.928  24.002  0.00  0.00    +0.000 A 
ATOM     11  C   UNL     1      -5.130  12.870  22.734  0.00  0.00    +0.000 A 
ENDROOT
BRANCH   1  18
ATOM     12  C   UNL     1       3.270  16.163  17.163  0.00  0.00    +0.000 C 
ATOM     13  C   UNL     1       2.135  15.856  18.117  0.00  0.00    +0.000 A 
ATOM     14  C   UNL     1       1.197  16.847  18.395  0.00  0.00    +0.000 A 
ATOM     15  C   UNL     1       0.127  16.581  19.258  0.00  0.00    +0.000 A 
ATOM     16  C   UNL     1      -0.062  15.326  19.868  0.00  0.00    +0.000 A 
ATOM     17  C   UNL     1      -1.184  15.077  20.736  0.00  0.00    +0.000 A 
ATOM     18  C   UNL     1      -1.394  13.855  21.391  0.00  0.00    +0.000 A 
ATOM     19  C   UNL     1      -0.403  12.921  21.072  0.00  0.00    +0.000 A 
ATOM     20 CL   UNL     1      -0.404  11.338  21.758  0.00  0.00    +0.000 Cl
ATOM     21  N   UNL     1       0.682  13.106  20.236  0.00  0.00    +0.000 NA
ATOM     22  C   UNL     1       0.885  14.299  19.615  0.00  0.00    +0.000 A 
ATOM     23  C   UNL     1       1.977  14.583  18.737  0.00  0.00    +0.000 A 
ATOM     24  C   UNL     1       3.011  13.523  18.421  0.00  0.00    +0.000 C 
ENDBRANCH   1  18
BRANCH   5  25
ATOM     25  C   UNL     1      -5.899  13.660  19.508  0.00  0.00    +0.000 A 
ATOM     26  C   UNL     1      -6.333  13.210  18.251  0.00  0.00    +0.000 A 
ATOM     27 CL   UNL     1      -6.348  11.532  17.823  0.00  0.00    +0.000 Cl
ATOM     28  C   UNL     1      -6.819  14.109  17.299  0.00  0.00    +0.000 A 
ATOM     29  C   UNL     1      -6.880  15.471  17.576  0.00  0.00    +0.000 A 
ATOM     30  C   UNL     1      -6.424  15.947  18.799  0.00  0.00    +0.000 A 
ATOM     31  C   UNL     1      -5.918  15.062  19.754  0.00  0.00    +0.000 A 
ATOM     32 CL   UNL     1      -5.251  15.851  21.151  0.00  0.00    +0.000 Cl
ENDBRANCH   5  25
TORSDOF 2
ENDMDL
MODEL 3
REMARK VINA RESULT:      -7.2      1.264      2.054
REMARK  Name = 
REMARK  4 active torsions:
REMARK  status: ('A' for Active; 'I' for Inactive)
REMARK    1  A    between atoms: C_1  and  C_2
REMARK    2  A    between atoms: C_7  and  C_8
REMARK    3  A    between atoms: N_12  and  C_13
REMARK    4  A    between atoms: C_31  and  C_32
REMARK                            x       y       z     vdW  Elec       q    Type
REMARK                         _______ _______ _______ _____ _____    ______ ____
ROOT
ATOM      1  C   UNL     1      -2.898  14.156  22.164  0.00  0.00    +0.000 C 
ATOM      2  C   UNL     1      -3.952  13.367  21.846  0.00  0.00    +0.000 C 
ATOM      3  C   UNL     1      -4.012  12.815  20.443  0.00  0.00    +0.000 C 
ATOM      4  O   UNL     1      -3.063  12.593  19.714  0.00  0.00    +0.000 OA
ATOM      5  N   UNL     1      -5.349  12.549  20.189  0.00  0.00    +0.000 N 
ATOM      6  C   UNL     1      -6.046  12.465  21.398  0.00  0.00    +0.000 A 
ATOM      7  C   UNL     1      -7.312  11.896  21.497  0.00  0.00    +0.000 A 
ATOM      8  C   UNL     1      -7.917  11.865  22.736  0.00  0.00    +0.000 A 
ATOM      9  C   UNL     1      -7.246  12.455  23.819  0.00  0.00    +0.000 A 
ATOM     10  C   UNL     1      -5.938  13.022  23.700  0.00  0.00    +0.000 A 
ATOM     11  C   UNL     1      -5.280  12.978  22.476  0.00  0.00    +0.000 A 
ENDROOT
BRANCH   1  18
ATOM     12  C   UNL     1       3.942  15.342  17.747  0.00  0.00    +0.000 C 
ATOM     13  C   UNL     1       2.749  14.965  18.600  0.00  0.00    +0.000 A 
ATOM     14  C   UNL     1       2.786  13.780  19.332  0.00  0.00    +0.000 A 
ATOM     15  C   UNL     1       1.704  13.420  20.144  0.00  0.00    +0.000 A 
ATOM     16  C   UNL     1       0.552  14.220  20.271  0.00  0.00    +0.000 A 
ATOM     17  C   UNL     1      -0.537  13.831  21.130  0.00  0.00    +0.000 A 
ATOM     18  C   UNL     1      -1.716  14.578  21.262  0.00  0.00    +0.000 A 
ATOM     19  C   UNL     1      -1.681  15.742  20.488  0.00  0.00    +0.000 A 
ATOM     20 CL   UNL     1      -3.014  16.836  20.445  0.00  0.00    +0.000 Cl
ATOM     21  N   UNL     1      -0.657  16.165  19.661  0.00  0.00    +0.000 NA
ATOM     22  C   UNL     1       0.479  15.426  19.528  0.00  0.00    +0.000 A 
ATOM     23  C   UNL     1       1.586  15.783  18.697  0.00  0.00    +0.000 A 
ATOM     24  C   UNL     1       1.569  17.063  17.892  0.00  0.00    +0.000 C 
ENDBRANCH   1  18
BRANCH   5  25
ATOM     25  C   UNL     1      -5.947  13.341  19.153  0.00  0.00    +0.000 A 
ATOM     26  C   UNL     1      -6.035  12.772  17.872  0.00  0.00    +0.000 A 
ATOM     27 CL   UNL     1      -5.503  11.158  17.539  0.00  0.00    +0.000 Cl
ATOM     28  C   UNL     1      -6.603  13.482  16.812  0.00  0.00    +0.000 A 
ATOM     29  C   UNL     1      -7.093  14.770  17.004  0.00  0.00    +0.000 A 
ATOM     30  C   UNL     1      -6.988  15.369  18.252  0.00  0.00    +0.000 A 
ATOM     31  C   UNL     1      -6.404  14.679  19.317  0.00  0.00    +0.000 A 
ATOM     32 CL   UNL     1      -6.215  15.641  20.752  0.00  0.00    +0.000 Cl
ENDBRANCH   5  25
TORSDOF 2
ENDMDL
MODEL 4
REMARK VINA RESULT:      -7.1      3.320      4.729
REMARK  Name = 
REMARK  4 active torsions:
REMARK  status: ('A' for Active; 'I' for Inactive)
REMARK    1  A    between atoms: C_1  and  C_2
REMARK    2  A    between atoms: C_7  and  C_8
REMARK    3  A    between atoms: N_12  and  C_13
REMARK    4  A    between atoms: C_31  and  C_32
REMARK                            x       y       z     vdW  Elec       q    Type
REMARK                         _______ _______ _______ _____ _____    ______ ____
ROOT
ATOM      1  C   UNL     1      -2.897  14.610  22.814  0.00  0.00    +0.000 C 
ATOM      2  C   UNL     1      -4.247  14.711  22.864  0.00  0.00    +0.000 C 
ATOM      3  C   UNL     1      -5.054  13.562  22.313  0.00  0.00    +0.000 C 
ATOM      4  O   UNL     1      -4.705  12.398  22.253  0.00  0.00    +0.000 OA
ATOM      5  N   UNL     1      -6.287  14.089  21.960  0.00  0.00    +0.000 N 
ATOM      6  C   UNL     1      -6.480  15.308  22.620  0.00  0.00    +0.000 A 
ATOM      7  C   UNL     1      -7.728  15.912  22.732  0.00  0.00    +0.000 A 
ATOM      8  C   UNL     1      -7.811  17.116  23.400  0.00  0.00    +0.000 A 
ATOM      9  C   UNL     1      -6.625  17.691  23.884  0.00  0.00    +0.000 A 
ATOM     10  C   UNL     1      -5.353  17.046  23.772  0.00  0.00    +0.000 A 
ATOM     11  C   UNL     1      -5.271  15.790  23.182  0.00  0.00    +0.000 A 
ENDROOT
BRANCH   1  18
ATOM     12  C   UNL     1       1.445   7.873  20.952  0.00  0.00    +0.000 C 
ATOM     13  C   UNL     1       0.603   9.031  21.445  0.00  0.00    +0.000 A 
ATOM     14  C   UNL     1       0.085   8.991  22.739  0.00  0.00    +0.000 A 
ATOM     15  C   UNL     1      -0.679  10.059  23.224  0.00  0.00    +0.000 A 
ATOM     16  C   UNL     1      -0.951  11.207  22.457  0.00  0.00    +0.000 A 
ATOM     17  C   UNL     1      -1.725  12.298  22.992  0.00  0.00    +0.000 A 
ATOM     18  C   UNL     1      -2.049  13.446  22.254  0.00  0.00    +0.000 A 
ATOM     19  C   UNL     1      -1.506  13.403  20.966  0.00  0.00    +0.000 A 
ATOM     20 CL   UNL     1      -1.770  14.679  19.835  0.00  0.00    +0.000 Cl
ATOM     21  N   UNL     1      -0.748  12.388  20.412  0.00  0.00    +0.000 NA
ATOM     22  C   UNL     1      -0.449  11.272  21.130  0.00  0.00    +0.000 A 
ATOM     23  C   UNL     1       0.325  10.175  20.642  0.00  0.00    +0.000 A 
ATOM     24  C   UNL     1       0.896  10.194  19.240  0.00  0.00    +0.000 C 
ENDBRANCH   1  18
BRANCH   5  25
ATOM     25  C   UNL     1      -6.591  14.060  20.558  0.00  0.00    +0.000 A 
ATOM     26  C   UNL     1      -7.302  12.951  20.073  0.00  0.00    +0.000 A 
ATOM     27 CL   UNL     1      -7.855  11.680  21.112  0.00  0.00    +0.000 Cl
ATOM     28  C   UNL     1      -7.633  12.851  18.720  0.00  0.00    +0.000 A 
ATOM     29  C   UNL     1      -7.263  13.849  17.824  0.00  0.00    +0.000 A 
ATOM     30  C   UNL     1      -6.529  14.939  18.271  0.00  0.00    +0.000 A 
ATOM     31  C   UNL     1      -6.173  15.044  19.618  0.00  0.00    +0.000 A 
ATOM     32 CL   UNL     1      -5.126  16.388  19.961  0.00  0.00    +0.000 Cl
ENDBRANCH   5  25
TORSDOF 2
ENDMDL
MODEL 5
REMARK VINA RESULT:      -6.7      5.458      9.387
REMARK  Name = 
REMARK  4 active torsions:
REMARK  status: ('A' for Active; 'I' for Inactive)
REMARK    1  A    between atoms: C_1  and  C_2
REMARK    2  A    between atoms: C_7  and  C_8
REMARK    3  A    between atoms: N_12  and  C_13
REMARK    4  A    between atoms: C_31  and  C_32
REMARK                            x       y       z     vdW  Elec       q    Type
REMARK                         _______ _______ _______ _____ _____    ______ ____
ROOT
ATOM      1  C   UNL     1       0.099  12.518  19.013  0.00  0.00    +0.000 C 
ATOM      2  C   UNL     1       0.805  13.633  18.705  0.00  0.00    +0.000 C 
ATOM      3  C   UNL     1       2.296  13.490  18.533  0.00  0.00    +0.000 C 
ATOM      4  O   UNL     1       2.889  12.487  18.182  0.00  0.00    +0.000 OA
ATOM      5  N   UNL     1       2.837  14.742  18.783  0.00  0.00    +0.000 N 
ATOM      6  C   UNL     1       1.838  15.714  18.663  0.00  0.00    +0.000 A 
ATOM      7  C   UNL     1       2.122  17.070  18.533  0.00  0.00    +0.000 A 
ATOM      8  C   UNL     1       1.064  17.948  18.424  0.00  0.00    +0.000 A 
ATOM      9  C   UNL     1      -0.240  17.434  18.504  0.00  0.00    +0.000 A 
ATOM     10  C   UNL     1      -0.511  16.033  18.623  0.00  0.00    +0.000 A 
ATOM     11  C   UNL     1       0.546  15.130  18.641  0.00  0.00    +0.000 A 
ENDROOT
BRANCH   1  18
ATOM     12  C   UNL     1       3.398   4.980  18.938  0.00  0.00    +0.000 C 
ATOM     13  C   UNL     1       2.873   6.393  18.798  0.00  0.00    +0.000 A 
ATOM     14  C   UNL     1       3.114   7.092  17.617  0.00  0.00    +0.000 A 
ATOM     15  C   UNL     1       2.622   8.393  17.456  0.00  0.00    +0.000 A 
ATOM     16  C   UNL     1       1.866   9.046  18.448  0.00  0.00    +0.000 A 
ATOM     17  C   UNL     1       1.357  10.378  18.244  0.00  0.00    +0.000 A 
ATOM     18  C   UNL     1       0.629  11.081  19.216  0.00  0.00    +0.000 A 
ATOM     19  C   UNL     1       0.443  10.318  20.373  0.00  0.00    +0.000 A 
ATOM     20 CL   UNL     1      -0.401  10.948  21.740  0.00  0.00    +0.000 Cl
ATOM     21  N   UNL     1       0.899   9.035  20.611  0.00  0.00    +0.000 NA
ATOM     22  C   UNL     1       1.616   8.366  19.668  0.00  0.00    +0.000 A 
ATOM     23  C   UNL     1       2.127   7.040  19.825  0.00  0.00    +0.000 A 
ATOM     24  C   UNL     1       1.881   6.262  21.099  0.00  0.00    +0.000 C 
ENDBRANCH   1  18
BRANCH   5  25
ATOM     25  C   UNL     1       3.684  14.826  19.938  0.00  0.00    +0.000 A 
ATOM     26  C   UNL     1       5.068  14.912  19.721  0.00  0.00    +0.000 A 
ATOM     27 CL   UNL     1       5.753  14.974  18.131  0.00  0.00    +0.000 Cl
ATOM     28  C   UNL     1       5.956  14.996  20.795  0.00  0.00    +0.000 A 
ATOM     29  C   UNL     1       5.487  14.995  22.104  0.00  0.00    +0.000 A 
ATOM     30  C   UNL     1       4.125  14.876  22.349  0.00  0.00    +0.000 A 
ATOM     31  C   UNL     1       3.225  14.771  21.285  0.00  0.00    +0.000 A 
ATOM     32 CL   UNL     1       1.588  14.472  21.782  0.00  0.00    +0.000 Cl
ENDBRANCH   5  25
TORSDOF 2
ENDMDL
MODEL 6
REMARK VINA RESULT:      -6.7      7.219     13.212
REMARK  Name = 
REMARK  4 active torsions:
REMARK  status: ('A' for Active; 'I' for Inactive)
REMARK    1  A    between atoms: C_1  and  C_2
REMARK    2  A    between atoms: C_7  and  C_8
REMARK    3  A    between atoms: N_12  and  C_13
REMARK    4  A    between atoms: C_31  and  C_32
REMARK                            x       y       z     vdW  Elec       q    Type
REMARK                         _______ _______ _______ _____ _____    ______ ____
ROOT
ATOM      1  C   UNL     1       7.292  14.581  17.788  0.00  0.00    +0.000 C 
ATOM      2  C   UNL     1       8.262  14.019  18.548  0.00  0.00    +0.000 C 
ATOM      3  C   UNL     1       8.086  14.058  20.045  0.00  0.00    +0.000 C 
ATOM      4  O   UNL     1       7.029  14.100  20.647  0.00  0.00    +0.000 OA
ATOM      5  N   UNL     1       9.359  13.964  20.587  0.00  0.00    +0.000 N 
ATOM      6  C   UNL     1      10.236  13.443  19.631  0.00  0.00    +0.000 A 
ATOM      7  C   UNL     1      11.487  12.930  19.959  0.00  0.00    +0.000 A 
ATOM      8  C   UNL     1      12.279  12.442  18.940  0.00  0.00    +0.000 A 
ATOM      9  C   UNL     1      11.803  12.539  17.623  0.00  0.00    +0.000 A 
ATOM     10  C   UNL     1      10.506  13.058  17.307  0.00  0.00    +0.000 A 
ATOM     11  C   UNL     1       9.663  13.467  18.333  0.00  0.00    +0.000 A 
ENDROOT
BRANCH   1  18
ATOM     12  C   UNL     1      -0.203  17.230  19.911  0.00  0.00    +0.000 C 
ATOM     13  C   UNL     1       1.100  16.587  19.484  0.00  0.00    +0.000 A 
ATOM     14  C   UNL     1       1.076  15.309  18.929  0.00  0.00    +0.000 A 
ATOM     15  C   UNL     1       2.265  14.703  18.508  0.00  0.00    +0.000 A 
ATOM     16  C   UNL     1       3.518  15.338  18.609  0.00  0.00    +0.000 A 
ATOM     17  C   UNL     1       4.722  14.694  18.148  0.00  0.00    +0.000 A 
ATOM     18  C   UNL     1       5.994  15.274  18.259  0.00  0.00    +0.000 A 
ATOM     19  C   UNL     1       5.934  16.546  18.837  0.00  0.00    +0.000 A 
ATOM     20 CL   UNL     1       7.360  17.478  19.113  0.00  0.00    +0.000 Cl
ATOM     21  N   UNL     1       4.806  17.210  19.281  0.00  0.00    +0.000 NA
ATOM     22  C   UNL     1       3.577  16.635  19.182  0.00  0.00    +0.000 A 
ATOM     23  C   UNL     1       2.358  17.243  19.614  0.00  0.00    +0.000 A 
ATOM     24  C   UNL     1       2.358  18.630  20.222  0.00  0.00    +0.000 C 
ENDBRANCH   1  18
BRANCH   5  25
ATOM     25  C   UNL     1       9.806  15.118  21.312  0.00  0.00    +0.000 A 
ATOM     26  C   UNL     1       9.565  15.148  22.695  0.00  0.00    +0.000 A 
ATOM     27 CL   UNL     1       8.812  13.831  23.531  0.00  0.00    +0.000 Cl
ATOM     28  C   UNL     1       9.970  16.238  23.468  0.00  0.00    +0.000 A 
ATOM     29  C   UNL     1      10.619  17.320  22.882  0.00  0.00    +0.000 A 
ATOM     30  C   UNL     1      10.839  17.332  21.511  0.00  0.00    +0.000 A 
ATOM     31  C   UNL     1      10.422  16.257  20.721  0.00  0.00    +0.000 A 
ATOM     32 CL   UNL     1      10.638  16.518  19.017  0.00  0.00    +0.000 Cl
ENDBRANCH   5  25
TORSDOF 2
ENDMDL
MODEL 7
REMARK VINA RESULT:      -6.6      5.560      9.046
REMARK  Name = 
REMARK  4 active torsions:
REMARK  status: ('A' for Active; 'I' for Inactive)
REMARK    1  A    between atoms: C_1  and  C_2
REMARK    2  A    between atoms: C_7  and  C_8
REMARK    3  A    between atoms: N_12  and  C_13
REMARK    4  A    between atoms: C_31  and  C_32
REMARK                            x       y       z     vdW  Elec       q    Type
REMARK                         _______ _______ _______ _____ _____    ______ ____
ROOT
ATOM      1  C   UNL     1       4.694  16.584  18.102  0.00  0.00    +0.000 C 
ATOM      2  C   UNL     1       3.461  16.539  18.660  0.00  0.00    +0.000 C 
ATOM      3  C   UNL     1       3.283  15.686  19.891  0.00  0.00    +0.000 C 
ATOM      4  O   UNL     1       4.142  15.408  20.706  0.00  0.00    +0.000 OA
ATOM      5  N   UNL     1       1.938  15.350  19.938  0.00  0.00    +0.000 N 
ATOM      6  C   UNL     1       1.208  16.238  19.141  0.00  0.00    +0.000 A 
ATOM      7  C   UNL     1      -0.175  16.369  19.236  0.00  0.00    +0.000 A 
ATOM      8  C   UNL     1      -0.801  17.271  18.402  0.00  0.00    +0.000 A 
ATOM      9  C   UNL     1      -0.020  17.968  17.467  0.00  0.00    +0.000 A 
ATOM     10  C   UNL     1       1.403  17.829  17.395  0.00  0.00    +0.000 A 
ATOM     11  C   UNL     1       2.057  16.992  18.292  0.00  0.00    +0.000 A 
ENDROOT
BRANCH   1  18
ATOM     12  C   UNL     1      11.295  11.925  19.662  0.00  0.00    +0.000 C 
ATOM     13  C   UNL     1      10.055  12.682  19.233  0.00  0.00    +0.000 A 
ATOM     14  C   UNL     1       9.307  12.202  18.159  0.00  0.00    +0.000 A 
ATOM     15  C   UNL     1       8.145  12.872  17.757  0.00  0.00    +0.000 A 
ATOM     16  C   UNL     1       7.676  14.032  18.403  0.00  0.00    +0.000 A 
ATOM     17  C   UNL     1       6.466  14.688  17.977  0.00  0.00    +0.000 A 
ATOM     18  C   UNL     1       5.979  15.863  18.568  0.00  0.00    +0.000 A 
ATOM     19  C   UNL     1       6.792  16.285  19.624  0.00  0.00    +0.000 A 
ATOM     20 CL   UNL     1       6.438  17.720  20.515  0.00  0.00    +0.000 Cl
ATOM     21  N   UNL     1       7.951  15.685  20.079  0.00  0.00    +0.000 NA
ATOM     22  C   UNL     1       8.424  14.553  19.491  0.00  0.00    +0.000 A 
ATOM     23  C   UNL     1       9.611  13.865  19.891  0.00  0.00    +0.000 A 
ATOM     24  C   UNL     1      10.443  14.367  21.052  0.00  0.00    +0.000 C 
ENDBRANCH   1  18
BRANCH   5  25
ATOM     25  C   UNL     1       1.647  13.954  19.783  0.00  0.00    +0.000 A 
ATOM     26  C   UNL     1       0.934  13.323  20.815  0.00  0.00    +0.000 A 
ATOM     27 CL   UNL     1       0.365  14.184  22.206  0.00  0.00    +0.000 Cl
ATOM     28  C   UNL     1       0.615  11.966  20.736  0.00  0.00    +0.000 A 
ATOM     29  C   UNL     1       0.998  11.210  19.633  0.00  0.00    +0.000 A 
ATOM     30  C   UNL     1       1.734  11.801  18.615  0.00  0.00    +0.000 A 
ATOM     31  C   UNL     1       2.078  13.153  18.688  0.00  0.00    +0.000 A 
ATOM     32 CL   UNL     1       3.130  13.676  17.408  0.00  0.00    +0.000 Cl
ENDBRANCH   5  25
TORSDOF 2
ENDMDL
MODEL 8
REMARK VINA RESULT:      -6.4      4.403      6.514
REMARK  Name = 
REMARK  4 active torsions:
REMARK  status: ('A' for Active; 'I' for Inactive)
REMARK    1  A    between atoms: C_1  and  C_2
REMARK    2  A    between atoms: C_7  and  C_8
REMARK    3  A    between atoms: N_12  and  C_13
REMARK    4  A    between atoms: C_31  and  C_32
REMARK                            x       y       z     vdW  Elec       q    Type
REMARK                         _______ _______ _______ _____ _____    ______ ____
ROOT
ATOM      1  C   UNL     1       0.116  13.881  17.992  0.00  0.00    +0.000 C 
ATOM      2  C   UNL     1      -0.773  12.948  18.408  0.00  0.00    +0.000 C 
ATOM      3  C   UNL     1      -0.873  12.691  19.891  0.00  0.00    +0.000 C 
ATOM      4  O   UNL     1      -0.625  13.485  20.779  0.00  0.00    +0.000 OA
ATOM      5  N   UNL     1      -1.368  11.404  20.029  0.00  0.00    +0.000 N 
ATOM      6  C   UNL     1      -1.982  11.010  18.835  0.00  0.00    +0.000 A 
ATOM      7  C   UNL     1      -2.846   9.922  18.759  0.00  0.00    +0.000 A 
ATOM      8  C   UNL     1      -3.397   9.614  17.532  0.00  0.00    +0.000 A 
ATOM      9  C   UNL     1      -3.016  10.381  16.419  0.00  0.00    +0.000 A 
ATOM     10  C   UNL     1      -2.136  11.505  16.522  0.00  0.00    +0.000 A 
ATOM     11  C   UNL     1      -1.647  11.881  17.768  0.00  0.00    +0.000 A 
ENDROOT
BRANCH   1  18
ATOM     12  C   UNL     1       5.922  17.459  22.597  0.00  0.00    +0.000 C 
ATOM     13  C   UNL     1       4.964  16.664  21.734  0.00  0.00    +0.000 A 
ATOM     14  C   UNL     1       5.286  15.351  21.397  0.00  0.00    +0.000 A 
ATOM     15  C   UNL     1       4.407  14.589  20.618  0.00  0.00    +0.000 A 
ATOM     16  C   UNL     1       3.177  15.091  20.151  0.00  0.00    +0.000 A 
ATOM     17  C   UNL     1       2.286  14.276  19.367  0.00  0.00    +0.000 A 
ATOM     18  C   UNL     1       1.067  14.743  18.853  0.00  0.00    +0.000 A 
ATOM     19  C   UNL     1       0.826  16.070  19.223  0.00  0.00    +0.000 A 
ATOM     20 CL   UNL     1      -0.594  16.904  18.707  0.00  0.00    +0.000 Cl
ATOM     21  N   UNL     1       1.640  16.887  19.984  0.00  0.00    +0.000 NA
ATOM     22  C   UNL     1       2.827  16.430  20.466  0.00  0.00    +0.000 A 
ATOM     23  C   UNL     1       3.733  17.202  21.258  0.00  0.00    +0.000 A 
ATOM     24  C   UNL     1       3.408  18.631  21.635  0.00  0.00    +0.000 C 
ENDBRANCH   1  18
BRANCH   5  25
ATOM     25  C   UNL     1      -0.473  10.461  20.636  0.00  0.00    +0.000 A 
ATOM     26  C   UNL     1      -0.517  10.333  22.033  0.00  0.00    +0.000 A 
ATOM     27 CL   UNL     1      -1.638  11.223  23.008  0.00  0.00    +0.000 Cl
ATOM     28  C   UNL     1       0.325   9.438  22.695  0.00  0.00    +0.000 A 
ATOM     29  C   UNL     1       1.227   8.654  21.983  0.00  0.00    +0.000 A 
ATOM     30  C   UNL     1       1.316   8.786  20.604  0.00  0.00    +0.000 A 
ATOM     31  C   UNL     1       0.494   9.691  19.929  0.00  0.00    +0.000 A 
ATOM     32 CL   UNL     1       0.855   9.833  18.235  0.00  0.00    +0.000 Cl
ENDBRANCH   5  25
TORSDOF 2
ENDMDL
MODEL 9
REMARK VINA RESULT:      -6.4      6.035     12.290
REMARK  Name = 
REMARK  4 active torsions:
REMARK  status: ('A' for Active; 'I' for Inactive)
REMARK    1  A    between atoms: C_1  and  C_2
REMARK    2  A    between atoms: C_7  and  C_8
REMARK    3  A    between atoms: N_12  and  C_13
REMARK    4  A    between atoms: C_31  and  C_32
REMARK                            x       y       z     vdW  Elec       q    Type
REMARK                         _______ _______ _______ _____ _____    ______ ____
ROOT
ATOM      1  C   UNL     1       5.486  16.858  18.889  0.00  0.00    +0.000 C 
ATOM      2  C   UNL     1       6.750  16.501  18.557  0.00  0.00    +0.000 C 
ATOM      3  C   UNL     1       6.997  15.055  18.207  0.00  0.00    +0.000 C 
ATOM      4  O   UNL     1       6.186  14.276  17.742  0.00  0.00    +0.000 OA
ATOM      5  N   UNL     1       8.341  14.820  18.455  0.00  0.00    +0.000 N 
ATOM      6  C   UNL     1       9.027  16.039  18.499  0.00  0.00    +0.000 A 
ATOM      7  C   UNL     1      10.412  16.125  18.404  0.00  0.00    +0.000 A 
ATOM      8  C   UNL     1      10.992  17.375  18.461  0.00  0.00    +0.000 A 
ATOM      9  C   UNL     1      10.159  18.487  18.665  0.00  0.00    +0.000 A 
ATOM     10  C   UNL     1       8.734  18.378  18.745  0.00  0.00    +0.000 A 
ATOM     11  C   UNL     1       8.132  17.135  18.597  0.00  0.00    +0.000 A 
ENDROOT
BRANCH   1  18
ATOM     12  C   UNL     1      -0.707  11.632  20.316  0.00  0.00    +0.000 C 
ATOM     13  C   UNL     1       0.495  12.547  20.212  0.00  0.00    +0.000 A 
ATOM     14  C   UNL     1       1.482  12.484  21.194  0.00  0.00    +0.000 A 
ATOM     15  C   UNL     1       2.613  13.304  21.107  0.00  0.00    +0.000 A 
ATOM     16  C   UNL     1       2.816  14.208  20.047  0.00  0.00    +0.000 A 
ATOM     17  C   UNL     1       4.000  15.025  19.977  0.00  0.00    +0.000 A 
ATOM     18  C   UNL     1       4.229  15.962  18.958  0.00  0.00    +0.000 A 
ATOM     19  C   UNL     1       3.189  15.974  18.024  0.00  0.00    +0.000 A 
ATOM     20 CL   UNL     1       3.202  17.051  16.676  0.00  0.00    +0.000 Cl
ATOM     21  N   UNL     1       2.042  15.202  18.039  0.00  0.00    +0.000 NA
ATOM     22  C   UNL     1       1.822  14.305  19.039  0.00  0.00    +0.000 A 
ATOM     23  C   UNL     1       0.668  13.467  19.138  0.00  0.00    +0.000 A 
ATOM     24  C   UNL     1      -0.418  13.519  18.086  0.00  0.00    +0.000 C 
ENDBRANCH   1  18
BRANCH   5  25
ATOM     25  C   UNL     1       8.619  13.886  19.508  0.00  0.00    +0.000 A 
ATOM     26  C   UNL     1       9.185  12.653  19.146  0.00  0.00    +0.000 A 
ATOM     27 CL   UNL     1       9.596  12.269  17.508  0.00  0.00    +0.000 Cl
ATOM     28  C   UNL     1       9.482  11.692  20.114  0.00  0.00    +0.000 A 
ATOM     29  C   UNL     1       9.222  11.936  21.459  0.00  0.00    +0.000 A 
ATOM     30  C   UNL     1       8.630  13.133  21.840  0.00  0.00    +0.000 A 
ATOM     31  C   UNL     1       8.309  14.096  20.881  0.00  0.00    +0.000 A 
ATOM     32 CL   UNL     1       7.435  15.455  21.522  0.00  0.00    +0.000 Cl
ENDBRANCH   5  25
TORSDOF 2
ENDMDL
