MODEL 1
REMARK VINA RESULT:      -8.2      0.000      0.000
REMARK  Name = 
REMARK  7 active torsions:
REMARK  status: ('A' for Active; 'I' for Inactive)
REMARK    1  A    between atoms: C_9  and  O_10
REMARK    2  A    between atoms: N_13  and  C_14
REMARK    3  A    between atoms: C_14  and  C_15
REMARK    4  A    between atoms: C_15  and  C_16
REMARK    5  A    between atoms: C_16  and  C_17
REMARK    6  A    between atoms: C_17  and  N_18
REMARK    7  A    between atoms: C_25  and  O_26
REMARK                            x       y       z     vdW  Elec       q    Type
REMARK                         _______ _______ _______ _____ _____    ______ ____
ROOT
ATOM      1  C   UNL     1       8.735  10.037  18.120  0.00  0.00    +0.000 C 
ENDROOT
BRANCH   1   2
ATOM      2  C   UNL     1       9.382  10.670  19.363  0.00  0.00    +0.000 C 
BRANCH   2  14
ATOM      3  O   UNL     1      11.983  11.272  18.564  0.00  0.00    +0.000 OA
ATOM      4  C   UNL     1      11.096  12.113  18.436  0.00  0.00    +0.000 C 
ATOM      5  C   UNL     1      11.281  13.311  17.541  0.00  0.00    +0.000 C 
ATOM      6  C   UNL     1      10.644  14.599  18.076  0.00  0.00    +0.000 C 
ATOM      7  C   UNL     1      10.627  15.653  16.937  0.00  0.00    +0.000 C 
ATOM      8  C   UNL     1      11.355  16.872  17.476  0.00  0.00    +0.000 C 
ATOM      9  C   UNL     1      12.333  16.300  18.482  0.00  0.00    +0.000 C 
ATOM     10  C   UNL     1      11.521  15.225  19.188  0.00  0.00    +0.000 C 
ATOM     11  C   UNL     1       9.214  14.305  18.548  0.00  0.00    +0.000 C 
ATOM     12  C   UNL     1       9.174  13.101  19.492  0.00  0.00    +0.000 C 
ATOM     13  O   UNL     1       8.594  13.143  20.574  0.00  0.00    +0.000 OA
ATOM     14  N   UNL     1       9.834  11.994  18.987  0.00  0.00    +0.000 N 
BRANCH  11  15
ATOM     15  O   UNL     1       8.601  15.472  19.083  0.00  0.00    +0.000 OA
ATOM     16  H   UNL     1       8.533  16.119  18.355  0.00  0.00    +0.000 HD
ENDBRANCH  11  15
ENDBRANCH   2  14
ENDBRANCH   1   2
BRANCH   1  17
ATOM     17  C   UNL     1       8.565   8.525  18.229  0.00  0.00    +0.000 C 
BRANCH  17  18
ATOM     18  C   UNL     1       7.343   7.994  17.471  0.00  0.00    +0.000 C 
BRANCH  18  19
ATOM     19  N   UNL     1       7.465   6.578  17.085  0.00  0.00    +0.000 NA
ATOM     20  C   UNL     1       7.409   5.661  18.251  0.00  0.00    +0.000 C 
ATOM     21  C   UNL     1       6.067   5.696  19.008  0.00  0.00    +0.000 C 
ATOM     22  N   UNL     1       4.973   5.411  18.083  0.00  0.00    +0.000 N 
ATOM     23  C   UNL     1       4.154   4.340  18.325  0.00  0.00    +0.000 A 
ATOM     24  N   UNL     1       4.291   3.688  19.497  0.00  0.00    +0.000 NA
ATOM     25  C   UNL     1       3.490   2.639  19.739  0.00  0.00    +0.000 A 
ATOM     26  C   UNL     1       2.541   2.197  18.858  0.00  0.00    +0.000 A 
ATOM     27  C   UNL     1       2.459   2.914  17.692  0.00  0.00    +0.000 A 
ATOM     28  N   UNL     1       3.245   3.976  17.407  0.00  0.00    +0.000 NA
ATOM     29  C   UNL     1       4.949   6.128  16.810  0.00  0.00    +0.000 C 
ATOM     30  C   UNL     1       6.360   6.187  16.167  0.00  0.00    +0.000 C 
BRANCH  26  31
ATOM     31  O   UNL     1       1.733   1.133  19.083  0.00  0.00    +0.000 OA
ATOM     32  H   UNL     1       0.851   1.319  18.711  0.00  0.00    +0.000 HD
ENDBRANCH  26  31
ENDBRANCH  18  19
ENDBRANCH  17  18
ENDBRANCH   1  17
TORSDOF 7
ENDMDL
MODEL 2
REMARK VINA RESULT:      -8.1      1.581      2.110
REMARK  Name = 
REMARK  7 active torsions:
REMARK  status: ('A' for Active; 'I' for Inactive)
REMARK    1  A    between atoms: C_9  and  O_10
REMARK    2  A    between atoms: N_13  and  C_14
REMARK    3  A    between atoms: C_14  and  C_15
REMARK    4  A    between atoms: C_15  and  C_16
REMARK    5  A    between atoms: C_16  and  C_17
REMARK    6  A    between atoms: C_17  and  N_18
REMARK    7  A    between atoms: C_25  and  O_26
REMARK                            x       y       z     vdW  Elec       q    Type
REMARK                         _______ _______ _______ _____ _____    ______ ____
ROOT
ATOM      1  C   UNL     1       8.528   9.711  18.581  0.00  0.00    +0.000 C 
ENDROOT
BRANCH   1   2
ATOM      2  C   UNL     1       9.600  10.650  18.003  0.00  0.00    +0.000 C 
BRANCH   2  14
ATOM      3  O   UNL     1       9.664  11.311  20.710  0.00  0.00    +0.000 OA
ATOM      4  C   UNL     1       9.585  12.202  19.867  0.00  0.00    +0.000 C 
ATOM      5  C   UNL     1       9.883  13.637  20.219  0.00  0.00    +0.000 C 
ATOM      6  C   UNL     1       8.986  14.656  19.507  0.00  0.00    +0.000 C 
ATOM      7  C   UNL     1       9.595  16.071  19.701  0.00  0.00    +0.000 C 
ATOM      8  C   UNL     1       8.504  16.919  20.333  0.00  0.00    +0.000 C 
ATOM      9  C   UNL     1       7.669  15.922  21.111  0.00  0.00    +0.000 C 
ATOM     10  C   UNL     1       7.592  14.724  20.177  0.00  0.00    +0.000 C 
ATOM     11  C   UNL     1       8.906  14.315  18.013  0.00  0.00    +0.000 C 
ATOM     12  C   UNL     1       8.544  12.844  17.796  0.00  0.00    +0.000 C 
ATOM     13  O   UNL     1       7.643  12.503  17.033  0.00  0.00    +0.000 OA
ATOM     14  N   UNL     1       9.338  11.977  18.526  0.00  0.00    +0.000 N 
BRANCH  11  15
ATOM     15  O   UNL     1       8.055  15.222  17.325  0.00  0.00    +0.000 OA
ATOM     16  H   UNL     1       8.631  15.868  16.871  0.00  0.00    +0.000 HD
ENDBRANCH  11  15
ENDBRANCH   2  14
ENDBRANCH   1   2
BRANCH   1  17
ATOM     17  C   UNL     1       8.008   8.693  17.572  0.00  0.00    +0.000 C 
BRANCH  17  18
ATOM     18  C   UNL     1       7.905   7.272  18.138  0.00  0.00    +0.000 C 
BRANCH  18  19
ATOM     19  N   UNL     1       7.446   6.281  17.150  0.00  0.00    +0.000 NA
ATOM     20  C   UNL     1       7.362   4.910  17.713  0.00  0.00    +0.000 C 
ATOM     21  C   UNL     1       6.332   4.765  18.849  0.00  0.00    +0.000 C 
ATOM     22  N   UNL     1       5.019   5.204  18.383  0.00  0.00    +0.000 N 
ATOM     23  C   UNL     1       3.969   4.325  18.413  0.00  0.00    +0.000 A 
ATOM     24  N   UNL     1       4.152   3.138  19.025  0.00  0.00    +0.000 NA
ATOM     25  C   UNL     1       3.126   2.275  19.059  0.00  0.00    +0.000 A 
ATOM     26  C   UNL     1       1.903   2.536  18.503  0.00  0.00    +0.000 A 
ATOM     27  C   UNL     1       1.793   3.765  17.904  0.00  0.00    +0.000 A 
ATOM     28  N   UNL     1       2.801   4.664  17.847  0.00  0.00    +0.000 NA
ATOM     29  C   UNL     1       4.937   6.480  17.674  0.00  0.00    +0.000 C 
ATOM     30  C   UNL     1       6.090   6.632  16.646  0.00  0.00    +0.000 C 
BRANCH  26  31
ATOM     31  O   UNL     1       0.861   1.670  18.520  0.00  0.00    +0.000 OA
ATOM     32  H   UNL     1       1.112   0.862  18.036  0.00  0.00    +0.000 HD
ENDBRANCH  26  31
ENDBRANCH  18  19
ENDBRANCH  17  18
ENDBRANCH   1  17
TORSDOF 7
ENDMDL
MODEL 3
REMARK VINA RESULT:      -8.1      7.072     10.784
REMARK  Name = 
REMARK  7 active torsions:
REMARK  status: ('A' for Active; 'I' for Inactive)
REMARK    1  A    between atoms: C_9  and  O_10
REMARK    2  A    between atoms: N_13  and  C_14
REMARK    3  A    between atoms: C_14  and  C_15
REMARK    4  A    between atoms: C_15  and  C_16
REMARK    5  A    between atoms: C_16  and  C_17
REMARK    6  A    between atoms: C_17  and  N_18
REMARK    7  A    between atoms: C_25  and  O_26
REMARK                            x       y       z     vdW  Elec       q    Type
REMARK                         _______ _______ _______ _____ _____    ______ ____
ROOT
ATOM      1  C   UNL     1       2.169   4.896  20.961  0.00  0.00    +0.000 C 
ENDROOT
BRANCH   1   2
ATOM      2  C   UNL     1       2.265   3.659  20.053  0.00  0.00    +0.000 C 
BRANCH   2  14
ATOM      3  O   UNL     1       1.638   3.912  17.348  0.00  0.00    +0.000 OA
ATOM      4  C   UNL     1       2.753   4.238  17.748  0.00  0.00    +0.000 C 
ATOM      5  C   UNL     1       3.662   5.099  16.909  0.00  0.00    +0.000 C 
ATOM      6  C   UNL     1       5.147   4.733  17.015  0.00  0.00    +0.000 C 
ATOM      7  C   UNL     1       5.984   5.871  16.372  0.00  0.00    +0.000 C 
ATOM      8  C   UNL     1       6.838   5.218  15.300  0.00  0.00    +0.000 C 
ATOM      9  C   UNL     1       6.021   4.019  14.861  0.00  0.00    +0.000 C 
ATOM     10  C   UNL     1       5.465   3.476  16.169  0.00  0.00    +0.000 C 
ATOM     11  C   UNL     1       5.529   4.563  18.491  0.00  0.00    +0.000 C 
ATOM     12  C   UNL     1       4.560   3.624  19.213  0.00  0.00    +0.000 C 
ATOM     13  O   UNL     1       4.955   2.687  19.902  0.00  0.00    +0.000 OA
ATOM     14  N   UNL     1       3.232   3.960  19.015  0.00  0.00    +0.000 N 
BRANCH  11  15
ATOM     15  O   UNL     1       6.895   4.191  18.627  0.00  0.00    +0.000 OA
ATOM     16  H   UNL     1       7.129   4.298  19.569  0.00  0.00    +0.000 HD
ENDBRANCH  11  15
ENDBRANCH   2  14
ENDBRANCH   1   2
BRANCH   1  17
ATOM     17  C   UNL     1       1.897   6.188  20.198  0.00  0.00    +0.000 C 
BRANCH  17  18
ATOM     18  C   UNL     1       1.081   7.208  20.999  0.00  0.00    +0.000 C 
BRANCH  18  19
ATOM     19  N   UNL     1       1.686   8.551  21.024  0.00  0.00    +0.000 NA
ATOM     20  C   UNL     1       1.044   9.484  20.064  0.00  0.00    +0.000 C 
ATOM     21  C   UNL     1      -0.439   9.770  20.369  0.00  0.00    +0.000 C 
ATOM     22  N   UNL     1      -0.572  10.273  21.734  0.00  0.00    +0.000 N 
ATOM     23  C   UNL     1      -1.131  11.506  21.941  0.00  0.00    +0.000 A 
ATOM     24  N   UNL     1      -1.685  12.138  20.887  0.00  0.00    +0.000 NA
ATOM     25  C   UNL     1      -2.235  13.345  21.086  0.00  0.00    +0.000 A 
ATOM     26  C   UNL     1      -2.262  13.969  22.303  0.00  0.00    +0.000 A 
ATOM     27  C   UNL     1      -1.684  13.262  23.326  0.00  0.00    +0.000 A 
ATOM     28  N   UNL     1      -1.120  12.044  23.171  0.00  0.00    +0.000 NA
ATOM     29  C   UNL     1       0.119   9.550  22.800  0.00  0.00    +0.000 C 
ATOM     30  C   UNL     1       1.560   9.159  22.376  0.00  0.00    +0.000 C 
BRANCH  26  31
ATOM     31  O   UNL     1      -2.804  15.192  22.517  0.00  0.00    +0.000 OA
ATOM     32  H   UNL     1      -2.087  15.844  22.617  0.00  0.00    +0.000 HD
ENDBRANCH  26  31
ENDBRANCH  18  19
ENDBRANCH  17  18
ENDBRANCH   1  17
TORSDOF 7
ENDMDL
MODEL 4
REMARK VINA RESULT:      -8.0      2.738     11.341
REMARK  Name = 
REMARK  7 active torsions:
REMARK  status: ('A' for Active; 'I' for Inactive)
REMARK    1  A    between atoms: C_9  and  O_10
REMARK    2  A    between atoms: N_13  and  C_14
REMARK    3  A    between atoms: C_14  and  C_15
REMARK    4  A    between atoms: C_15  and  C_16
REMARK    5  A    between atoms: C_16  and  C_17
REMARK    6  A    between atoms: C_17  and  N_18
REMARK    7  A    between atoms: C_25  and  O_26
REMARK                            x       y       z     vdW  Elec       q    Type
REMARK                         _______ _______ _______ _____ _____    ______ ____
ROOT
ATOM      1  C   UNL     1       7.585   8.543  17.778  0.00  0.00    +0.000 C 
ENDROOT
BRANCH   1   2
ATOM      2  C   UNL     1       7.618   7.145  17.137  0.00  0.00    +0.000 C 
BRANCH   2  14
ATOM      3  O   UNL     1       7.750   4.652  18.378  0.00  0.00    +0.000 OA
ATOM      4  C   UNL     1       6.695   5.283  18.388  0.00  0.00    +0.000 C 
ATOM      5  C   UNL     1       5.585   4.930  19.344  0.00  0.00    +0.000 C 
ATOM      6  C   UNL     1       4.177   5.089  18.756  0.00  0.00    +0.000 C 
ATOM      7  C   UNL     1       3.146   5.008  19.914  0.00  0.00    +0.000 C 
ATOM      8  C   UNL     1       2.183   3.893  19.548  0.00  0.00    +0.000 C 
ATOM      9  C   UNL     1       3.015   2.954  18.698  0.00  0.00    +0.000 C 
ATOM     10  C   UNL     1       3.831   3.898  17.829  0.00  0.00    +0.000 C 
ATOM     11  C   UNL     1       4.069   6.443  18.043  0.00  0.00    +0.000 C 
ATOM     12  C   UNL     1       5.226   6.651  17.064  0.00  0.00    +0.000 C 
ATOM     13  O   UNL     1       5.037   7.005  15.902  0.00  0.00    +0.000 OA
ATOM     14  N   UNL     1       6.466   6.417  17.631  0.00  0.00    +0.000 N 
BRANCH  11  15
ATOM     15  O   UNL     1       2.784   6.612  17.457  0.00  0.00    +0.000 OA
ATOM     16  H   UNL     1       2.865   7.321  16.790  0.00  0.00    +0.000 HD
ENDBRANCH  11  15
ENDBRANCH   2  14
ENDBRANCH   1   2
BRANCH   1  17
ATOM     17  C   UNL     1       8.855   8.886  18.547  0.00  0.00    +0.000 C 
BRANCH  17  18
ATOM     18  C   UNL     1       8.891  10.334  19.048  0.00  0.00    +0.000 C 
BRANCH  18  19
ATOM     19  N   UNL     1      10.256  10.851  19.245  0.00  0.00    +0.000 NA
ATOM     20  C   UNL     1      10.827  11.443  18.009  0.00  0.00    +0.000 C 
ATOM     21  C   UNL     1      10.062  12.679  17.499  0.00  0.00    +0.000 C 
ATOM     22  N   UNL     1       9.989  13.684  18.557  0.00  0.00    +0.000 N 
ATOM     23  C   UNL     1      10.519  14.927  18.337  0.00  0.00    +0.000 A 
ATOM     24  N   UNL     1      10.943  15.226  17.093  0.00  0.00    +0.000 NA
ATOM     25  C   UNL     1      11.462  16.444  16.873  0.00  0.00    +0.000 A 
ATOM     26  C   UNL     1      11.583  17.398  17.845  0.00  0.00    +0.000 A 
ATOM     27  C   UNL     1      11.125  17.021  19.082  0.00  0.00    +0.000 A 
ATOM     28  N   UNL     1      10.596  15.806  19.348  0.00  0.00    +0.000 NA
ATOM     29  C   UNL     1       9.576  13.245  19.889  0.00  0.00    +0.000 C 
ATOM     30  C   UNL     1      10.269  11.915  20.287  0.00  0.00    +0.000 C 
BRANCH  26  31
ATOM     31  O   UNL     1      12.115  18.627  17.641  0.00  0.00    +0.000 OA
ATOM     32  H   UNL     1      11.457  19.303  17.887  0.00  0.00    +0.000 HD
ENDBRANCH  26  31
ENDBRANCH  18  19
ENDBRANCH  17  18
ENDBRANCH   1  17
TORSDOF 7
ENDMDL
MODEL 5
REMARK VINA RESULT:      -8.0      6.802      8.412
REMARK  Name = 
REMARK  7 active torsions:
REMARK  status: ('A' for Active; 'I' for Inactive)
REMARK    1  A    between atoms: C_9  and  O_10
REMARK    2  A    between atoms: N_13  and  C_14
REMARK    3  A    between atoms: C_14  and  C_15
REMARK    4  A    between atoms: C_15  and  C_16
REMARK    5  A    between atoms: C_16  and  C_17
REMARK    6  A    between atoms: C_17  and  N_18
REMARK    7  A    between atoms: C_25  and  O_26
REMARK                            x       y       z     vdW  Elec       q    Type
REMARK                         _______ _______ _______ _____ _____    ______ ____
ROOT
ATOM      1  C   UNL     1       1.217   5.726  20.636  0.00  0.00    +0.000 C 
ENDROOT
BRANCH   1   2
ATOM      2  C   UNL     1       2.335   6.654  20.132  0.00  0.00    +0.000 C 
BRANCH   2  14
ATOM      3  O   UNL     1       3.009   8.183  17.900  0.00  0.00    +0.000 OA
ATOM      4  C   UNL     1       2.021   8.481  18.568  0.00  0.00    +0.000 C 
ATOM      5  C   UNL     1       0.965   9.410  18.025  0.00  0.00    +0.000 C 
ATOM      6  C   UNL     1       0.358  10.350  19.074  0.00  0.00    +0.000 C 
ATOM      7  C   UNL     1      -0.911  11.010  18.471  0.00  0.00    +0.000 C 
ATOM      8  C   UNL     1      -0.701  12.511  18.576  0.00  0.00    +0.000 C 
ATOM      9  C   UNL     1       0.805  12.674  18.518  0.00  0.00    +0.000 C 
ATOM     10  C   UNL     1       1.317  11.528  19.376  0.00  0.00    +0.000 C 
ATOM     11  C   UNL     1      -0.008   9.550  20.330  0.00  0.00    +0.000 C 
ATOM     12  C   UNL     1       1.167   8.692  20.806  0.00  0.00    +0.000 C 
ATOM     13  O   UNL     1       1.543   8.698  21.976  0.00  0.00    +0.000 OA
ATOM     14  N   UNL     1       1.722   7.925  19.798  0.00  0.00    +0.000 N 
BRANCH  11  15
ATOM     15  O   UNL     1      -0.545  10.396  21.339  0.00  0.00    +0.000 OA
ATOM     16  H   UNL     1      -0.958   9.817  22.009  0.00  0.00    +0.000 HD
ENDBRANCH  11  15
ENDBRANCH   2  14
ENDBRANCH   1   2
BRANCH   1  17
ATOM     17  C   UNL     1       1.162   4.391  19.901  0.00  0.00    +0.000 C 
BRANCH  17  18
ATOM     18  C   UNL     1       2.002   3.295  20.566  0.00  0.00    +0.000 C 
BRANCH  18  19
ATOM     19  N   UNL     1       2.670   2.404  19.603  0.00  0.00    +0.000 NA
ATOM     20  C   UNL     1       2.414   2.794  18.193  0.00  0.00    +0.000 C 
ATOM     21  C   UNL     1       2.970   4.182  17.820  0.00  0.00    +0.000 C 
ATOM     22  N   UNL     1       4.400   4.235  18.111  0.00  0.00    +0.000 N 
ATOM     23  C   UNL     1       5.280   4.507  17.098  0.00  0.00    +0.000 A 
ATOM     24  N   UNL     1       4.778   4.876  15.902  0.00  0.00    +0.000 NA
ATOM     25  C   UNL     1       5.636   5.145  14.907  0.00  0.00    +0.000 A 
ATOM     26  C   UNL     1       6.995   5.064  15.042  0.00  0.00    +0.000 A 
ATOM     27  C   UNL     1       7.429   4.688  16.287  0.00  0.00    +0.000 A 
ATOM     28  N   UNL     1       6.600   4.408  17.317  0.00  0.00    +0.000 NA
ATOM     29  C   UNL     1       4.851   3.753  19.415  0.00  0.00    +0.000 C 
ATOM     30  C   UNL     1       4.145   2.426  19.803  0.00  0.00    +0.000 C 
BRANCH  26  31
ATOM     31  O   UNL     1       7.873   5.322  14.043  0.00  0.00    +0.000 OA
ATOM     32  H   UNL     1       8.685   4.803  14.192  0.00  0.00    +0.000 HD
ENDBRANCH  26  31
ENDBRANCH  18  19
ENDBRANCH  17  18
ENDBRANCH   1  17
TORSDOF 7
ENDMDL
MODEL 6
REMARK VINA RESULT:      -7.9      1.515      2.091
REMARK  Name = 
REMARK  7 active torsions:
REMARK  status: ('A' for Active; 'I' for Inactive)
REMARK    1  A    between atoms: C_9  and  O_10
REMARK    2  A    between atoms: N_13  and  C_14
REMARK    3  A    between atoms: C_14  and  C_15
REMARK    4  A    between atoms: C_15  and  C_16
REMARK    5  A    between atoms: C_16  and  C_17
REMARK    6  A    between atoms: C_17  and  N_18
REMARK    7  A    between atoms: C_25  and  O_26
REMARK                            x       y       z     vdW  Elec       q    Type
REMARK                         _______ _______ _______ _____ _____    ______ ____
ROOT
ATOM      1  C   UNL     1       8.671   9.991  18.555  0.00  0.00    +0.000 C 
ENDROOT
BRANCH   1   2
ATOM      2  C   UNL     1       9.748  10.787  17.798  0.00  0.00    +0.000 C 
BRANCH   2  14
ATOM      3  O   UNL     1       7.787  12.563  16.920  0.00  0.00    +0.000 OA
ATOM      4  C   UNL     1       8.518  12.877  17.856  0.00  0.00    +0.000 C 
ATOM      5  C   UNL     1       8.165  14.020  18.772  0.00  0.00    +0.000 C 
ATOM      6  C   UNL     1       9.370  14.844  19.241  0.00  0.00    +0.000 C 
ATOM      7  C   UNL     1       8.916  15.764  20.406  0.00  0.00    +0.000 C 
ATOM      8  C   UNL     1       9.266  17.182  19.988  0.00  0.00    +0.000 C 
ATOM      9  C   UNL     1       9.198  17.145  18.474  0.00  0.00    +0.000 C 
ATOM     10  C   UNL     1       9.841  15.811  18.127  0.00  0.00    +0.000 C 
ATOM     11  C   UNL     1      10.484  13.901  19.714  0.00  0.00    +0.000 C 
ATOM     12  C   UNL     1      10.781  12.823  18.670  0.00  0.00    +0.000 C 
ATOM     13  O   UNL     1      11.926  12.579  18.295  0.00  0.00    +0.000 OA
ATOM     14  N   UNL     1       9.645  12.168  18.228  0.00  0.00    +0.000 N 
BRANCH  11  15
ATOM     15  O   UNL     1      11.632  14.631  20.126  0.00  0.00    +0.000 OA
ATOM     16  H   UNL     1      12.415  14.122  19.837  0.00  0.00    +0.000 HD
ENDBRANCH  11  15
ENDBRANCH   2  14
ENDBRANCH   1   2
BRANCH   1  17
ATOM     17  C   UNL     1       7.999   8.920  17.703  0.00  0.00    +0.000 C 
BRANCH  17  18
ATOM     18  C   UNL     1       8.019   7.529  18.346  0.00  0.00    +0.000 C 
BRANCH  18  19
ATOM     19  N   UNL     1       7.683   6.446  17.406  0.00  0.00    +0.000 NA
ATOM     20  C   UNL     1       7.589   5.122  18.072  0.00  0.00    +0.000 C 
ATOM     21  C   UNL     1       6.463   5.029  19.119  0.00  0.00    +0.000 C 
ATOM     22  N   UNL     1       5.187   5.380  18.502  0.00  0.00    +0.000 N 
ATOM     23  C   UNL     1       4.166   4.468  18.512  0.00  0.00    +0.000 A 
ATOM     24  N   UNL     1       4.327   3.342  19.234  0.00  0.00    +0.000 NA
ATOM     25  C   UNL     1       3.328   2.445  19.247  0.00  0.00    +0.000 A 
ATOM     26  C   UNL     1       2.155   2.616  18.565  0.00  0.00    +0.000 A 
ATOM     27  C   UNL     1       2.064   3.787  17.859  0.00  0.00    +0.000 A 
ATOM     28  N   UNL     1       3.044   4.717  17.818  0.00  0.00    +0.000 NA
ATOM     29  C   UNL     1       5.132   6.592  17.686  0.00  0.00    +0.000 C 
ATOM     30  C   UNL     1       6.370   6.704  16.756  0.00  0.00    +0.000 C 
BRANCH  26  31
ATOM     31  O   UNL     1       1.142   1.715  18.560  0.00  0.00    +0.000 OA
ATOM     32  H   UNL     1       0.642   1.795  19.392  0.00  0.00    +0.000 HD
ENDBRANCH  26  31
ENDBRANCH  18  19
ENDBRANCH  17  18
ENDBRANCH   1  17
TORSDOF 7
ENDMDL
MODEL 7
REMARK VINA RESULT:      -7.9      6.575     10.265
REMARK  Name = 
REMARK  7 active torsions:
REMARK  status: ('A' for Active; 'I' for Inactive)
REMARK    1  A    between atoms: C_9  and  O_10
REMARK    2  A    between atoms: N_13  and  C_14
REMARK    3  A    between atoms: C_14  and  C_15
REMARK    4  A    between atoms: C_15  and  C_16
REMARK    5  A    between atoms: C_16  and  C_17
REMARK    6  A    between atoms: C_17  and  N_18
REMARK    7  A    between atoms: C_25  and  O_26
REMARK                            x       y       z     vdW  Elec       q    Type
REMARK                         _______ _______ _______ _____ _____    ______ ____
ROOT
ATOM      1  C   UNL     1       1.082   3.984  20.244  0.00  0.00    +0.000 C 
ENDROOT
BRANCH   1   2
ATOM      2  C   UNL     1       2.096   2.922  19.787  0.00  0.00    +0.000 C 
BRANCH   2  14
ATOM      3  O   UNL     1       1.895   3.544  17.077  0.00  0.00    +0.000 OA
ATOM      4  C   UNL     1       2.815   4.013  17.744  0.00  0.00    +0.000 C 
ATOM      5  C   UNL     1       3.621   5.185  17.245  0.00  0.00    +0.000 C 
ATOM      6  C   UNL     1       5.110   5.121  17.605  0.00  0.00    +0.000 C 
ATOM      7  C   UNL     1       5.747   6.508  17.322  0.00  0.00    +0.000 C 
ATOM      8  C   UNL     1       6.902   6.259  16.368  0.00  0.00    +0.000 C 
ATOM      9  C   UNL     1       6.483   5.021  15.600  0.00  0.00    +0.000 C 
ATOM     10  C   UNL     1       5.859   4.139  16.670  0.00  0.00    +0.000 C 
ATOM     11  C   UNL     1       5.265   4.759  19.087  0.00  0.00    +0.000 C 
ATOM     12  C   UNL     1       4.440   3.521  19.448  0.00  0.00    +0.000 C 
ATOM     13  O   UNL     1       4.925   2.573  20.061  0.00  0.00    +0.000 OA
ATOM     14  N   UNL     1       3.124   3.606  19.029  0.00  0.00    +0.000 N 
BRANCH  11  15
ATOM     15  O   UNL     1       6.637   4.658  19.449  0.00  0.00    +0.000 OA
ATOM     16  H   UNL     1       7.160   4.858  18.649  0.00  0.00    +0.000 HD
ENDBRANCH  11  15
ENDBRANCH   2  14
ENDBRANCH   1   2
BRANCH   1  17
ATOM     17  C   UNL     1       1.735   5.275  20.728  0.00  0.00    +0.000 C 
BRANCH  17  18
ATOM     18  C   UNL     1       1.200   6.528  20.026  0.00  0.00    +0.000 C 
BRANCH  18  19
ATOM     19  N   UNL     1       1.970   7.744  20.335  0.00  0.00    +0.000 NA
ATOM     20  C   UNL     1       2.035   8.686  19.189  0.00  0.00    +0.000 C 
ATOM     21  C   UNL     1       0.665   9.246  18.763  0.00  0.00    +0.000 C 
ATOM     22  N   UNL     1       0.016   9.881  19.907  0.00  0.00    +0.000 N 
ATOM     23  C   UNL     1      -0.328  11.205  19.831  0.00  0.00    +0.000 A 
ATOM     24  N   UNL     1      -0.200  11.827  18.642  0.00  0.00    +0.000 NA
ATOM     25  C   UNL     1      -0.537  13.124  18.563  0.00  0.00    +0.000 A 
ATOM     26  C   UNL     1      -1.003  13.847  19.626  0.00  0.00    +0.000 A 
ATOM     27  C   UNL     1      -1.110  13.144  20.799  0.00  0.00    +0.000 A 
ATOM     28  N   UNL     1      -0.782  11.838  20.923  0.00  0.00    +0.000 NA
ATOM     29  C   UNL     1      -0.016   9.147  21.170  0.00  0.00    +0.000 C 
ATOM     30  C   UNL     1       1.353   8.481  21.472  0.00  0.00    +0.000 C 
BRANCH  26  31
ATOM     31  O   UNL     1      -1.336  15.159  19.564  0.00  0.00    +0.000 OA
ATOM     32  H   UNL     1      -2.218  15.244  19.158  0.00  0.00    +0.000 HD
ENDBRANCH  26  31
ENDBRANCH  18  19
ENDBRANCH  17  18
ENDBRANCH   1  17
TORSDOF 7
ENDMDL
MODEL 8
REMARK VINA RESULT:      -7.8      6.780      8.791
REMARK  Name = 
REMARK  7 active torsions:
REMARK  status: ('A' for Active; 'I' for Inactive)
REMARK    1  A    between atoms: C_9  and  O_10
REMARK    2  A    between atoms: N_13  and  C_14
REMARK    3  A    between atoms: C_14  and  C_15
REMARK    4  A    between atoms: C_15  and  C_16
REMARK    5  A    between atoms: C_16  and  C_17
REMARK    6  A    between atoms: C_17  and  N_18
REMARK    7  A    between atoms: C_25  and  O_26
REMARK                            x       y       z     vdW  Elec       q    Type
REMARK                         _______ _______ _______ _____ _____    ______ ____
ROOT
ATOM      1  C   UNL     1       1.172   5.819  20.405  0.00  0.00    +0.000 C 
ENDROOT
BRANCH   1   2
ATOM      2  C   UNL     1       1.932   7.046  20.938  0.00  0.00    +0.000 C 
BRANCH   2  14
ATOM      3  O   UNL     1      -0.547   8.065  21.705  0.00  0.00    +0.000 OA
ATOM      4  C   UNL     1       0.175   8.719  20.955  0.00  0.00    +0.000 C 
ATOM      5  C   UNL     1      -0.065  10.189  20.727  0.00  0.00    +0.000 C 
ATOM      6  C   UNL     1       0.212  10.654  19.292  0.00  0.00    +0.000 C 
ATOM      7  C   UNL     1       0.238  12.206  19.272  0.00  0.00    +0.000 C 
ATOM      8  C   UNL     1      -0.791  12.636  18.242  0.00  0.00    +0.000 C 
ATOM      9  C   UNL     1      -1.812  11.515  18.254  0.00  0.00    +0.000 C 
ATOM     10  C   UNL     1      -0.955  10.262  18.352  0.00  0.00    +0.000 C 
ATOM     11  C   UNL     1       1.561  10.095  18.822  0.00  0.00    +0.000 C 
ATOM     12  C   UNL     1       1.653   8.587  19.061  0.00  0.00    +0.000 C 
ATOM     13  O   UNL     1       2.008   7.810  18.178  0.00  0.00    +0.000 OA
ATOM     14  N   UNL     1       1.316   8.221  20.353  0.00  0.00    +0.000 N 
BRANCH  11  15
ATOM     15  O   UNL     1       1.837  10.480  17.482  0.00  0.00    +0.000 OA
ATOM     16  H   UNL     1       1.298  11.274  17.295  0.00  0.00    +0.000 HD
ENDBRANCH  11  15
ENDBRANCH   2  14
ENDBRANCH   1   2
BRANCH   1  17
ATOM     17  C   UNL     1       1.762   4.493  20.871  0.00  0.00    +0.000 C 
BRANCH  17  18
ATOM     18  C   UNL     1       1.311   3.296  20.027  0.00  0.00    +0.000 C 
BRANCH  18  19
ATOM     19  N   UNL     1       2.427   2.454  19.562  0.00  0.00    +0.000 NA
ATOM     20  C   UNL     1       2.466   2.323  18.084  0.00  0.00    +0.000 C 
ATOM     21  C   UNL     1       2.710   3.653  17.346  0.00  0.00    +0.000 C 
ATOM     22  N   UNL     1       3.941   4.269  17.835  0.00  0.00    +0.000 N 
ATOM     23  C   UNL     1       4.955   4.530  16.953  0.00  0.00    +0.000 A 
ATOM     24  N   UNL     1       4.714   4.356  15.638  0.00  0.00    +0.000 NA
ATOM     25  C   UNL     1       5.705   4.611  14.770  0.00  0.00    +0.000 A 
ATOM     26  C   UNL     1       6.947   5.038  15.150  0.00  0.00    +0.000 A 
ATOM     27  C   UNL     1       7.114   5.196  16.502  0.00  0.00    +0.000 A 
ATOM     28  N   UNL     1       6.144   4.951  17.411  0.00  0.00    +0.000 NA
ATOM     29  C   UNL     1       4.135   4.355  19.282  0.00  0.00    +0.000 C 
ATOM     30  C   UNL     1       3.732   3.032  19.986  0.00  0.00    +0.000 C 
BRANCH  26  31
ATOM     31  O   UNL     1       7.961   5.289  14.286  0.00  0.00    +0.000 OA
ATOM     32  H   UNL     1       7.916   4.653  13.549  0.00  0.00    +0.000 HD
ENDBRANCH  26  31
ENDBRANCH  18  19
ENDBRANCH  17  18
ENDBRANCH   1  17
TORSDOF 7
ENDMDL
MODEL 9
REMARK VINA RESULT:      -7.6      7.718     11.579
REMARK  Name = 
REMARK  7 active torsions:
REMARK  status: ('A' for Active; 'I' for Inactive)
REMARK    1  A    between atoms: C_9  and  O_10
REMARK    2  A    between atoms: N_13  and  C_14
REMARK    3  A    between atoms: C_14  and  C_15
REMARK    4  A    between atoms: C_15  and  C_16
REMARK    5  A    between atoms: C_16  and  C_17
REMARK    6  A    between atoms: C_17  and  N_18
REMARK    7  A    between atoms: C_25  and  O_26
REMARK                            x       y       z     vdW  Elec       q    Type
REMARK                         _______ _______ _______ _____ _____    ______ ____
ROOT
ATOM      1  C   UNL     1       1.606   8.460  17.926  0.00  0.00    +0.000 C 
ENDROOT
BRANCH   1   2
ATOM      2  C   UNL     1       2.363   7.952  19.165  0.00  0.00    +0.000 C 
BRANCH   2  14
ATOM      3  O   UNL     1       1.724   5.945  20.990  0.00  0.00    +0.000 OA
ATOM      4  C   UNL     1       2.098   5.643  19.859  0.00  0.00    +0.000 C 
ATOM      5  C   UNL     1       1.880   4.257  19.309  0.00  0.00    +0.000 C 
ATOM      6  C   UNL     1       3.026   3.745  18.428  0.00  0.00    +0.000 C 
ATOM      7  C   UNL     1       2.544   2.472  17.682  0.00  0.00    +0.000 C 
ATOM      8  C   UNL     1       3.537   1.375  18.028  0.00  0.00    +0.000 C 
ATOM      9  C   UNL     1       4.049   1.765  19.400  0.00  0.00    +0.000 C 
ATOM     10  C   UNL     1       4.218   3.273  19.296  0.00  0.00    +0.000 C 
ATOM     11  C   UNL     1       3.424   4.831  17.421  0.00  0.00    +0.000 C 
ATOM     12  C   UNL     1       3.668   6.173  18.115  0.00  0.00    +0.000 C 
ATOM     13  O   UNL     1       4.683   6.834  17.911  0.00  0.00    +0.000 OA
ATOM     14  N   UNL     1       2.634   6.544  18.956  0.00  0.00    +0.000 N 
BRANCH  11  15
ATOM     15  O   UNL     1       4.508   4.402  16.606  0.00  0.00    +0.000 OA
ATOM     16  H   UNL     1       4.129   4.115  15.753  0.00  0.00    +0.000 HD
ENDBRANCH  11  15
ENDBRANCH   2  14
ENDBRANCH   1   2
BRANCH   1  17
ATOM     17  C   UNL     1       1.689   9.972  17.743  0.00  0.00    +0.000 C 
BRANCH  17  18
ATOM     18  C   UNL     1       0.844  10.755  18.753  0.00  0.00    +0.000 C 
BRANCH  18  19
ATOM     19  N   UNL     1      -0.394  10.059  19.144  0.00  0.00    +0.000 NA
ATOM     20  C   UNL     1      -0.499   9.861  20.612  0.00  0.00    +0.000 C 
ATOM     21  C   UNL     1      -0.576  11.174  21.414  0.00  0.00    +0.000 C 
ATOM     22  N   UNL     1      -1.691  11.983  20.928  0.00  0.00    +0.000 N 
ATOM     23  C   UNL     1      -2.686  12.341  21.798  0.00  0.00    +0.000 A 
ATOM     24  N   UNL     1      -2.514  12.069  23.107  0.00  0.00    +0.000 NA
ATOM     25  C   UNL     1      -3.486  12.420  23.963  0.00  0.00    +0.000 A 
ATOM     26  C   UNL     1      -4.643  13.038  23.576  0.00  0.00    +0.000 A 
ATOM     27  C   UNL     1      -4.743  13.286  22.231  0.00  0.00    +0.000 A 
ATOM     28  N   UNL     1      -3.789  12.950  21.334  0.00  0.00    +0.000 NA
ATOM     29  C   UNL     1      -1.825  12.167  19.484  0.00  0.00    +0.000 C 
ATOM     30  C   UNL     1      -1.590  10.837  18.720  0.00  0.00    +0.000 C 
BRANCH  26  31
ATOM     31  O   UNL     1      -5.638  13.388  24.427  0.00  0.00    +0.000 OA
ATOM     32  H   UNL     1      -5.254  13.858  25.189  0.00  0.00    +0.000 HD
ENDBRANCH  26  31
ENDBRANCH  18  19
ENDBRANCH  17  18
ENDBRANCH   1  17
TORSDOF 7
ENDMDL
