MODEL 1
REMARK VINA RESULT:      -9.1      0.000      0.000
REMARK  Name = 
REMARK  3 active torsions:
REMARK  status: ('A' for Active; 'I' for Inactive)
REMARK    1  A    between atoms: C_2  and  C_3
REMARK    2  A    between atoms: C_3  and  C_4
REMARK    3  A    between atoms: C_23  and  C_24
REMARK                            x       y       z     vdW  Elec       q    Type
REMARK                         _______ _______ _______ _____ _____    ______ ____
ROOT
ATOM      1  O   UNL     1       5.018   6.939  15.557  0.00  0.00    +0.000 OA
ATOM      2  C   UNL     1       4.576   7.021  16.706  0.00  0.00    +0.000 C 
ATOM      3  N   UNL     1       3.554   7.942  16.915  0.00  0.00    +0.000 N 
ATOM      4  C   UNL     1       2.681   8.376  17.906  0.00  0.00    +0.000 A 
ATOM      5  N   UNL     1       2.192   9.578  17.800  0.00  0.00    +0.000 NA
ATOM      6  C   UNL     1       1.402  10.092  18.862  0.00  0.00    +0.000 A 
ATOM      7  C   UNL     1       0.907  11.393  18.774  0.00  0.00    +0.000 A 
ATOM      8  C   UNL     1       0.242  11.968  19.861  0.00  0.00    +0.000 A 
ATOM      9  C   UNL     1       0.069  11.241  21.040  0.00  0.00    +0.000 A 
ATOM     10 CL   UNL     1      -0.678  11.985  22.400  0.00  0.00    +0.000 Cl
ATOM     11  C   UNL     1       0.506   9.922  21.130  0.00  0.00    +0.000 A 
ATOM     12  C   UNL     1       1.160   9.351  20.039  0.00  0.00    +0.000 A 
ATOM     13  C   UNL     1       1.611   7.977  20.032  0.00  0.00    +0.000 A 
ATOM     14  N   UNL     1       1.375   6.992  20.864  0.00  0.00    +0.000 NA
ATOM     15  C   UNL     1       1.900   5.902  20.205  0.00  0.00    +0.000 A 
ATOM     16  N   UNL     1       2.515   6.187  19.041  0.00  0.00    +0.000 NA
ATOM     17  N   UNL     1       2.350   7.526  18.969  0.00  0.00    +0.000 N 
ATOM     18  H   UNL     1       3.491   8.545  16.101  0.00  0.00    +0.000 HD
ENDROOT
BRANCH  15  19
ATOM     19  C   UNL     1       1.721   4.522  20.754  0.00  0.00    +0.000 A 
ATOM     20  C   UNL     1       0.937   3.539  20.171  0.00  0.00    +0.000 A 
ATOM     21  C   UNL     1       1.071   2.378  20.967  0.00  0.00    +0.000 A 
ATOM     22  C   UNL     1       1.929   2.714  21.986  0.00  0.00    +0.000 A 
ATOM     23  O   UNL     1       2.317   4.015  21.878  0.00  0.00    +0.000 OA
ENDBRANCH  15  19
BRANCH   2  24
ATOM     24  C   UNL     1       5.146   6.227  17.867  0.00  0.00    +0.000 C 
BRANCH  24  25
ATOM     25  C   UNL     1       4.645   4.796  17.971  0.00  0.00    +0.000 A 
ATOM     26  C   UNL     1       3.786   4.256  17.002  0.00  0.00    +0.000 A 
ATOM     27  C   UNL     1       3.300   2.950  17.122  0.00  0.00    +0.000 A 
ATOM     28  C   UNL     1       3.655   2.167  18.216  0.00  0.00    +0.000 A 
ATOM     29  C   UNL     1       4.500   2.696  19.190  0.00  0.00    +0.000 A 
ATOM     30 CL   UNL     1       4.934   1.740  20.556  0.00  0.00    +0.000 Cl
ATOM     31  C   UNL     1       4.993   3.996  19.074  0.00  0.00    +0.000 A 
ENDBRANCH  24  25
ENDBRANCH   2  24
TORSDOF 3
ENDMDL
MODEL 2
REMARK VINA RESULT:      -8.3      5.118      7.536
REMARK  Name = 
REMARK  3 active torsions:
REMARK  status: ('A' for Active; 'I' for Inactive)
REMARK    1  A    between atoms: C_2  and  C_3
REMARK    2  A    between atoms: C_3  and  C_4
REMARK    3  A    between atoms: C_23  and  C_24
REMARK                            x       y       z     vdW  Elec       q    Type
REMARK                         _______ _______ _______ _____ _____    ______ ____
ROOT
ATOM      1  O   UNL     1       1.689  11.315  21.567  0.00  0.00    +0.000 OA
ATOM      2  C   UNL     1       0.503  11.213  21.244  0.00  0.00    +0.000 C 
ATOM      3  N   UNL     1      -0.327  12.279  21.578  0.00  0.00    +0.000 N 
ATOM      4  C   UNL     1      -1.633  12.722  21.407  0.00  0.00    +0.000 A 
ATOM      5  N   UNL     1      -2.106  13.568  22.277  0.00  0.00    +0.000 NA
ATOM      6  C   UNL     1      -3.475  13.937  22.200  0.00  0.00    +0.000 A 
ATOM      7  C   UNL     1      -3.998  14.812  23.151  0.00  0.00    +0.000 A 
ATOM      8  C   UNL     1      -5.369  15.084  23.178  0.00  0.00    +0.000 A 
ATOM      9  C   UNL     1      -6.221  14.482  22.251  0.00  0.00    +0.000 A 
ATOM     10 CL   UNL     1      -7.916  14.759  22.344  0.00  0.00    +0.000 Cl
ATOM     11  C   UNL     1      -5.712  13.648  21.259  0.00  0.00    +0.000 A 
ATOM     12  C   UNL     1      -4.342  13.389  21.231  0.00  0.00    +0.000 A 
ATOM     13  C   UNL     1      -3.725  12.567  20.213  0.00  0.00    +0.000 A 
ATOM     14  N   UNL     1      -4.203  12.084  19.093  0.00  0.00    +0.000 NA
ATOM     15  C   UNL     1      -3.082  11.577  18.474  0.00  0.00    +0.000 A 
ATOM     16  N   UNL     1      -1.950  11.659  19.199  0.00  0.00    +0.000 NA
ATOM     17  N   UNL     1      -2.393  12.263  20.324  0.00  0.00    +0.000 N 
ATOM     18  H   UNL     1       0.168  12.881  22.228  0.00  0.00    +0.000 HD
ENDROOT
BRANCH  15  19
ATOM     19  C   UNL     1      -3.160  11.042  17.079  0.00  0.00    +0.000 A 
ATOM     20  C   UNL     1      -2.296  10.095  16.550  0.00  0.00    +0.000 A 
ATOM     21  C   UNL     1      -2.734   9.827  15.233  0.00  0.00    +0.000 A 
ATOM     22  C   UNL     1      -3.839  10.619  15.033  0.00  0.00    +0.000 A 
ATOM     23  O   UNL     1      -4.098  11.371  16.137  0.00  0.00    +0.000 OA
ENDBRANCH  15  19
BRANCH   2  24
ATOM     24  C   UNL     1      -0.068   9.971  20.582  0.00  0.00    +0.000 C 
BRANCH  24  25
ATOM     25  C   UNL     1       0.918   9.192  19.727  0.00  0.00    +0.000 A 
ATOM     26  C   UNL     1       1.237   9.609  18.426  0.00  0.00    +0.000 A 
ATOM     27  C   UNL     1       2.117   8.867  17.632  0.00  0.00    +0.000 A 
ATOM     28  C   UNL     1       2.683   7.693  18.119  0.00  0.00    +0.000 A 
ATOM     29  C   UNL     1       2.365   7.265  19.407  0.00  0.00    +0.000 A 
ATOM     30 CL   UNL     1       3.049   5.804  20.014  0.00  0.00    +0.000 Cl
ATOM     31  C   UNL     1       1.492   8.002  20.206  0.00  0.00    +0.000 A 
ENDBRANCH  24  25
ENDBRANCH   2  24
TORSDOF 3
ENDMDL
MODEL 3
REMARK VINA RESULT:      -7.5      0.943      1.289
REMARK  Name = 
REMARK  3 active torsions:
REMARK  status: ('A' for Active; 'I' for Inactive)
REMARK    1  A    between atoms: C_2  and  C_3
REMARK    2  A    between atoms: C_3  and  C_4
REMARK    3  A    between atoms: C_23  and  C_24
REMARK                            x       y       z     vdW  Elec       q    Type
REMARK                         _______ _______ _______ _____ _____    ______ ____
ROOT
ATOM      1  O   UNL     1       5.190   6.853  15.686  0.00  0.00    +0.000 OA
ATOM      2  C   UNL     1       4.707   6.982  16.813  0.00  0.00    +0.000 C 
ATOM      3  N   UNL     1       3.644   7.871  16.937  0.00  0.00    +0.000 N 
ATOM      4  C   UNL     1       2.722   8.324  17.873  0.00  0.00    +0.000 A 
ATOM      5  N   UNL     1       2.191   9.497  17.683  0.00  0.00    +0.000 NA
ATOM      6  C   UNL     1       1.346  10.039  18.688  0.00  0.00    +0.000 A 
ATOM      7  C   UNL     1       0.804  11.311  18.508  0.00  0.00    +0.000 A 
ATOM      8  C   UNL     1       0.081  11.919  19.539  0.00  0.00    +0.000 A 
ATOM      9  C   UNL     1      -0.103  11.254  20.753  0.00  0.00    +0.000 A 
ATOM     10 CL   UNL     1      -0.923  12.044  22.042  0.00  0.00    +0.000 Cl
ATOM     11  C   UNL     1       0.382   9.962  20.933  0.00  0.00    +0.000 A 
ATOM     12  C   UNL     1       1.094   9.357  19.897  0.00  0.00    +0.000 A 
ATOM     13  C   UNL     1       1.598   8.004  19.985  0.00  0.00    +0.000 A 
ATOM     14  N   UNL     1       1.374   7.059  20.865  0.00  0.00    +0.000 NA
ATOM     15  C   UNL     1       1.962   5.955  20.287  0.00  0.00    +0.000 A 
ATOM     16  N   UNL     1       2.604   6.199  19.128  0.00  0.00    +0.000 NA
ATOM     17  N   UNL     1       2.389   7.524  18.974  0.00  0.00    +0.000 N 
ATOM     18  H   UNL     1       3.585   8.423  16.087  0.00  0.00    +0.000 HD
ENDROOT
BRANCH  15  19
ATOM     19  C   UNL     1       1.818   4.603  20.910  0.00  0.00    +0.000 A 
ATOM     20  C   UNL     1       0.945   3.622  20.468  0.00  0.00    +0.000 A 
ATOM     21  C   UNL     1       1.148   2.489  21.288  0.00  0.00    +0.000 A 
ATOM     22  C   UNL     1       2.133   2.837  22.179  0.00  0.00    +0.000 A 
ATOM     23  O   UNL     1       2.536   4.121  21.972  0.00  0.00    +0.000 OA
ENDBRANCH  15  19
BRANCH   2  24
ATOM     24  C   UNL     1       5.269   6.279  18.036  0.00  0.00    +0.000 C 
BRANCH  24  25
ATOM     25  C   UNL     1       4.743   4.872  18.264  0.00  0.00    +0.000 A 
ATOM     26  C   UNL     1       5.188   4.097  19.345  0.00  0.00    +0.000 A 
ATOM     27  C   UNL     1       4.727   2.789  19.528  0.00  0.00    +0.000 A 
ATOM     28  C   UNL     1       3.822   2.232  18.629  0.00  0.00    +0.000 A 
ATOM     29  C   UNL     1       3.380   2.990  17.546  0.00  0.00    +0.000 A 
ATOM     30 CL   UNL     1       2.271   2.304  16.420  0.00  0.00    +0.000 Cl
ATOM     31  C   UNL     1       3.833   4.296  17.360  0.00  0.00    +0.000 A 
ENDBRANCH  24  25
ENDBRANCH   2  24
TORSDOF 3
ENDMDL
MODEL 4
REMARK VINA RESULT:      -7.4      5.283      7.647
REMARK  Name = 
REMARK  3 active torsions:
REMARK  status: ('A' for Active; 'I' for Inactive)
REMARK    1  A    between atoms: C_2  and  C_3
REMARK    2  A    between atoms: C_3  and  C_4
REMARK    3  A    between atoms: C_23  and  C_24
REMARK                            x       y       z     vdW  Elec       q    Type
REMARK                         _______ _______ _______ _____ _____    ______ ____
ROOT
ATOM      1  O   UNL     1       1.522  11.156  21.595  0.00  0.00    +0.000 OA
ATOM      2  C   UNL     1       0.338  11.113  21.252  0.00  0.00    +0.000 C 
ATOM      3  N   UNL     1      -0.435  12.234  21.538  0.00  0.00    +0.000 N 
ATOM      4  C   UNL     1      -1.710  12.745  21.328  0.00  0.00    +0.000 A 
ATOM      5  N   UNL     1      -2.149  13.643  22.162  0.00  0.00    +0.000 NA
ATOM      6  C   UNL     1      -3.494  14.086  22.048  0.00  0.00    +0.000 A 
ATOM      7  C   UNL     1      -3.983  15.018  22.962  0.00  0.00    +0.000 A 
ATOM      8  C   UNL     1      -5.336  15.369  22.953  0.00  0.00    +0.000 A 
ATOM      9  C   UNL     1      -6.204  14.787  22.027  0.00  0.00    +0.000 A 
ATOM     10 CL   UNL     1      -7.882  15.163  22.079  0.00  0.00    +0.000 Cl
ATOM     11  C   UNL     1      -5.726  13.896  21.071  0.00  0.00    +0.000 A 
ATOM     12  C   UNL     1      -4.373  13.558  21.078  0.00  0.00    +0.000 A 
ATOM     13  C   UNL     1      -3.785  12.672  20.097  0.00  0.00    +0.000 A 
ATOM     14  N   UNL     1      -4.270  12.183  18.983  0.00  0.00    +0.000 NA
ATOM     15  C   UNL     1      -3.169  11.594  18.402  0.00  0.00    +0.000 A 
ATOM     16  N   UNL     1      -2.047  11.634  19.147  0.00  0.00    +0.000 NA
ATOM     17  N   UNL     1      -2.476  12.296  20.244  0.00  0.00    +0.000 N 
ATOM     18  H   UNL     1       0.082  12.827  22.180  0.00  0.00    +0.000 HD
ENDROOT
BRANCH  15  19
ATOM     19  C   UNL     1      -3.252  11.021  17.022  0.00  0.00    +0.000 A 
ATOM     20  C   UNL     1      -2.343  10.122  16.487  0.00  0.00    +0.000 A 
ATOM     21  C   UNL     1      -2.800   9.794  15.191  0.00  0.00    +0.000 A 
ATOM     22  C   UNL     1      -3.962  10.505  15.008  0.00  0.00    +0.000 A 
ATOM     23  O   UNL     1      -4.237  11.265  16.103  0.00  0.00    +0.000 OA
ENDBRANCH  15  19
BRANCH   2  24
ATOM     24  C   UNL     1      -0.291   9.886  20.616  0.00  0.00    +0.000 C 
BRANCH  24  25
ATOM     25  C   UNL     1       0.688   8.783  20.248  0.00  0.00    +0.000 A 
ATOM     26  C   UNL     1       0.914   7.697  21.108  0.00  0.00    +0.000 A 
ATOM     27  C   UNL     1       1.843   6.704  20.780  0.00  0.00    +0.000 A 
ATOM     28  C   UNL     1       2.569   6.786  19.595  0.00  0.00    +0.000 A 
ATOM     29  C   UNL     1       2.360   7.865  18.739  0.00  0.00    +0.000 A 
ATOM     30 CL   UNL     1       3.264   7.983  17.277  0.00  0.00    +0.000 Cl
ATOM     31  C   UNL     1       1.431   8.856  19.057  0.00  0.00    +0.000 A 
ENDBRANCH  24  25
ENDBRANCH   2  24
TORSDOF 3
ENDMDL
MODEL 5
REMARK VINA RESULT:      -7.4      6.486      9.565
REMARK  Name = 
REMARK  3 active torsions:
REMARK  status: ('A' for Active; 'I' for Inactive)
REMARK    1  A    between atoms: C_2  and  C_3
REMARK    2  A    between atoms: C_3  and  C_4
REMARK    3  A    between atoms: C_23  and  C_24
REMARK                            x       y       z     vdW  Elec       q    Type
REMARK                         _______ _______ _______ _____ _____    ______ ____
ROOT
ATOM      1  O   UNL     1      -5.948  14.401  22.031  0.00  0.00    +0.000 OA
ATOM      2  C   UNL     1      -4.895  14.048  21.493  0.00  0.00    +0.000 C 
ATOM      3  N   UNL     1      -3.960  15.047  21.240  0.00  0.00    +0.000 N 
ATOM      4  C   UNL     1      -2.664  15.213  20.766  0.00  0.00    +0.000 A 
ATOM      5  N   UNL     1      -2.343  16.374  20.272  0.00  0.00    +0.000 NA
ATOM      6  C   UNL     1      -1.069  16.532  19.665  0.00  0.00    +0.000 A 
ATOM      7  C   UNL     1      -0.733  17.762  19.099  0.00  0.00    +0.000 A 
ATOM      8  C   UNL     1       0.458  17.903  18.380  0.00  0.00    +0.000 A 
ATOM      9  C   UNL     1       1.317  16.813  18.226  0.00  0.00    +0.000 A 
ATOM     10 CL   UNL     1       2.738  16.975  17.270  0.00  0.00    +0.000 Cl
ATOM     11  C   UNL     1       1.027  15.592  18.829  0.00  0.00    +0.000 A 
ATOM     12  C   UNL     1      -0.157  15.461  19.554  0.00  0.00    +0.000 A 
ATOM     13  C   UNL     1      -0.516  14.242  20.246  0.00  0.00    +0.000 A 
ATOM     14  N   UNL     1       0.179  13.161  20.497  0.00  0.00    +0.000 NA
ATOM     15  C   UNL     1      -0.638  12.464  21.360  0.00  0.00    +0.000 A 
ATOM     16  N   UNL     1      -1.836  13.035  21.589  0.00  0.00    +0.000 NA
ATOM     17  N   UNL     1      -1.750  14.153  20.835  0.00  0.00    +0.000 N 
ATOM     18  H   UNL     1      -4.408  15.948  21.365  0.00  0.00    +0.000 HD
ENDROOT
BRANCH  15  19
ATOM     19  C   UNL     1      -0.158  11.206  22.013  0.00  0.00    +0.000 A 
ATOM     20  C   UNL     1      -0.841  10.527  23.010  0.00  0.00    +0.000 A 
ATOM     21  C   UNL     1      -0.082   9.376  23.320  0.00  0.00    +0.000 A 
ATOM     22  C   UNL     1       1.016   9.412  22.495  0.00  0.00    +0.000 A 
ATOM     23  O   UNL     1       0.990  10.525  21.710  0.00  0.00    +0.000 OA
ENDBRANCH  15  19
BRANCH   2  24
ATOM     24  C   UNL     1      -4.636  12.619  21.049  0.00  0.00    +0.000 C 
BRANCH  24  25
ATOM     25  C   UNL     1      -4.732  12.387  19.550  0.00  0.00    +0.000 A 
ATOM     26  C   UNL     1      -5.886  12.739  18.835  0.00  0.00    +0.000 A 
ATOM     27  C   UNL     1      -5.982  12.489  17.462  0.00  0.00    +0.000 A 
ATOM     28  C   UNL     1      -4.932  11.876  16.784  0.00  0.00    +0.000 A 
ATOM     29  C   UNL     1      -3.785  11.514  17.488  0.00  0.00    +0.000 A 
ATOM     30 CL   UNL     1      -2.486  10.740  16.662  0.00  0.00    +0.000 Cl
ATOM     31  C   UNL     1      -3.681  11.764  18.856  0.00  0.00    +0.000 A 
ENDBRANCH  24  25
ENDBRANCH   2  24
TORSDOF 3
ENDMDL
MODEL 6
REMARK VINA RESULT:      -7.3      6.261      9.851
REMARK  Name = 
REMARK  3 active torsions:
REMARK  status: ('A' for Active; 'I' for Inactive)
REMARK    1  A    between atoms: C_2  and  C_3
REMARK    2  A    between atoms: C_3  and  C_4
REMARK    3  A    between atoms: C_23  and  C_24
REMARK                            x       y       z     vdW  Elec       q    Type
REMARK                         _______ _______ _______ _____ _____    ______ ____
ROOT
ATOM      1  O   UNL     1      -0.513   9.549  23.152  0.00  0.00    +0.000 OA
ATOM      2  C   UNL     1      -0.895  10.680  22.841  0.00  0.00    +0.000 C 
ATOM      3  N   UNL     1      -2.070  11.126  23.439  0.00  0.00    +0.000 N 
ATOM      4  C   UNL     1      -2.871  12.259  23.525  0.00  0.00    +0.000 A 
ATOM      5  N   UNL     1      -4.124  12.093  23.838  0.00  0.00    +0.000 NA
ATOM      6  C   UNL     1      -4.993  13.216  23.807  0.00  0.00    +0.000 A 
ATOM      7  C   UNL     1      -6.344  13.039  24.104  0.00  0.00    +0.000 A 
ATOM      8  C   UNL     1      -7.242  14.099  23.950  0.00  0.00    +0.000 A 
ATOM      9  C   UNL     1      -6.790  15.341  23.500  0.00  0.00    +0.000 A 
ATOM     10 CL   UNL     1      -7.916  16.614  23.235  0.00  0.00    +0.000 Cl
ATOM     11  C   UNL     1      -5.437  15.554  23.251  0.00  0.00    +0.000 A 
ATOM     12  C   UNL     1      -4.544  14.495  23.416  0.00  0.00    +0.000 A 
ATOM     13  C   UNL     1      -3.119  14.640  23.218  0.00  0.00    +0.000 A 
ATOM     14  N   UNL     1      -2.380  15.708  23.048  0.00  0.00    +0.000 NA
ATOM     15  C   UNL     1      -1.097  15.211  23.131  0.00  0.00    +0.000 A 
ATOM     16  N   UNL     1      -1.018  13.873  23.268  0.00  0.00    +0.000 NA
ATOM     17  N   UNL     1      -2.324  13.525  23.284  0.00  0.00    +0.000 N 
ATOM     18  H   UNL     1      -2.525  10.337  23.885  0.00  0.00    +0.000 HD
ENDROOT
BRANCH  15  19
ATOM     19  C   UNL     1       0.079  16.135  23.125  0.00  0.00    +0.000 A 
ATOM     20  C   UNL     1       0.565  16.782  22.000  0.00  0.00    +0.000 A 
ATOM     21  C   UNL     1       1.644  17.591  22.423  0.00  0.00    +0.000 A 
ATOM     22  C   UNL     1       1.755  17.397  23.779  0.00  0.00    +0.000 A 
ATOM     23  O   UNL     1       0.823  16.504  24.214  0.00  0.00    +0.000 OA
ENDBRANCH  15  19
BRANCH   2  24
ATOM     24  C   UNL     1      -0.185  11.534  21.806  0.00  0.00    +0.000 C 
BRANCH  24  25
ATOM     25  C   UNL     1      -0.320  11.048  20.373  0.00  0.00    +0.000 A 
ATOM     26  C   UNL     1      -1.495  11.273  19.639  0.00  0.00    +0.000 A 
ATOM     27  C   UNL     1      -1.627  10.792  18.332  0.00  0.00    +0.000 A 
ATOM     28  C   UNL     1      -0.594  10.070  17.742  0.00  0.00    +0.000 A 
ATOM     29  C   UNL     1       0.573   9.833  18.466  0.00  0.00    +0.000 A 
ATOM     30 CL   UNL     1       1.852   8.927  17.749  0.00  0.00    +0.000 Cl
ATOM     31  C   UNL     1       0.714  10.314  19.767  0.00  0.00    +0.000 A 
ENDBRANCH  24  25
ENDBRANCH   2  24
TORSDOF 3
ENDMDL
MODEL 7
REMARK VINA RESULT:      -7.3      7.196      9.400
REMARK  Name = 
REMARK  3 active torsions:
REMARK  status: ('A' for Active; 'I' for Inactive)
REMARK    1  A    between atoms: C_2  and  C_3
REMARK    2  A    between atoms: C_3  and  C_4
REMARK    3  A    between atoms: C_23  and  C_24
REMARK                            x       y       z     vdW  Elec       q    Type
REMARK                         _______ _______ _______ _____ _____    ______ ____
ROOT
ATOM      1  O   UNL     1       0.017   9.899  23.489  0.00  0.00    +0.000 OA
ATOM      2  C   UNL     1      -0.264  10.720  22.611  0.00  0.00    +0.000 C 
ATOM      3  N   UNL     1       0.806  11.285  21.923  0.00  0.00    +0.000 N 
ATOM      4  C   UNL     1       1.071  12.139  20.859  0.00  0.00    +0.000 A 
ATOM      5  N   UNL     1       2.219  12.752  20.844  0.00  0.00    +0.000 NA
ATOM      6  C   UNL     1       2.464  13.726  19.840  0.00  0.00    +0.000 A 
ATOM      7  C   UNL     1       3.676  14.415  19.841  0.00  0.00    +0.000 A 
ATOM      8  C   UNL     1       3.887  15.469  18.947  0.00  0.00    +0.000 A 
ATOM      9  C   UNL     1       2.884  15.836  18.048  0.00  0.00    +0.000 A 
ATOM     10 CL   UNL     1       3.122  17.186  17.009  0.00  0.00    +0.000 Cl
ATOM     11  C   UNL     1       1.688  15.126  17.993  0.00  0.00    +0.000 A 
ATOM     12  C   UNL     1       1.488  14.069  18.880  0.00  0.00    +0.000 A 
ATOM     13  C   UNL     1       0.293  13.254  18.864  0.00  0.00    +0.000 A 
ATOM     14  N   UNL     1      -0.688  13.186  17.999  0.00  0.00    +0.000 NA
ATOM     15  C   UNL     1      -1.401  12.087  18.429  0.00  0.00    +0.000 A 
ATOM     16  N   UNL     1      -0.942  11.525  19.564  0.00  0.00    +0.000 NA
ATOM     17  N   UNL     1       0.120  12.312  19.845  0.00  0.00    +0.000 N 
ATOM     18  H   UNL     1       1.662  11.064  22.420  0.00  0.00    +0.000 HD
ENDROOT
BRANCH  15  19
ATOM     19  C   UNL     1      -2.550  11.564  17.626  0.00  0.00    +0.000 A 
ATOM     20  C   UNL     1      -2.428  10.706  16.544  0.00  0.00    +0.000 A 
ATOM     21  C   UNL     1      -3.737  10.416  16.098  0.00  0.00    +0.000 A 
ATOM     22  C   UNL     1      -4.583  11.107  16.932  0.00  0.00    +0.000 A 
ATOM     23  O   UNL     1      -3.876  11.819  17.851  0.00  0.00    +0.000 OA
ENDBRANCH  15  19
BRANCH   2  24
ATOM     24  C   UNL     1      -1.687  11.166  22.324  0.00  0.00    +0.000 C 
BRANCH  24  25
ATOM     25  C   UNL     1      -2.178  12.324  23.176  0.00  0.00    +0.000 A 
ATOM     26  C   UNL     1      -3.468  12.322  23.729  0.00  0.00    +0.000 A 
ATOM     27  C   UNL     1      -3.926  13.408  24.482  0.00  0.00    +0.000 A 
ATOM     28  C   UNL     1      -3.110  14.516  24.686  0.00  0.00    +0.000 A 
ATOM     29  C   UNL     1      -1.831  14.532  24.133  0.00  0.00    +0.000 A 
ATOM     30 CL   UNL     1      -0.817  15.906  24.368  0.00  0.00    +0.000 Cl
ATOM     31  C   UNL     1      -1.365  13.451  23.385  0.00  0.00    +0.000 A 
ENDBRANCH  24  25
ENDBRANCH   2  24
TORSDOF 3
ENDMDL
MODEL 8
REMARK VINA RESULT:      -7.3      5.346      8.142
REMARK  Name = 
REMARK  3 active torsions:
REMARK  status: ('A' for Active; 'I' for Inactive)
REMARK    1  A    between atoms: C_2  and  C_3
REMARK    2  A    between atoms: C_3  and  C_4
REMARK    3  A    between atoms: C_23  and  C_24
REMARK                            x       y       z     vdW  Elec       q    Type
REMARK                         _______ _______ _______ _____ _____    ______ ____
ROOT
ATOM      1  O   UNL     1      -1.828  11.809  17.220  0.00  0.00    +0.000 OA
ATOM      2  C   UNL     1      -1.146  12.040  18.221  0.00  0.00    +0.000 C 
ATOM      3  N   UNL     1      -0.051  12.881  18.048  0.00  0.00    +0.000 N 
ATOM      4  C   UNL     1       0.949  13.512  18.779  0.00  0.00    +0.000 A 
ATOM      5  N   UNL     1       2.040  13.846  18.152  0.00  0.00    +0.000 NA
ATOM      6  C   UNL     1       3.126  14.374  18.900  0.00  0.00    +0.000 A 
ATOM      7  C   UNL     1       4.312  14.698  18.242  0.00  0.00    +0.000 A 
ATOM      8  C   UNL     1       5.437  15.091  18.972  0.00  0.00    +0.000 A 
ATOM      9  C   UNL     1       5.378  15.163  20.365  0.00  0.00    +0.000 A 
ATOM     10 CL   UNL     1       6.790  15.568  21.259  0.00  0.00    +0.000 Cl
ATOM     11  C   UNL     1       4.188  14.898  21.038  0.00  0.00    +0.000 A 
ATOM     12  C   UNL     1       3.066  14.516  20.303  0.00  0.00    +0.000 A 
ATOM     13  C   UNL     1       1.782  14.260  20.917  0.00  0.00    +0.000 A 
ATOM     14  N   UNL     1       1.353  14.485  22.134  0.00  0.00    +0.000 NA
ATOM     15  C   UNL     1       0.003  14.227  22.036  0.00  0.00    +0.000 A 
ATOM     16  N   UNL     1      -0.401  13.781  20.831  0.00  0.00    +0.000 NA
ATOM     17  N   UNL     1       0.761  13.774  20.142  0.00  0.00    +0.000 N 
ATOM     18  H   UNL     1       0.113  12.996  17.053  0.00  0.00    +0.000 HD
ENDROOT
BRANCH  15  19
ATOM     19  C   UNL     1      -0.909  14.497  23.191  0.00  0.00    +0.000 A 
ATOM     20  C   UNL     1      -0.717  15.501  24.127  0.00  0.00    +0.000 A 
ATOM     21  C   UNL     1      -1.814  15.451  25.017  0.00  0.00    +0.000 A 
ATOM     22  C   UNL     1      -2.615  14.426  24.574  0.00  0.00    +0.000 A 
ATOM     23  O   UNL     1      -2.070  13.829  23.478  0.00  0.00    +0.000 OA
ENDBRANCH  15  19
BRANCH   2  24
ATOM     24  C   UNL     1      -1.418  11.398  19.570  0.00  0.00    +0.000 C 
BRANCH  24  25
ATOM     25  C   UNL     1      -0.444  10.299  19.963  0.00  0.00    +0.000 A 
ATOM     26  C   UNL     1      -0.379   9.825  21.282  0.00  0.00    +0.000 A 
ATOM     27  C   UNL     1       0.544   8.840  21.645  0.00  0.00    +0.000 A 
ATOM     28  C   UNL     1       1.424   8.320  20.700  0.00  0.00    +0.000 A 
ATOM     29  C   UNL     1       1.375   8.791  19.390  0.00  0.00    +0.000 A 
ATOM     30 CL   UNL     1       2.470   8.164  18.216  0.00  0.00    +0.000 Cl
ATOM     31  C   UNL     1       0.453   9.770  19.019  0.00  0.00    +0.000 A 
ENDBRANCH  24  25
ENDBRANCH   2  24
TORSDOF 3
ENDMDL
MODEL 9
REMARK VINA RESULT:      -7.3      6.407      9.722
REMARK  Name = 
REMARK  3 active torsions:
REMARK  status: ('A' for Active; 'I' for Inactive)
REMARK    1  A    between atoms: C_2  and  C_3
REMARK    2  A    between atoms: C_3  and  C_4
REMARK    3  A    between atoms: C_23  and  C_24
REMARK                            x       y       z     vdW  Elec       q    Type
REMARK                         _______ _______ _______ _____ _____    ______ ____
ROOT
ATOM      1  O   UNL     1       0.002   9.360  23.095  0.00  0.00    +0.000 OA
ATOM      2  C   UNL     1      -0.413  10.456  22.708  0.00  0.00    +0.000 C 
ATOM      3  N   UNL     1      -1.557  10.944  23.331  0.00  0.00    +0.000 N 
ATOM      4  C   UNL     1      -2.367  12.073  23.364  0.00  0.00    +0.000 A 
ATOM      5  N   UNL     1      -3.598  11.925  23.763  0.00  0.00    +0.000 NA
ATOM      6  C   UNL     1      -4.482  13.033  23.683  0.00  0.00    +0.000 A 
ATOM      7  C   UNL     1      -5.812  12.872  24.072  0.00  0.00    +0.000 A 
ATOM      8  C   UNL     1      -6.731  13.907  23.877  0.00  0.00    +0.000 A 
ATOM      9  C   UNL     1      -6.322  15.108  23.294  0.00  0.00    +0.000 A 
ATOM     10 CL   UNL     1      -7.478  16.343  22.984  0.00  0.00    +0.000 Cl
ATOM     11  C   UNL     1      -4.989  15.309  22.949  0.00  0.00    +0.000 A 
ATOM     12  C   UNL     1      -4.074  14.277  23.155  0.00  0.00    +0.000 A 
ATOM     13  C   UNL     1      -2.664  14.415  22.863  0.00  0.00    +0.000 A 
ATOM     14  N   UNL     1      -1.950  15.470  22.557  0.00  0.00    +0.000 NA
ATOM     15  C   UNL     1      -0.659  14.993  22.609  0.00  0.00    +0.000 A 
ATOM     16  N   UNL     1      -0.554  13.673  22.859  0.00  0.00    +0.000 NA
ATOM     17  N   UNL     1      -1.851  13.318  22.980  0.00  0.00    +0.000 N 
ATOM     18  H   UNL     1      -1.975  10.194  23.871  0.00  0.00    +0.000 HD
ENDROOT
BRANCH  15  19
ATOM     19  C   UNL     1       0.503  15.923  22.454  0.00  0.00    +0.000 A 
ATOM     20  C   UNL     1       0.492  17.072  21.678  0.00  0.00    +0.000 A 
ATOM     21  C   UNL     1       1.755  17.687  21.835  0.00  0.00    +0.000 A 
ATOM     22  C   UNL     1       2.463  16.886  22.698  0.00  0.00    +0.000 A 
ATOM     23  O   UNL     1       1.721  15.805  23.067  0.00  0.00    +0.000 OA
ENDBRANCH  15  19
BRANCH   2  24
ATOM     24  C   UNL     1       0.226  11.221  21.562  0.00  0.00    +0.000 C 
BRANCH  24  25
ATOM     25  C   UNL     1      -0.257  10.822  20.178  0.00  0.00    +0.000 A 
ATOM     26  C   UNL     1       0.528  10.016  19.340  0.00  0.00    +0.000 A 
ATOM     27  C   UNL     1       0.092   9.683  18.053  0.00  0.00    +0.000 A 
ATOM     28  C   UNL     1      -1.127  10.157  17.579  0.00  0.00    +0.000 A 
ATOM     29  C   UNL     1      -1.910  10.967  18.400  0.00  0.00    +0.000 A 
ATOM     30 CL   UNL     1      -3.414  11.572  17.817  0.00  0.00    +0.000 Cl
ATOM     31  C   UNL     1      -1.484  11.300  19.686  0.00  0.00    +0.000 A 
ENDBRANCH  24  25
ENDBRANCH   2  24
TORSDOF 3
ENDMDL
