MODEL 1
REMARK VINA RESULT:      -8.8      0.000      0.000
REMARK  Name = 
REMARK  4 active torsions:
REMARK  status: ('A' for Active; 'I' for Inactive)
REMARK    1  A    between atoms: N_1  and  S_2
REMARK    2  A    between atoms: S_2  and  C_5
REMARK    3  A    between atoms: C_8  and  N_9
REMARK    4  A    between atoms: N_9  and  C_10
REMARK                            x       y       z     vdW  Elec       q    Type
REMARK                         _______ _______ _______ _____ _____    ______ ____
ROOT
ATOM      1  C   UNL     1       2.633   6.115  19.529  0.00  0.00    +0.000 A 
ATOM      2  N   UNL     1       3.541   6.262  18.524  0.00  0.00    +0.000 NA
ATOM      3  C   UNL     1       3.837   5.267  17.668  0.00  0.00    +0.000 A 
ATOM      4  N   UNL     1       4.702   5.548  16.638  0.00  0.00    +0.000 N 
ATOM      5  C   UNL     1       5.468   6.800  16.627  0.00  0.00    +0.000 C 
ATOM      6  C   UNL     1       6.969   6.531  16.880  0.00  0.00    +0.000 C 
ATOM      7  N   UNL     1       7.537   5.506  15.980  0.00  0.00    +0.000 NA
ATOM      8  C   UNL     1       6.748   4.266  16.102  0.00  0.00    +0.000 C 
ATOM      9  C   UNL     1       5.244   4.470  15.814  0.00  0.00    +0.000 C 
ATOM     10  N   UNL     1       3.266   4.050  17.721  0.00  0.00    +0.000 NA
ATOM     11  C   UNL     1       2.395   3.917  18.725  0.00  0.00    +0.000 A 
ATOM     12  N   UNL     1       1.648   2.815  19.016  0.00  0.00    +0.000 N 
ATOM     13  C   UNL     1       0.898   3.107  20.123  0.00  0.00    +0.000 A 
ATOM     14  N   UNL     1       1.091   4.344  20.535  0.00  0.00    +0.000 NA
ATOM     15  C   UNL     1       2.030   4.859  19.664  0.00  0.00    +0.000 A 
ATOM     16  H   UNL     1       8.501   5.320  16.253  0.00  0.00    +0.000 HD
ATOM     17  H   UNL     1       1.655   1.953  18.491  0.00  0.00    +0.000 HD
ENDROOT
BRANCH   1  18
ATOM     18  N   UNL     1       2.310   7.206  20.360  0.00  0.00    +0.000 N 
ATOM     19  H   UNL     1       2.096   6.892  21.304  0.00  0.00    +0.000 HD
BRANCH  18  23
ATOM     20  C   UNL     1      -0.007  10.531  19.203  0.00  0.00    +0.000 A 
ATOM     21  C   UNL     1       0.849   9.944  18.275  0.00  0.00    +0.000 A 
ATOM     22  C   UNL     1       1.610   8.839  18.656  0.00  0.00    +0.000 A 
ATOM     23  C   UNL     1       1.537   8.316  19.957  0.00  0.00    +0.000 A 
ATOM     24  C   UNL     1       0.649   8.903  20.866  0.00  0.00    +0.000 A 
ATOM     25  C   UNL     1      -0.115  10.017  20.498  0.00  0.00    +0.000 A 
BRANCH  20  26
ATOM     26  S   UNL     1      -0.990  11.916  18.720  0.00  0.00    +0.000 S 
ATOM     27  O   UNL     1      -0.122  13.027  18.408  0.00  0.00    +0.000 OA
ATOM     28  O   UNL     1      -2.120  12.038  19.610  0.00  0.00    +0.000 OA
BRANCH  26  29
ATOM     29  N   UNL     1      -1.638  11.393  17.260  0.00  0.00    +0.000 NA
ATOM     30  H   UNL     1      -2.482  11.929  17.050  0.00  0.00    +0.000 HD
ATOM     31  H   UNL     1      -1.782  10.384  17.282  0.00  0.00    +0.000 HD
ENDBRANCH  26  29
ENDBRANCH  20  26
ENDBRANCH  18  23
ENDBRANCH   1  18
TORSDOF 4
ENDMDL
MODEL 2
REMARK VINA RESULT:      -8.6      0.713      1.299
REMARK  Name = 
REMARK  4 active torsions:
REMARK  status: ('A' for Active; 'I' for Inactive)
REMARK    1  A    between atoms: N_1  and  S_2
REMARK    2  A    between atoms: S_2  and  C_5
REMARK    3  A    between atoms: C_8  and  N_9
REMARK    4  A    between atoms: N_9  and  C_10
REMARK                            x       y       z     vdW  Elec       q    Type
REMARK                         _______ _______ _______ _____ _____    ______ ____
ROOT
ATOM      1  C   UNL     1       2.611   6.057  19.671  0.00  0.00    +0.000 A 
ATOM      2  N   UNL     1       3.492   6.231  18.647  0.00  0.00    +0.000 NA
ATOM      3  C   UNL     1       3.816   5.240  17.797  0.00  0.00    +0.000 A 
ATOM      4  N   UNL     1       4.647   5.546  16.747  0.00  0.00    +0.000 N 
ATOM      5  C   UNL     1       5.355   6.831  16.705  0.00  0.00    +0.000 C 
ATOM      6  C   UNL     1       6.871   6.634  16.930  0.00  0.00    +0.000 C 
ATOM      7  N   UNL     1       7.468   5.623  16.032  0.00  0.00    +0.000 NA
ATOM      8  C   UNL     1       6.738   4.350  16.185  0.00  0.00    +0.000 C 
ATOM      9  C   UNL     1       5.221   4.483  15.925  0.00  0.00    +0.000 C 
ATOM     10  N   UNL     1       3.302   3.999  17.877  0.00  0.00    +0.000 NA
ATOM     11  C   UNL     1       2.458   3.840  18.899  0.00  0.00    +0.000 A 
ATOM     12  N   UNL     1       1.768   2.709  19.219  0.00  0.00    +0.000 N 
ATOM     13  C   UNL     1       1.027   2.982  20.337  0.00  0.00    +0.000 A 
ATOM     14  N   UNL     1       1.171   4.231  20.729  0.00  0.00    +0.000 NA
ATOM     15  C   UNL     1       2.069   4.777  19.834  0.00  0.00    +0.000 A 
ATOM     16  H   UNL     1       8.444   5.485  16.288  0.00  0.00    +0.000 HD
ATOM     17  H   UNL     1       1.803   1.842  18.704  0.00  0.00    +0.000 HD
ENDROOT
BRANCH   1  18
ATOM     18  N   UNL     1       2.255   7.143  20.495  0.00  0.00    +0.000 N 
ATOM     19  H   UNL     1       2.009   6.824  21.430  0.00  0.00    +0.000 HD
BRANCH  18  23
ATOM     20  C   UNL     1      -0.008  10.447  19.182  0.00  0.00    +0.000 A 
ATOM     21  C   UNL     1      -0.142  10.012  20.498  0.00  0.00    +0.000 A 
ATOM     22  C   UNL     1       0.613   8.923  20.934  0.00  0.00    +0.000 A 
ATOM     23  C   UNL     1       1.494   8.253  20.070  0.00  0.00    +0.000 A 
ATOM     24  C   UNL     1       1.635   8.725  18.759  0.00  0.00    +0.000 A 
ATOM     25  C   UNL     1       0.878   9.812  18.309  0.00  0.00    +0.000 A 
BRANCH  20  26
ATOM     26  S   UNL     1      -0.944  11.840  18.631  0.00  0.00    +0.000 S 
ATOM     27  O   UNL     1      -1.783  11.439  17.527  0.00  0.00    +0.000 OA
ATOM     28  O   UNL     1      -0.089  13.002  18.577  0.00  0.00    +0.000 OA
BRANCH  26  29
ATOM     29  N   UNL     1      -1.969  12.111  19.935  0.00  0.00    +0.000 NA
ATOM     30  H   UNL     1      -1.533  11.763  20.790  0.00  0.00    +0.000 HD
ATOM     31  H   UNL     1      -2.888  11.712  19.747  0.00  0.00    +0.000 HD
ENDBRANCH  26  29
ENDBRANCH  20  26
ENDBRANCH  18  23
ENDBRANCH   1  18
TORSDOF 4
ENDMDL
MODEL 3
REMARK VINA RESULT:      -8.5      1.090      1.206
REMARK  Name = 
REMARK  4 active torsions:
REMARK  status: ('A' for Active; 'I' for Inactive)
REMARK    1  A    between atoms: N_1  and  S_2
REMARK    2  A    between atoms: S_2  and  C_5
REMARK    3  A    between atoms: C_8  and  N_9
REMARK    4  A    between atoms: N_9  and  C_10
REMARK                            x       y       z     vdW  Elec       q    Type
REMARK                         _______ _______ _______ _____ _____    ______ ____
ROOT
ATOM      1  C   UNL     1       2.653   5.451  19.383  0.00  0.00    +0.000 A 
ATOM      2  N   UNL     1       3.568   5.784  18.430  0.00  0.00    +0.000 NA
ATOM      3  C   UNL     1       3.857   4.976  17.394  0.00  0.00    +0.000 A 
ATOM      4  N   UNL     1       4.731   5.446  16.444  0.00  0.00    +0.000 N 
ATOM      5  C   UNL     1       5.511   6.665  16.684  0.00  0.00    +0.000 C 
ATOM      6  C   UNL     1       7.007   6.334  16.883  0.00  0.00    +0.000 C 
ATOM      7  N   UNL     1       7.570   5.501  15.799  0.00  0.00    +0.000 NA
ATOM      8  C   UNL     1       6.765   4.271  15.669  0.00  0.00    +0.000 C 
ATOM      9  C   UNL     1       5.266   4.546  15.423  0.00  0.00    +0.000 C 
ATOM     10  N   UNL     1       3.273   3.780  17.202  0.00  0.00    +0.000 NA
ATOM     11  C   UNL     1       2.395   3.461  18.157  0.00  0.00    +0.000 A 
ATOM     12  N   UNL     1       1.634   2.331  18.221  0.00  0.00    +0.000 N 
ATOM     13  C   UNL     1       0.881   2.407  19.361  0.00  0.00    +0.000 A 
ATOM     14  N   UNL     1       1.086   3.534  20.011  0.00  0.00    +0.000 NA
ATOM     15  C   UNL     1       2.035   4.201  19.263  0.00  0.00    +0.000 A 
ATOM     16  H   UNL     1       8.529   5.253  16.033  0.00  0.00    +0.000 HD
ATOM     17  H   UNL     1       1.634   1.591  17.535  0.00  0.00    +0.000 HD
ENDROOT
BRANCH   1  18
ATOM     18  N   UNL     1       2.337   6.359  20.413  0.00  0.00    +0.000 N 
ATOM     19  H   UNL     1       1.929   5.875  21.211  0.00  0.00    +0.000 HD
BRANCH  18  23
ATOM     20  C   UNL     1       0.708  10.204  19.845  0.00  0.00    +0.000 A 
ATOM     21  C   UNL     1       1.283   9.544  18.762  0.00  0.00    +0.000 A 
ATOM     22  C   UNL     1       1.816   8.268  18.949  0.00  0.00    +0.000 A 
ATOM     23  C   UNL     1       1.793   7.645  20.207  0.00  0.00    +0.000 A 
ATOM     24  C   UNL     1       1.184   8.314  21.275  0.00  0.00    +0.000 A 
ATOM     25  C   UNL     1       0.653   9.597  21.102  0.00  0.00    +0.000 A 
BRANCH  20  26
ATOM     26  S   UNL     1       0.012  11.810  19.609  0.00  0.00    +0.000 S 
ATOM     27  O   UNL     1      -0.680  11.844  18.342  0.00  0.00    +0.000 OA
ATOM     28  O   UNL     1       0.975  12.813  19.996  0.00  0.00    +0.000 OA
BRANCH  26  29
ATOM     29  N   UNL     1      -1.172  11.857  20.800  0.00  0.00    +0.000 NA
ATOM     30  H   UNL     1      -2.026  11.418  20.450  0.00  0.00    +0.000 HD
ATOM     31  H   UNL     1      -1.302  12.813  21.127  0.00  0.00    +0.000 HD
ENDBRANCH  26  29
ENDBRANCH  20  26
ENDBRANCH  18  23
ENDBRANCH   1  18
TORSDOF 4
ENDMDL
MODEL 4
REMARK VINA RESULT:      -7.8      1.546      1.628
REMARK  Name = 
REMARK  4 active torsions:
REMARK  status: ('A' for Active; 'I' for Inactive)
REMARK    1  A    between atoms: N_1  and  S_2
REMARK    2  A    between atoms: S_2  and  C_5
REMARK    3  A    between atoms: C_8  and  N_9
REMARK    4  A    between atoms: N_9  and  C_10
REMARK                            x       y       z     vdW  Elec       q    Type
REMARK                         _______ _______ _______ _____ _____    ______ ____
ROOT
ATOM      1  C   UNL     1       2.534   5.651  20.149  0.00  0.00    +0.000 A 
ATOM      2  N   UNL     1       3.349   5.953  19.099  0.00  0.00    +0.000 NA
ATOM      3  C   UNL     1       4.137   5.035  18.511  0.00  0.00    +0.000 A 
ATOM      4  N   UNL     1       4.854   5.424  17.406  0.00  0.00    +0.000 N 
ATOM      5  C   UNL     1       4.954   6.843  17.042  0.00  0.00    +0.000 C 
ATOM      6  C   UNL     1       6.383   7.376  17.285  0.00  0.00    +0.000 C 
ATOM      7  N   UNL     1       7.431   6.549  16.650  0.00  0.00    +0.000 NA
ATOM      8  C   UNL     1       7.296   5.156  17.119  0.00  0.00    +0.000 C 
ATOM      9  C   UNL     1       5.896   4.558  16.858  0.00  0.00    +0.000 C 
ATOM     10  N   UNL     1       4.191   3.748  18.898  0.00  0.00    +0.000 NA
ATOM     11  C   UNL     1       3.402   3.475  19.940  0.00  0.00    +0.000 A 
ATOM     12  N   UNL     1       3.229   2.261  20.536  0.00  0.00    +0.000 N 
ATOM     13  C   UNL     1       2.343   2.431  21.565  0.00  0.00    +0.000 A 
ATOM     14  N   UNL     1       1.910   3.674  21.640  0.00  0.00    +0.000 NA
ATOM     15  C   UNL     1       2.571   4.336  20.626  0.00  0.00    +0.000 A 
ATOM     16  H   UNL     1       8.346   6.907  16.918  0.00  0.00    +0.000 HD
ATOM     17  H   UNL     1       3.674   1.403  20.247  0.00  0.00    +0.000 HD
ENDROOT
BRANCH   1  18
ATOM     18  N   UNL     1       1.679   6.632  20.689  0.00  0.00    +0.000 N 
ATOM     19  H   UNL     1       0.773   6.232  20.926  0.00  0.00    +0.000 HD
BRANCH  18  23
ATOM     20  C   UNL     1       1.418  10.618  19.345  0.00  0.00    +0.000 A 
ATOM     21  C   UNL     1       1.826   9.627  18.456  0.00  0.00    +0.000 A 
ATOM     22  C   UNL     1       1.904   8.306  18.899  0.00  0.00    +0.000 A 
ATOM     23  C   UNL     1       1.593   7.961  20.224  0.00  0.00    +0.000 A 
ATOM     24  C   UNL     1       1.157   8.968  21.094  0.00  0.00    +0.000 A 
ATOM     25  C   UNL     1       1.081  10.297  20.663  0.00  0.00    +0.000 A 
BRANCH  20  26
ATOM     26  S   UNL     1       1.293  12.287  18.784  0.00  0.00    +0.000 S 
ATOM     27  O   UNL     1       1.876  13.164  19.772  0.00  0.00    +0.000 OA
ATOM     28  O   UNL     1      -0.019  12.510  18.224  0.00  0.00    +0.000 OA
BRANCH  26  29
ATOM     29  N   UNL     1       2.338  12.293  17.468  0.00  0.00    +0.000 NA
ATOM     30  H   UNL     1       2.315  11.380  17.010  0.00  0.00    +0.000 HD
ATOM     31  H   UNL     1       3.269  12.586  17.761  0.00  0.00    +0.000 HD
ENDBRANCH  26  29
ENDBRANCH  20  26
ENDBRANCH  18  23
ENDBRANCH   1  18
TORSDOF 4
ENDMDL
MODEL 5
REMARK VINA RESULT:      -7.6      1.965      4.340
REMARK  Name = 
REMARK  4 active torsions:
REMARK  status: ('A' for Active; 'I' for Inactive)
REMARK    1  A    between atoms: N_1  and  S_2
REMARK    2  A    between atoms: S_2  and  C_5
REMARK    3  A    between atoms: C_8  and  N_9
REMARK    4  A    between atoms: N_9  and  C_10
REMARK                            x       y       z     vdW  Elec       q    Type
REMARK                         _______ _______ _______ _____ _____    ______ ____
ROOT
ATOM      1  C   UNL     1       3.976   6.864  17.726  0.00  0.00    +0.000 A 
ATOM      2  N   UNL     1       3.354   5.805  18.316  0.00  0.00    +0.000 NA
ATOM      3  C   UNL     1       4.025   4.718  18.737  0.00  0.00    +0.000 A 
ATOM      4  N   UNL     1       3.313   3.745  19.397  0.00  0.00    +0.000 N 
ATOM      5  C   UNL     1       1.846   3.773  19.411  0.00  0.00    +0.000 C 
ATOM      6  C   UNL     1       1.264   2.627  18.553  0.00  0.00    +0.000 C 
ATOM      7  N   UNL     1       1.813   1.299  18.902  0.00  0.00    +0.000 NA
ATOM      8  C   UNL     1       3.284   1.344  18.801  0.00  0.00    +0.000 C 
ATOM      9  C   UNL     1       3.922   2.446  19.675  0.00  0.00    +0.000 C 
ATOM     10  N   UNL     1       5.358   4.578  18.620  0.00  0.00    +0.000 NA
ATOM     11  C   UNL     1       5.948   5.616  18.020  0.00  0.00    +0.000 A 
ATOM     12  N   UNL     1       7.281   5.771  17.783  0.00  0.00    +0.000 N 
ATOM     13  C   UNL     1       7.449   6.970  17.146  0.00  0.00    +0.000 A 
ATOM     14  N   UNL     1       6.306   7.610  16.994  0.00  0.00    +0.000 NA
ATOM     15  C   UNL     1       5.359   6.767  17.539  0.00  0.00    +0.000 A 
ATOM     16  H   UNL     1       1.452   0.607  18.248  0.00  0.00    +0.000 HD
ATOM     17  H   UNL     1       7.999   5.113  18.049  0.00  0.00    +0.000 HD
ENDROOT
BRANCH   1  18
ATOM     18  N   UNL     1       3.238   8.008  17.362  0.00  0.00    +0.000 N 
ATOM     19  H   UNL     1       3.789   8.618  16.761  0.00  0.00    +0.000 HD
BRANCH  18  23
ATOM     20  C   UNL     1       0.675  10.086  19.983  0.00  0.00    +0.000 A 
ATOM     21  C   UNL     1       1.022  10.670  18.768  0.00  0.00    +0.000 A 
ATOM     22  C   UNL     1       1.864   9.978  17.897  0.00  0.00    +0.000 A 
ATOM     23  C   UNL     1       2.376   8.713  18.228  0.00  0.00    +0.000 A 
ATOM     24  C   UNL     1       1.992   8.132  19.442  0.00  0.00    +0.000 A 
ATOM     25  C   UNL     1       1.153   8.819  20.327  0.00  0.00    +0.000 A 
BRANCH  20  26
ATOM     26  S   UNL     1      -0.409  10.947  21.079  0.00  0.00    +0.000 S 
ATOM     27  O   UNL     1      -0.669  10.120  22.235  0.00  0.00    +0.000 OA
ATOM     28  O   UNL     1      -1.465  11.572  20.318  0.00  0.00    +0.000 OA
BRANCH  26  29
ATOM     29  N   UNL     1       0.560  12.214  21.607  0.00  0.00    +0.000 NA
ATOM     30  H   UNL     1       1.507  11.872  21.774  0.00  0.00    +0.000 HD
ATOM     31  H   UNL     1       0.134  12.667  22.416  0.00  0.00    +0.000 HD
ENDBRANCH  26  29
ENDBRANCH  20  26
ENDBRANCH  18  23
ENDBRANCH   1  18
TORSDOF 4
ENDMDL
MODEL 6
REMARK VINA RESULT:      -7.4      1.496      1.814
REMARK  Name = 
REMARK  4 active torsions:
REMARK  status: ('A' for Active; 'I' for Inactive)
REMARK    1  A    between atoms: N_1  and  S_2
REMARK    2  A    between atoms: S_2  and  C_5
REMARK    3  A    between atoms: C_8  and  N_9
REMARK    4  A    between atoms: N_9  and  C_10
REMARK                            x       y       z     vdW  Elec       q    Type
REMARK                         _______ _______ _______ _____ _____    ______ ____
ROOT
ATOM      1  C   UNL     1       2.517   5.580  20.160  0.00  0.00    +0.000 A 
ATOM      2  N   UNL     1       3.311   5.895  19.099  0.00  0.00    +0.000 NA
ATOM      3  C   UNL     1       4.112   4.993  18.504  0.00  0.00    +0.000 A 
ATOM      4  N   UNL     1       4.806   5.393  17.388  0.00  0.00    +0.000 N 
ATOM      5  C   UNL     1       4.869   6.812  17.017  0.00  0.00    +0.000 C 
ATOM      6  C   UNL     1       6.290   7.378  17.240  0.00  0.00    +0.000 C 
ATOM      7  N   UNL     1       7.347   6.571  16.595  0.00  0.00    +0.000 NA
ATOM      8  C   UNL     1       7.249   5.178  17.071  0.00  0.00    +0.000 C 
ATOM      9  C   UNL     1       5.860   4.548  16.831  0.00  0.00    +0.000 C 
ATOM     10  N   UNL     1       4.199   3.708  18.895  0.00  0.00    +0.000 NA
ATOM     11  C   UNL     1       3.430   3.423  19.949  0.00  0.00    +0.000 A 
ATOM     12  N   UNL     1       3.291   2.208  20.552  0.00  0.00    +0.000 N 
ATOM     13  C   UNL     1       2.415   2.363  21.592  0.00  0.00    +0.000 A 
ATOM     14  N   UNL     1       1.955   3.596  21.667  0.00  0.00    +0.000 NA
ATOM     15  C   UNL     1       2.589   4.268  20.642  0.00  0.00    +0.000 A 
ATOM     16  H   UNL     1       8.257   6.951  16.849  0.00  0.00    +0.000 HD
ATOM     17  H   UNL     1       3.752   1.359  20.260  0.00  0.00    +0.000 HD
ENDROOT
BRANCH   1  18
ATOM     18  N   UNL     1       1.647   6.544  20.707  0.00  0.00    +0.000 N 
ATOM     19  H   UNL     1       0.739   6.134  20.918  0.00  0.00    +0.000 HD
BRANCH  18  23
ATOM     20  C   UNL     1       1.398  10.531  19.364  0.00  0.00    +0.000 A 
ATOM     21  C   UNL     1       1.080  10.239  20.689  0.00  0.00    +0.000 A 
ATOM     22  C   UNL     1       1.170   8.920  21.134  0.00  0.00    +0.000 A 
ATOM     23  C   UNL     1       1.563   7.883  20.273  0.00  0.00    +0.000 A 
ATOM     24  C   UNL     1       1.906   8.203  18.953  0.00  0.00    +0.000 A 
ATOM     25  C   UNL     1       1.813   9.521  18.493  0.00  0.00    +0.000 A 
BRANCH  20  26
ATOM     26  S   UNL     1       1.309  12.202  18.801  0.00  0.00    +0.000 S 
ATOM     27  O   UNL     1       2.365  12.436  17.845  0.00  0.00    +0.000 OA
ATOM     28  O   UNL     1       1.069  13.076  19.925  0.00  0.00    +0.000 OA
BRANCH  26  29
ATOM     29  N   UNL     1      -0.129  12.202  17.932  0.00  0.00    +0.000 NA
ATOM     30  H   UNL     1      -0.397  11.240  17.715  0.00  0.00    +0.000 HD
ATOM     31  H   UNL     1      -0.043  12.803  17.113  0.00  0.00    +0.000 HD
ENDBRANCH  26  29
ENDBRANCH  20  26
ENDBRANCH  18  23
ENDBRANCH   1  18
TORSDOF 4
ENDMDL
MODEL 7
REMARK VINA RESULT:      -7.3      4.363      8.108
REMARK  Name = 
REMARK  4 active torsions:
REMARK  status: ('A' for Active; 'I' for Inactive)
REMARK    1  A    between atoms: N_1  and  S_2
REMARK    2  A    between atoms: S_2  and  C_5
REMARK    3  A    between atoms: C_8  and  N_9
REMARK    4  A    between atoms: N_9  and  C_10
REMARK                            x       y       z     vdW  Elec       q    Type
REMARK                         _______ _______ _______ _____ _____    ______ ____
ROOT
ATOM      1  C   UNL     1       0.293  10.855  19.454  0.00  0.00    +0.000 A 
ATOM      2  N   UNL     1       0.938  12.001  19.808  0.00  0.00    +0.000 NA
ATOM      3  C   UNL     1       0.619  13.199  19.287  0.00  0.00    +0.000 A 
ATOM      4  N   UNL     1       1.272  14.303  19.777  0.00  0.00    +0.000 N 
ATOM      5  C   UNL     1       2.448  14.152  20.643  0.00  0.00    +0.000 C 
ATOM      6  C   UNL     1       3.735  14.588  19.908  0.00  0.00    +0.000 C 
ATOM      7  N   UNL     1       3.637  15.936  19.310  0.00  0.00    +0.000 NA
ATOM      8  C   UNL     1       2.470  15.980  18.409  0.00  0.00    +0.000 C 
ATOM      9  C   UNL     1       1.147  15.595  19.106  0.00  0.00    +0.000 C 
ATOM     10  N   UNL     1      -0.360  13.375  18.380  0.00  0.00    +0.000 NA
ATOM     11  C   UNL     1      -0.966  12.239  18.029  0.00  0.00    +0.000 A 
ATOM     12  N   UNL     1      -2.003  12.104  17.154  0.00  0.00    +0.000 N 
ATOM     13  C   UNL     1      -2.311  10.773  17.083  0.00  0.00    +0.000 A 
ATOM     14  N   UNL     1      -1.558  10.051  17.888  0.00  0.00    +0.000 NA
ATOM     15  C   UNL     1      -0.711  10.962  18.484  0.00  0.00    +0.000 A 
ATOM     16  H   UNL     1       4.483  16.126  18.775  0.00  0.00    +0.000 HD
ATOM     17  H   UNL     1      -2.455  12.864  16.667  0.00  0.00    +0.000 HD
ENDROOT
BRANCH   1  18
ATOM     18  N   UNL     1       0.621   9.634  20.076  0.00  0.00    +0.000 N 
ATOM     19  H   UNL     1       0.761   9.763  21.076  0.00  0.00    +0.000 HD
BRANCH  18  23
ATOM     20  C   UNL     1       3.148   6.681  18.447  0.00  0.00    +0.000 A 
ATOM     21  C   UNL     1       2.871   7.824  17.701  0.00  0.00    +0.000 A 
ATOM     22  C   UNL     1       2.040   8.805  18.244  0.00  0.00    +0.000 A 
ATOM     23  C   UNL     1       1.472   8.656  19.519  0.00  0.00    +0.000 A 
ATOM     24  C   UNL     1       1.787   7.512  20.263  0.00  0.00    +0.000 A 
ATOM     25  C   UNL     1       2.613   6.519  19.727  0.00  0.00    +0.000 A 
BRANCH  20  26
ATOM     26  S   UNL     1       4.218   5.448  17.774  0.00  0.00    +0.000 S 
ATOM     27  O   UNL     1       5.112   4.982  18.807  0.00  0.00    +0.000 OA
ATOM     28  O   UNL     1       4.685   5.872  16.475  0.00  0.00    +0.000 OA
BRANCH  26  29
ATOM     29  N   UNL     1       3.149   4.189  17.465  0.00  0.00    +0.000 NA
ATOM     30  H   UNL     1       2.198   4.555  17.403  0.00  0.00    +0.000 HD
ATOM     31  H   UNL     1       3.265   3.452  18.159  0.00  0.00    +0.000 HD
ENDBRANCH  26  29
ENDBRANCH  20  26
ENDBRANCH  18  23
ENDBRANCH   1  18
TORSDOF 4
ENDMDL
MODEL 8
REMARK VINA RESULT:      -7.3      4.325      8.184
REMARK  Name = 
REMARK  4 active torsions:
REMARK  status: ('A' for Active; 'I' for Inactive)
REMARK    1  A    between atoms: N_1  and  S_2
REMARK    2  A    between atoms: S_2  and  C_5
REMARK    3  A    between atoms: C_8  and  N_9
REMARK    4  A    between atoms: N_9  and  C_10
REMARK                            x       y       z     vdW  Elec       q    Type
REMARK                         _______ _______ _______ _____ _____    ______ ____
ROOT
ATOM      1  C   UNL     1       0.882   9.477  18.534  0.00  0.00    +0.000 A 
ATOM      2  N   UNL     1      -0.167  10.102  17.930  0.00  0.00    +0.000 NA
ATOM      3  C   UNL     1      -1.194  10.624  18.625  0.00  0.00    +0.000 A 
ATOM      4  N   UNL     1      -2.156  11.309  17.923  0.00  0.00    +0.000 N 
ATOM      5  C   UNL     1      -2.197  11.249  16.458  0.00  0.00    +0.000 C 
ATOM      6  C   UNL     1      -3.420  10.439  15.972  0.00  0.00    +0.000 C 
ATOM      7  N   UNL     1      -4.696  10.898  16.560  0.00  0.00    +0.000 NA
ATOM      8  C   UNL     1      -4.588  10.867  18.031  0.00  0.00    +0.000 C 
ATOM      9  C   UNL     1      -3.405  11.700  18.573  0.00  0.00    +0.000 C 
ATOM     10  N   UNL     1      -1.277  10.582  19.967  0.00  0.00    +0.000 NA
ATOM     11  C   UNL     1      -0.252   9.948  20.541  0.00  0.00    +0.000 A 
ATOM     12  N   UNL     1      -0.049   9.767  21.877  0.00  0.00    +0.000 N 
ATOM     13  C   UNL     1       1.115   9.063  22.025  0.00  0.00    +0.000 A 
ATOM     14  N   UNL     1       1.690   8.815  20.865  0.00  0.00    +0.000 NA
ATOM     15  C   UNL     1       0.838   9.365  19.929  0.00  0.00    +0.000 A 
ATOM     16  H   UNL     1      -5.443  10.274  16.264  0.00  0.00    +0.000 HD
ATOM     17  H   UNL     1      -0.654  10.109  22.608  0.00  0.00    +0.000 HD
ENDROOT
BRANCH   1  18
ATOM     18  N   UNL     1       1.964   9.004  17.767  0.00  0.00    +0.000 N 
ATOM     19  H   UNL     1       1.907   9.346  16.809  0.00  0.00    +0.000 HD
BRANCH  18  23
ATOM     20  C   UNL     1       3.612   5.135  18.045  0.00  0.00    +0.000 A 
ATOM     21  C   UNL     1       2.239   5.301  18.204  0.00  0.00    +0.000 A 
ATOM     22  C   UNL     1       1.693   6.581  18.104  0.00  0.00    +0.000 A 
ATOM     23  C   UNL     1       2.502   7.702  17.859  0.00  0.00    +0.000 A 
ATOM     24  C   UNL     1       3.876   7.510  17.674  0.00  0.00    +0.000 A 
ATOM     25  C   UNL     1       4.436   6.231  17.779  0.00  0.00    +0.000 A 
BRANCH  20  26
ATOM     26  S   UNL     1       4.306   3.514  18.148  0.00  0.00    +0.000 S 
ATOM     27  O   UNL     1       3.277   2.541  17.868  0.00  0.00    +0.000 OA
ATOM     28  O   UNL     1       5.162   3.430  19.307  0.00  0.00    +0.000 OA
BRANCH  26  29
ATOM     29  N   UNL     1       5.349   3.496  16.831  0.00  0.00    +0.000 NA
ATOM     30  H   UNL     1       5.275   2.599  16.349  0.00  0.00    +0.000 HD
ATOM     31  H   UNL     1       6.295   3.729  17.131  0.00  0.00    +0.000 HD
ENDBRANCH  26  29
ENDBRANCH  20  26
ENDBRANCH  18  23
ENDBRANCH   1  18
TORSDOF 4
ENDMDL
MODEL 9
REMARK VINA RESULT:      -7.3      4.346      8.136
REMARK  Name = 
REMARK  4 active torsions:
REMARK  status: ('A' for Active; 'I' for Inactive)
REMARK    1  A    between atoms: N_1  and  S_2
REMARK    2  A    between atoms: S_2  and  C_5
REMARK    3  A    between atoms: C_8  and  N_9
REMARK    4  A    between atoms: N_9  and  C_10
REMARK                            x       y       z     vdW  Elec       q    Type
REMARK                         _______ _______ _______ _____ _____    ______ ____
ROOT
ATOM      1  C   UNL     1       0.284  10.869  19.567  0.00  0.00    +0.000 A 
ATOM      2  N   UNL     1       0.960  12.014  19.865  0.00  0.00    +0.000 NA
ATOM      3  C   UNL     1       0.604  13.212  19.367  0.00  0.00    +0.000 A 
ATOM      4  N   UNL     1       1.300  14.314  19.799  0.00  0.00    +0.000 N 
ATOM      5  C   UNL     1       2.541  14.160  20.568  0.00  0.00    +0.000 C 
ATOM      6  C   UNL     1       3.767  14.589  19.731  0.00  0.00    +0.000 C 
ATOM      7  N   UNL     1       3.626  15.935  19.137  0.00  0.00    +0.000 NA
ATOM      8  C   UNL     1       2.390  15.982  18.333  0.00  0.00    +0.000 C 
ATOM      9  C   UNL     1       1.126  15.605  19.136  0.00  0.00    +0.000 C 
ATOM     10  N   UNL     1      -0.443  13.389  18.541  0.00  0.00    +0.000 NA
ATOM     11  C   UNL     1      -1.081  12.254  18.244  0.00  0.00    +0.000 A 
ATOM     12  N   UNL     1      -2.185  12.122  17.456  0.00  0.00    +0.000 N 
ATOM     13  C   UNL     1      -2.503  10.791  17.414  0.00  0.00    +0.000 A 
ATOM     14  N   UNL     1      -1.691  10.069  18.159  0.00  0.00    +0.000 NA
ATOM     15  C   UNL     1      -0.795  10.978  18.682  0.00  0.00    +0.000 A 
ATOM     16  H   UNL     1       4.427  16.119  18.535  0.00  0.00    +0.000 HD
ATOM     17  H   UNL     1      -2.671  12.882  17.004  0.00  0.00    +0.000 HD
ENDROOT
BRANCH   1  18
ATOM     18  N   UNL     1       0.655   9.649  20.166  0.00  0.00    +0.000 N 
ATOM     19  H   UNL     1       0.853   9.776  21.157  0.00  0.00    +0.000 HD
BRANCH  18  23
ATOM     20  C   UNL     1       3.126   6.780  18.315  0.00  0.00    +0.000 A 
ATOM     21  C   UNL     1       2.638   6.531  19.595  0.00  0.00    +0.000 A 
ATOM     22  C   UNL     1       1.814   7.478  20.204  0.00  0.00    +0.000 A 
ATOM     23  C   UNL     1       1.479   8.678  19.557  0.00  0.00    +0.000 A 
ATOM     24  C   UNL     1       1.956   8.895  18.259  0.00  0.00    +0.000 A 
ATOM     25  C   UNL     1       2.790   7.956  17.640  0.00  0.00    +0.000 A 
BRANCH  20  26
ATOM     26  S   UNL     1       4.151   5.575  17.530  0.00  0.00    +0.000 S 
ATOM     27  O   UNL     1       4.900   6.209  16.471  0.00  0.00    +0.000 OA
ATOM     28  O   UNL     1       3.397   4.360  17.329  0.00  0.00    +0.000 OA
BRANCH  26  29
ATOM     29  N   UNL     1       5.255   5.211  18.743  0.00  0.00    +0.000 NA
ATOM     30  H   UNL     1       4.887   4.456  19.324  0.00  0.00    +0.000 HD
ATOM     31  H   UNL     1       5.496   6.054  19.262  0.00  0.00    +0.000 HD
ENDBRANCH  26  29
ENDBRANCH  20  26
ENDBRANCH  18  23
ENDBRANCH   1  18
TORSDOF 4
ENDMDL
