MODEL 1
REMARK VINA RESULT:      -7.9      0.000      0.000
REMARK  Name = 
REMARK  8 active torsions:
REMARK  status: ('A' for Active; 'I' for Inactive)
REMARK    1  A    between atoms: C_1  and  C_2
REMARK    2  A    between atoms: C_2  and  O_3
REMARK    3  A    between atoms: O_3  and  C_4
REMARK    4  A    between atoms: C_6  and  C_7
REMARK    5  A    between atoms: N_8  and  N_9
REMARK    6  A    between atoms: C_10  and  C_12
REMARK    7  A    between atoms: C_18  and  C_20
REMARK    8  A    between atoms: C_28  and  O_29
REMARK                            x       y       z     vdW  Elec       q    Type
REMARK                         _______ _______ _______ _____ _____    ______ ____
ROOT
ATOM      1  N   UNL     1       4.940   4.727  18.791  0.00  0.00    +0.000 N 
ATOM      2  C   UNL     1       6.271   4.900  18.337  0.00  0.00    +0.000 C 
ATOM      3  O   UNL     1       7.057   3.957  18.184  0.00  0.00    +0.000 OA
ATOM      4  C   UNL     1       4.318   3.463  18.643  0.00  0.00    +0.000 C 
ATOM      5  O   UNL     1       4.793   2.508  18.025  0.00  0.00    +0.000 OA
ENDROOT
BRANCH   2   6
ATOM      6  C   UNL     1       6.872   6.250  18.120  0.00  0.00    +0.000 A 
ATOM      7  C   UNL     1       7.995   6.582  18.906  0.00  0.00    +0.000 A 
ATOM      8  C   UNL     1       8.601   7.835  18.805  0.00  0.00    +0.000 A 
ATOM      9  C   UNL     1       8.087   8.782  17.923  0.00  0.00    +0.000 A 
ATOM     10  C   UNL     1       6.993   8.459  17.118  0.00  0.00    +0.000 A 
ATOM     11  C   UNL     1       6.410   7.188  17.191  0.00  0.00    +0.000 A 
ENDBRANCH   2   6
BRANCH   4  12
ATOM     12  C   UNL     1       2.952   3.226  19.228  0.00  0.00    +0.000 A 
ATOM     13  C   UNL     1       1.910   2.917  18.348  0.00  0.00    +0.000 A 
ATOM     14  C   UNL     1       0.639   2.728  18.865  0.00  0.00    +0.000 A 
ATOM     15  N   UNL     1       0.342   2.831  20.177  0.00  0.00    +0.000 NA
ATOM     16  C   UNL     1       1.368   3.083  21.013  0.00  0.00    +0.000 A 
ATOM     17  C   UNL     1       2.679   3.245  20.596  0.00  0.00    +0.000 A 
ENDBRANCH   4  12
BRANCH   1  19
ATOM     18  C   UNL     1       3.259   6.257  18.357  0.00  0.00    +0.000 C 
ATOM     19  N   UNL     1       4.120   5.774  19.196  0.00  0.00    +0.000 NA
BRANCH  18  22
ATOM     20  C   UNL     1       1.273   8.737  20.415  0.00  0.00    +0.000 A 
ATOM     21  C   UNL     1       1.964   7.582  20.034  0.00  0.00    +0.000 A 
ATOM     22  C   UNL     1       2.433   7.425  18.724  0.00  0.00    +0.000 A 
ATOM     23  C   UNL     1       2.187   8.409  17.770  0.00  0.00    +0.000 A 
ATOM     24  C   UNL     1       1.481   9.557  18.136  0.00  0.00    +0.000 A 
ATOM     25  C   UNL     1       1.039   9.728  19.456  0.00  0.00    +0.000 A 
BRANCH  25  26
ATOM     26  O   UNL     1       0.414  10.897  19.783  0.00  0.00    +0.000 OA
ATOM     27  H   UNL     1      -0.195  10.743  20.524  0.00  0.00    +0.000 HD
ENDBRANCH  25  26
BRANCH  20  28
ATOM     28  O   UNL     1       0.991   8.779  21.753  0.00  0.00    +0.000 OA
BRANCH  28  30
ATOM     29  C   UNL     1      -0.544   9.967  23.120  0.00  0.00    +0.000 C 
ATOM     30  C   UNL     1      -0.377   8.805  22.154  0.00  0.00    +0.000 C 
ENDBRANCH  28  30
ENDBRANCH  20  28
ENDBRANCH  18  22
ENDBRANCH   1  19
TORSDOF 7
ENDMDL
MODEL 2
REMARK VINA RESULT:      -7.6      0.994      5.230
REMARK  Name = 
REMARK  8 active torsions:
REMARK  status: ('A' for Active; 'I' for Inactive)
REMARK    1  A    between atoms: C_1  and  C_2
REMARK    2  A    between atoms: C_2  and  O_3
REMARK    3  A    between atoms: O_3  and  C_4
REMARK    4  A    between atoms: C_6  and  C_7
REMARK    5  A    between atoms: N_8  and  N_9
REMARK    6  A    between atoms: C_10  and  C_12
REMARK    7  A    between atoms: C_18  and  C_20
REMARK    8  A    between atoms: C_28  and  O_29
REMARK                            x       y       z     vdW  Elec       q    Type
REMARK                         _______ _______ _______ _____ _____    ______ ____
ROOT
ATOM      1  N   UNL     1       4.875   4.755  18.536  0.00  0.00    +0.000 N 
ATOM      2  C   UNL     1       4.311   3.457  18.580  0.00  0.00    +0.000 C 
ATOM      3  O   UNL     1       4.827   2.480  18.022  0.00  0.00    +0.000 OA
ATOM      4  C   UNL     1       6.257   4.899  18.259  0.00  0.00    +0.000 C 
ATOM      5  O   UNL     1       7.064   3.971  18.177  0.00  0.00    +0.000 OA
ENDROOT
BRANCH   2   6
ATOM      6  C   UNL     1       2.982   3.183  19.205  0.00  0.00    +0.000 A 
ATOM      7  C   UNL     1       1.938   2.798  18.340  0.00  0.00    +0.000 A 
ATOM      8  C   UNL     1       0.650   2.561  18.823  0.00  0.00    +0.000 A 
ATOM      9  C   UNL     1       0.384   2.716  20.181  0.00  0.00    +0.000 A 
ATOM     10  C   UNL     1       1.413   3.070  21.055  0.00  0.00    +0.000 A 
ATOM     11  C   UNL     1       2.713   3.268  20.575  0.00  0.00    +0.000 A 
ENDBRANCH   2   6
BRANCH   4  12
ATOM     12  C   UNL     1       6.848   6.273  18.087  0.00  0.00    +0.000 A 
ATOM     13  C   UNL     1       7.979   6.596  18.843  0.00  0.00    +0.000 A 
ATOM     14  C   UNL     1       8.517   7.867  18.723  0.00  0.00    +0.000 A 
ATOM     15  N   UNL     1       8.008   8.822  17.917  0.00  0.00    +0.000 NA
ATOM     16  C   UNL     1       6.947   8.475  17.162  0.00  0.00    +0.000 A 
ATOM     17  C   UNL     1       6.366   7.218  17.181  0.00  0.00    +0.000 A 
ENDBRANCH   4  12
BRANCH   1  19
ATOM     18  C   UNL     1       3.089   6.217  18.365  0.00  0.00    +0.000 C 
ATOM     19  N   UNL     1       4.205   5.903  18.944  0.00  0.00    +0.000 NA
BRANCH  18  22
ATOM     20  C   UNL     1       1.347   8.912  20.373  0.00  0.00    +0.000 A 
ATOM     21  C   UNL     1       1.909   7.684  20.007  0.00  0.00    +0.000 A 
ATOM     22  C   UNL     1       2.396   7.474  18.712  0.00  0.00    +0.000 A 
ATOM     23  C   UNL     1       2.298   8.481  17.756  0.00  0.00    +0.000 A 
ATOM     24  C   UNL     1       1.720   9.703  18.105  0.00  0.00    +0.000 A 
ATOM     25  C   UNL     1       1.261   9.924  19.411  0.00  0.00    +0.000 A 
BRANCH  25  26
ATOM     26  O   UNL     1       0.768  11.159  19.724  0.00  0.00    +0.000 OA
ATOM     27  H   UNL     1       1.261  11.523  20.478  0.00  0.00    +0.000 HD
ENDBRANCH  25  26
BRANCH  20  28
ATOM     28  O   UNL     1       1.031   8.985  21.701  0.00  0.00    +0.000 OA
BRANCH  28  30
ATOM     29  C   UNL     1      -0.617  10.034  23.052  0.00  0.00    +0.000 C 
ATOM     30  C   UNL     1      -0.343   8.902  22.074  0.00  0.00    +0.000 C 
ENDBRANCH  28  30
ENDBRANCH  20  28
ENDBRANCH  18  22
ENDBRANCH   1  19
TORSDOF 7
ENDMDL
MODEL 3
REMARK VINA RESULT:      -7.3      0.911      1.924
REMARK  Name = 
REMARK  8 active torsions:
REMARK  status: ('A' for Active; 'I' for Inactive)
REMARK    1  A    between atoms: C_1  and  C_2
REMARK    2  A    between atoms: C_2  and  O_3
REMARK    3  A    between atoms: O_3  and  C_4
REMARK    4  A    between atoms: C_6  and  C_7
REMARK    5  A    between atoms: N_8  and  N_9
REMARK    6  A    between atoms: C_10  and  C_12
REMARK    7  A    between atoms: C_18  and  C_20
REMARK    8  A    between atoms: C_28  and  O_29
REMARK                            x       y       z     vdW  Elec       q    Type
REMARK                         _______ _______ _______ _____ _____    ______ ____
ROOT
ATOM      1  N   UNL     1       4.920   4.654  18.611  0.00  0.00    +0.000 N 
ATOM      2  C   UNL     1       6.206   4.868  18.056  0.00  0.00    +0.000 C 
ATOM      3  O   UNL     1       6.942   3.944  17.689  0.00  0.00    +0.000 OA
ATOM      4  C   UNL     1       4.246   3.437  18.345  0.00  0.00    +0.000 C 
ATOM      5  O   UNL     1       4.627   2.576  17.550  0.00  0.00    +0.000 OA
ENDROOT
BRANCH   2   6
ATOM      6  C   UNL     1       6.828   6.224  17.978  0.00  0.00    +0.000 A 
ATOM      7  C   UNL     1       7.928   6.471  18.825  0.00  0.00    +0.000 A 
ATOM      8  C   UNL     1       8.550   7.720  18.854  0.00  0.00    +0.000 A 
ATOM      9  C   UNL     1       8.074   8.747  18.044  0.00  0.00    +0.000 A 
ATOM     10  C   UNL     1       7.003   8.511  17.180  0.00  0.00    +0.000 A 
ATOM     11  C   UNL     1       6.405   7.247  17.122  0.00  0.00    +0.000 A 
ENDBRANCH   2   6
BRANCH   4  12
ATOM     12  C   UNL     1       2.936   3.141  19.024  0.00  0.00    +0.000 A 
ATOM     13  C   UNL     1       1.815   2.929  18.215  0.00  0.00    +0.000 A 
ATOM     14  C   UNL     1       0.594   2.688  18.823  0.00  0.00    +0.000 A 
ATOM     15  N   UNL     1       0.418   2.652  20.160  0.00  0.00    +0.000 NA
ATOM     16  C   UNL     1       1.519   2.812  20.921  0.00  0.00    +0.000 A 
ATOM     17  C   UNL     1       2.788   3.015  20.405  0.00  0.00    +0.000 A 
ENDBRANCH   4  12
BRANCH   1  19
ATOM     18  C   UNL     1       3.209   6.211  18.600  0.00  0.00    +0.000 C 
ATOM     19  N   UNL     1       4.178   5.644  19.245  0.00  0.00    +0.000 NA
BRANCH  18  22
ATOM     20  C   UNL     1       1.437   9.529  19.027  0.00  0.00    +0.000 A 
ATOM     21  C   UNL     1       2.238   8.511  18.498  0.00  0.00    +0.000 A 
ATOM     22  C   UNL     1       2.456   7.326  19.210  0.00  0.00    +0.000 A 
ATOM     23  C   UNL     1       1.901   7.158  20.476  0.00  0.00    +0.000 A 
ATOM     24  C   UNL     1       1.117   8.176  21.021  0.00  0.00    +0.000 A 
ATOM     25  C   UNL     1       0.872   9.350  20.294  0.00  0.00    +0.000 A 
BRANCH  25  26
ATOM     26  O   UNL     1       0.042  10.288  20.839  0.00  0.00    +0.000 OA
ATOM     27  H   UNL     1      -0.606   9.851  21.417  0.00  0.00    +0.000 HD
ENDBRANCH  25  26
BRANCH  20  28
ATOM     28  O   UNL     1       1.233  10.562  18.154  0.00  0.00    +0.000 OA
BRANCH  28  30
ATOM     29  C   UNL     1       1.930  12.671  18.994  0.00  0.00    +0.000 C 
ATOM     30  C   UNL     1       2.256  11.547  18.024  0.00  0.00    +0.000 C 
ENDBRANCH  28  30
ENDBRANCH  20  28
ENDBRANCH  18  22
ENDBRANCH   1  19
TORSDOF 7
ENDMDL
MODEL 4
REMARK VINA RESULT:      -7.1      0.931      1.852
REMARK  Name = 
REMARK  8 active torsions:
REMARK  status: ('A' for Active; 'I' for Inactive)
REMARK    1  A    between atoms: C_1  and  C_2
REMARK    2  A    between atoms: C_2  and  O_3
REMARK    3  A    between atoms: O_3  and  C_4
REMARK    4  A    between atoms: C_6  and  C_7
REMARK    5  A    between atoms: N_8  and  N_9
REMARK    6  A    between atoms: C_10  and  C_12
REMARK    7  A    between atoms: C_18  and  C_20
REMARK    8  A    between atoms: C_28  and  O_29
REMARK                            x       y       z     vdW  Elec       q    Type
REMARK                         _______ _______ _______ _____ _____    ______ ____
ROOT
ATOM      1  N   UNL     1       4.859   4.710  18.471  0.00  0.00    +0.000 N 
ATOM      2  C   UNL     1       6.126   4.955  17.888  0.00  0.00    +0.000 C 
ATOM      3  O   UNL     1       6.856   4.052  17.460  0.00  0.00    +0.000 OA
ATOM      4  C   UNL     1       4.183   3.501  18.174  0.00  0.00    +0.000 C 
ATOM      5  O   UNL     1       4.544   2.676  17.333  0.00  0.00    +0.000 OA
ENDROOT
BRANCH   2   6
ATOM      6  C   UNL     1       6.738   6.317  17.848  0.00  0.00    +0.000 A 
ATOM      7  C   UNL     1       7.873   6.529  18.657  0.00  0.00    +0.000 A 
ATOM      8  C   UNL     1       8.491   7.779  18.719  0.00  0.00    +0.000 A 
ATOM      9  C   UNL     1       7.975   8.842  17.982  0.00  0.00    +0.000 A 
ATOM     10  C   UNL     1       6.869   8.641  17.155  0.00  0.00    +0.000 A 
ATOM     11  C   UNL     1       6.274   7.377  17.062  0.00  0.00    +0.000 A 
ENDBRANCH   2   6
BRANCH   4  12
ATOM     12  C   UNL     1       2.895   3.168  18.878  0.00  0.00    +0.000 A 
ATOM     13  C   UNL     1       1.750   2.991  18.096  0.00  0.00    +0.000 A 
ATOM     14  C   UNL     1       0.549   2.717  18.729  0.00  0.00    +0.000 A 
ATOM     15  N   UNL     1       0.415   2.617  20.068  0.00  0.00    +0.000 NA
ATOM     16  C   UNL     1       1.539   2.744  20.801  0.00  0.00    +0.000 A 
ATOM     17  C   UNL     1       2.791   2.975  20.256  0.00  0.00    +0.000 A 
ENDBRANCH   4  12
BRANCH   1  19
ATOM     18  C   UNL     1       3.143   6.258  18.574  0.00  0.00    +0.000 C 
ATOM     19  N   UNL     1       4.131   5.668  19.168  0.00  0.00    +0.000 NA
BRANCH  18  22
ATOM     20  C   UNL     1       1.184   9.446  19.150  0.00  0.00    +0.000 A 
ATOM     21  C   UNL     1       1.976   8.467  18.540  0.00  0.00    +0.000 A 
ATOM     22  C   UNL     1       2.404   7.342  19.253  0.00  0.00    +0.000 A 
ATOM     23  C   UNL     1       2.071   7.197  20.598  0.00  0.00    +0.000 A 
ATOM     24  C   UNL     1       1.298   8.179  21.222  0.00  0.00    +0.000 A 
ATOM     25  C   UNL     1       0.843   9.291  20.498  0.00  0.00    +0.000 A 
BRANCH  25  26
ATOM     26  O   UNL     1       0.032  10.188  21.132  0.00  0.00    +0.000 OA
ATOM     27  H   UNL     1      -0.773  10.325  20.606  0.00  0.00    +0.000 HD
ENDBRANCH  25  26
BRANCH  20  28
ATOM     28  O   UNL     1       0.759  10.413  18.282  0.00  0.00    +0.000 OA
BRANCH  28  30
ATOM     29  C   UNL     1      -1.414   9.975  17.430  0.00  0.00    +0.000 C 
ATOM     30  C   UNL     1      -0.596  10.849  18.367  0.00  0.00    +0.000 C 
ENDBRANCH  28  30
ENDBRANCH  20  28
ENDBRANCH  18  22
ENDBRANCH   1  19
TORSDOF 7
ENDMDL
MODEL 5
REMARK VINA RESULT:      -7.0      0.950      2.290
REMARK  Name = 
REMARK  8 active torsions:
REMARK  status: ('A' for Active; 'I' for Inactive)
REMARK    1  A    between atoms: C_1  and  C_2
REMARK    2  A    between atoms: C_2  and  O_3
REMARK    3  A    between atoms: O_3  and  C_4
REMARK    4  A    between atoms: C_6  and  C_7
REMARK    5  A    between atoms: N_8  and  N_9
REMARK    6  A    between atoms: C_10  and  C_12
REMARK    7  A    between atoms: C_18  and  C_20
REMARK    8  A    between atoms: C_28  and  O_29
REMARK                            x       y       z     vdW  Elec       q    Type
REMARK                         _______ _______ _______ _____ _____    ______ ____
ROOT
ATOM      1  N   UNL     1       4.989   4.708  18.472  0.00  0.00    +0.000 N 
ATOM      2  C   UNL     1       6.294   4.952  17.979  0.00  0.00    +0.000 C 
ATOM      3  O   UNL     1       7.038   4.053  17.568  0.00  0.00    +0.000 OA
ATOM      4  C   UNL     1       4.318   3.519  18.092  0.00  0.00    +0.000 C 
ATOM      5  O   UNL     1       4.722   2.717  17.248  0.00  0.00    +0.000 OA
ENDROOT
BRANCH   2   6
ATOM      6  C   UNL     1       6.925   6.306  18.025  0.00  0.00    +0.000 A 
ATOM      7  C   UNL     1       6.370   7.297  17.190  0.00  0.00    +0.000 A 
ATOM      8  C   UNL     1       6.916   8.580  17.132  0.00  0.00    +0.000 A 
ATOM      9  C   UNL     1       8.034   8.890  17.902  0.00  0.00    +0.000 A 
ATOM     10  C   UNL     1       8.578   7.929  18.755  0.00  0.00    +0.000 A 
ATOM     11  C   UNL     1       8.006   6.654  18.843  0.00  0.00    +0.000 A 
ENDBRANCH   2   6
BRANCH   4  12
ATOM     12  C   UNL     1       2.983   3.184  18.701  0.00  0.00    +0.000 A 
ATOM     13  C   UNL     1       2.945   2.892  20.068  0.00  0.00    +0.000 A 
ATOM     14  C   UNL     1       1.731   2.549  20.640  0.00  0.00    +0.000 A 
ATOM     15  N   UNL     1       0.574   2.472  19.950  0.00  0.00    +0.000 NA
ATOM     16  C   UNL     1       0.624   2.803  18.644  0.00  0.00    +0.000 A 
ATOM     17  C   UNL     1       1.781   3.199  17.994  0.00  0.00    +0.000 A 
ENDBRANCH   4  12
BRANCH   1  19
ATOM     18  C   UNL     1       3.261   6.245  18.532  0.00  0.00    +0.000 C 
ATOM     19  N   UNL     1       4.231   5.653  19.153  0.00  0.00    +0.000 NA
BRANCH  18  22
ATOM     20  C   UNL     1       1.404   9.493  19.111  0.00  0.00    +0.000 A 
ATOM     21  C   UNL     1       2.222   8.517  18.530  0.00  0.00    +0.000 A 
ATOM     22  C   UNL     1       2.491   7.316  19.196  0.00  0.00    +0.000 A 
ATOM     23  C   UNL     1       1.972   7.089  20.468  0.00  0.00    +0.000 A 
ATOM     24  C   UNL     1       1.171   8.066  21.065  0.00  0.00    +0.000 A 
ATOM     25  C   UNL     1       0.875   9.255  20.384  0.00  0.00    +0.000 A 
BRANCH  25  26
ATOM     26  O   UNL     1       0.031  10.149  20.979  0.00  0.00    +0.000 OA
ATOM     27  H   UNL     1      -0.264   9.796  21.835  0.00  0.00    +0.000 HD
ENDBRANCH  25  26
BRANCH  20  28
ATOM     28  O   UNL     1       1.150  10.548  18.279  0.00  0.00    +0.000 OA
BRANCH  28  30
ATOM     29  C   UNL     1       1.757  12.731  18.989  0.00  0.00    +0.000 C 
ATOM     30  C   UNL     1       2.158  11.545  18.126  0.00  0.00    +0.000 C 
ENDBRANCH  28  30
ENDBRANCH  20  28
ENDBRANCH  18  22
ENDBRANCH   1  19
TORSDOF 7
ENDMDL
MODEL 6
REMARK VINA RESULT:      -6.9      1.372      5.601
REMARK  Name = 
REMARK  8 active torsions:
REMARK  status: ('A' for Active; 'I' for Inactive)
REMARK    1  A    between atoms: C_1  and  C_2
REMARK    2  A    between atoms: C_2  and  O_3
REMARK    3  A    between atoms: O_3  and  C_4
REMARK    4  A    between atoms: C_6  and  C_7
REMARK    5  A    between atoms: N_8  and  N_9
REMARK    6  A    between atoms: C_10  and  C_12
REMARK    7  A    between atoms: C_18  and  C_20
REMARK    8  A    between atoms: C_28  and  O_29
REMARK                            x       y       z     vdW  Elec       q    Type
REMARK                         _______ _______ _______ _____ _____    ______ ____
ROOT
ATOM      1  N   UNL     1       4.828   4.739  18.386  0.00  0.00    +0.000 N 
ATOM      2  C   UNL     1       4.233   3.455  18.322  0.00  0.00    +0.000 C 
ATOM      3  O   UNL     1       4.675   2.543  17.612  0.00  0.00    +0.000 OA
ATOM      4  C   UNL     1       6.188   4.889  18.016  0.00  0.00    +0.000 C 
ATOM      5  O   UNL     1       6.958   3.963  17.758  0.00  0.00    +0.000 OA
ENDROOT
BRANCH   2   6
ATOM      6  C   UNL     1       2.951   3.133  19.017  0.00  0.00    +0.000 A 
ATOM      7  C   UNL     1       1.833   2.864  18.201  0.00  0.00    +0.000 A 
ATOM      8  C   UNL     1       0.582   2.594  18.757  0.00  0.00    +0.000 A 
ATOM      9  C   UNL     1       0.426   2.599  20.141  0.00  0.00    +0.000 A 
ATOM     10  C   UNL     1       1.529   2.835  20.964  0.00  0.00    +0.000 A 
ATOM     11  C   UNL     1       2.792   3.066  20.406  0.00  0.00    +0.000 A 
ENDBRANCH   2   6
BRANCH   4  12
ATOM     12  C   UNL     1       6.802   6.262  17.960  0.00  0.00    +0.000 A 
ATOM     13  C   UNL     1       7.928   6.506  18.752  0.00  0.00    +0.000 A 
ATOM     14  C   UNL     1       8.487   7.773  18.738  0.00  0.00    +0.000 A 
ATOM     15  N   UNL     1       8.003   8.797  18.006  0.00  0.00    +0.000 NA
ATOM     16  C   UNL     1       6.946   8.528  17.213  0.00  0.00    +0.000 A 
ATOM     17  C   UNL     1       6.346   7.284  17.126  0.00  0.00    +0.000 A 
ENDBRANCH   4  12
BRANCH   1  19
ATOM     18  C   UNL     1       3.055   6.213  18.570  0.00  0.00    +0.000 C 
ATOM     19  N   UNL     1       4.226   5.841  18.981  0.00  0.00    +0.000 NA
BRANCH  18  22
ATOM     20  C   UNL     1       1.648   9.719  18.819  0.00  0.00    +0.000 A 
ATOM     21  C   UNL     1       2.338   8.596  18.349  0.00  0.00    +0.000 A 
ATOM     22  C   UNL     1       2.424   7.431  19.118  0.00  0.00    +0.000 A 
ATOM     23  C   UNL     1       1.846   7.384  20.384  0.00  0.00    +0.000 A 
ATOM     24  C   UNL     1       1.172   8.506  20.872  0.00  0.00    +0.000 A 
ATOM     25  C   UNL     1       1.059   9.663  20.087  0.00  0.00    +0.000 A 
BRANCH  25  26
ATOM     26  O   UNL     1       0.332  10.709  20.577  0.00  0.00    +0.000 OA
ATOM     27  H   UNL     1      -0.557  10.699  20.184  0.00  0.00    +0.000 HD
ENDBRANCH  25  26
BRANCH  20  28
ATOM     28  O   UNL     1       1.562  10.724  17.896  0.00  0.00    +0.000 OA
BRANCH  28  30
ATOM     29  C   UNL     1       1.613  13.057  18.336  0.00  0.00    +0.000 C 
ATOM     30  C   UNL     1       2.453  11.830  18.019  0.00  0.00    +0.000 C 
ENDBRANCH  28  30
ENDBRANCH  20  28
ENDBRANCH  18  22
ENDBRANCH   1  19
TORSDOF 7
ENDMDL
MODEL 7
REMARK VINA RESULT:      -6.9      5.034      8.387
REMARK  Name = 
REMARK  8 active torsions:
REMARK  status: ('A' for Active; 'I' for Inactive)
REMARK    1  A    between atoms: C_1  and  C_2
REMARK    2  A    between atoms: C_2  and  O_3
REMARK    3  A    between atoms: O_3  and  C_4
REMARK    4  A    between atoms: C_6  and  C_7
REMARK    5  A    between atoms: N_8  and  N_9
REMARK    6  A    between atoms: C_10  and  C_12
REMARK    7  A    between atoms: C_18  and  C_20
REMARK    8  A    between atoms: C_28  and  O_29
REMARK                            x       y       z     vdW  Elec       q    Type
REMARK                         _______ _______ _______ _____ _____    ______ ____
ROOT
ATOM      1  N   UNL     1      -0.132  10.778  21.029  0.00  0.00    +0.000 N 
ATOM      2  C   UNL     1       0.945   9.881  21.232  0.00  0.00    +0.000 C 
ATOM      3  O   UNL     1       1.630   9.873  22.262  0.00  0.00    +0.000 OA
ATOM      4  C   UNL     1      -0.756  11.373  22.153  0.00  0.00    +0.000 C 
ATOM      5  O   UNL     1      -0.529  11.079  23.327  0.00  0.00    +0.000 OA
ENDROOT
BRANCH   2   6
ATOM      6  C   UNL     1       1.419   8.947  20.166  0.00  0.00    +0.000 A 
ATOM      7  C   UNL     1       1.743   7.634  20.566  0.00  0.00    +0.000 A 
ATOM      8  C   UNL     1       2.233   6.701  19.652  0.00  0.00    +0.000 A 
ATOM      9  C   UNL     1       2.418   7.069  18.321  0.00  0.00    +0.000 A 
ATOM     10  C   UNL     1       2.075   8.356  17.903  0.00  0.00    +0.000 A 
ATOM     11  C   UNL     1       1.545   9.279  18.813  0.00  0.00    +0.000 A 
ENDBRANCH   2   6
BRANCH   4  12
ATOM     12  C   UNL     1      -1.819  12.420  21.953  0.00  0.00    +0.000 A 
ATOM     13  C   UNL     1      -3.041  12.243  22.608  0.00  0.00    +0.000 A 
ATOM     14  C   UNL     1      -4.042  13.179  22.410  0.00  0.00    +0.000 A 
ATOM     15  N   UNL     1      -3.910  14.258  21.611  0.00  0.00    +0.000 NA
ATOM     16  C   UNL     1      -2.709  14.436  21.027  0.00  0.00    +0.000 A 
ATOM     17  C   UNL     1      -1.635  13.579  21.198  0.00  0.00    +0.000 A 
ENDBRANCH   4  12
BRANCH   1  19
ATOM     18  C   UNL     1      -1.789  10.242  19.505  0.00  0.00    +0.000 C 
ATOM     19  N   UNL     1      -0.758  10.968  19.802  0.00  0.00    +0.000 NA
BRANCH  18  22
ATOM     20  C   UNL     1      -4.136  11.317  16.737  0.00  0.00    +0.000 A 
ATOM     21  C   UNL     1      -3.588  11.116  18.008  0.00  0.00    +0.000 A 
ATOM     22  C   UNL     1      -2.425  10.356  18.177  0.00  0.00    +0.000 A 
ATOM     23  C   UNL     1      -1.813   9.759  17.078  0.00  0.00    +0.000 A 
ATOM     24  C   UNL     1      -2.364   9.937  15.807  0.00  0.00    +0.000 A 
ATOM     25  C   UNL     1      -3.511  10.725  15.634  0.00  0.00    +0.000 A 
BRANCH  25  26
ATOM     26  O   UNL     1      -3.972  10.927  14.365  0.00  0.00    +0.000 OA
ATOM     27  H   UNL     1      -4.342  10.098  14.018  0.00  0.00    +0.000 HD
ENDBRANCH  25  26
BRANCH  20  28
ATOM     28  O   UNL     1      -5.199  12.178  16.738  0.00  0.00    +0.000 OA
BRANCH  28  30
ATOM     29  C   UNL     1      -7.243  13.092  17.527  0.00  0.00    +0.000 C 
ATOM     30  C   UNL     1      -6.247  11.953  17.678  0.00  0.00    +0.000 C 
ENDBRANCH  28  30
ENDBRANCH  20  28
ENDBRANCH  18  22
ENDBRANCH   1  19
TORSDOF 7
ENDMDL
MODEL 8
REMARK VINA RESULT:      -6.9      1.091      5.111
REMARK  Name = 
REMARK  8 active torsions:
REMARK  status: ('A' for Active; 'I' for Inactive)
REMARK    1  A    between atoms: C_1  and  C_2
REMARK    2  A    between atoms: C_2  and  O_3
REMARK    3  A    between atoms: O_3  and  C_4
REMARK    4  A    between atoms: C_6  and  C_7
REMARK    5  A    between atoms: N_8  and  N_9
REMARK    6  A    between atoms: C_10  and  C_12
REMARK    7  A    between atoms: C_18  and  C_20
REMARK    8  A    between atoms: C_28  and  O_29
REMARK                            x       y       z     vdW  Elec       q    Type
REMARK                         _______ _______ _______ _____ _____    ______ ____
ROOT
ATOM      1  N   UNL     1       4.909   4.810  18.422  0.00  0.00    +0.000 N 
ATOM      2  C   UNL     1       4.329   3.518  18.410  0.00  0.00    +0.000 C 
ATOM      3  O   UNL     1       4.868   2.543  17.871  0.00  0.00    +0.000 OA
ATOM      4  C   UNL     1       6.307   4.941  18.235  0.00  0.00    +0.000 C 
ATOM      5  O   UNL     1       7.107   4.005  18.189  0.00  0.00    +0.000 OA
ENDROOT
BRANCH   2   6
ATOM      6  C   UNL     1       2.960   3.252  18.946  0.00  0.00    +0.000 A 
ATOM      7  C   UNL     1       2.794   3.340  20.343  0.00  0.00    +0.000 A 
ATOM      8  C   UNL     1       1.563   3.069  20.942  0.00  0.00    +0.000 A 
ATOM      9  C   UNL     1       0.479   2.693  20.153  0.00  0.00    +0.000 A 
ATOM     10  C   UNL     1       0.619   2.628  18.765  0.00  0.00    +0.000 A 
ATOM     11  C   UNL     1       1.844   2.940  18.162  0.00  0.00    +0.000 A 
ENDBRANCH   2   6
BRANCH   4  12
ATOM     12  C   UNL     1       6.924   6.310  18.121  0.00  0.00    +0.000 A 
ATOM     13  C   UNL     1       6.347   7.213  17.223  0.00  0.00    +0.000 A 
ATOM     14  C   UNL     1       6.920   8.466  17.082  0.00  0.00    +0.000 A 
ATOM     15  N   UNL     1       8.015   8.869  17.759  0.00  0.00    +0.000 NA
ATOM     16  C   UNL     1       8.527   8.001  18.654  0.00  0.00    +0.000 A 
ATOM     17  C   UNL     1       7.999   6.744  18.897  0.00  0.00    +0.000 A 
ENDBRANCH   4  12
BRANCH   1  19
ATOM     18  C   UNL     1       3.138   6.279  18.182  0.00  0.00    +0.000 C 
ATOM     19  N   UNL     1       4.227   5.960  18.804  0.00  0.00    +0.000 NA
BRANCH  18  22
ATOM     20  C   UNL     1       1.042   8.848  20.008  0.00  0.00    +0.000 A 
ATOM     21  C   UNL     1       1.624   7.631  19.639  0.00  0.00    +0.000 A 
ATOM     22  C   UNL     1       2.436   7.538  18.503  0.00  0.00    +0.000 A 
ATOM     23  C   UNL     1       2.650   8.657  17.702  0.00  0.00    +0.000 A 
ATOM     24  C   UNL     1       2.057   9.873  18.051  0.00  0.00    +0.000 A 
ATOM     25  C   UNL     1       1.269   9.973  19.207  0.00  0.00    +0.000 A 
BRANCH  25  26
ATOM     26  O   UNL     1       0.768  11.197  19.545  0.00  0.00    +0.000 OA
ATOM     27  H   UNL     1       0.543  11.205  20.490  0.00  0.00    +0.000 HD
ENDBRANCH  25  26
BRANCH  20  28
ATOM     28  O   UNL     1       0.379   8.788  21.203  0.00  0.00    +0.000 OA
BRANCH  28  30
ATOM     29  C   UNL     1      -0.023   9.615  23.392  0.00  0.00    +0.000 C 
ATOM     30  C   UNL     1       1.046   9.264  22.370  0.00  0.00    +0.000 C 
ENDBRANCH  28  30
ENDBRANCH  20  28
ENDBRANCH  18  22
ENDBRANCH   1  19
TORSDOF 7
ENDMDL
MODEL 9
REMARK VINA RESULT:      -6.6      1.389      5.468
REMARK  Name = 
REMARK  8 active torsions:
REMARK  status: ('A' for Active; 'I' for Inactive)
REMARK    1  A    between atoms: C_1  and  C_2
REMARK    2  A    between atoms: C_2  and  O_3
REMARK    3  A    between atoms: O_3  and  C_4
REMARK    4  A    between atoms: C_6  and  C_7
REMARK    5  A    between atoms: N_8  and  N_9
REMARK    6  A    between atoms: C_10  and  C_12
REMARK    7  A    between atoms: C_18  and  C_20
REMARK    8  A    between atoms: C_28  and  O_29
REMARK                            x       y       z     vdW  Elec       q    Type
REMARK                         _______ _______ _______ _____ _____    ______ ____
ROOT
ATOM      1  N   UNL     1       4.893   4.764  18.298  0.00  0.00    +0.000 N 
ATOM      2  C   UNL     1       4.287   3.493  18.153  0.00  0.00    +0.000 C 
ATOM      3  O   UNL     1       4.744   2.609  17.417  0.00  0.00    +0.000 OA
ATOM      4  C   UNL     1       6.267   4.914  17.984  0.00  0.00    +0.000 C 
ATOM      5  O   UNL     1       7.036   3.991  17.710  0.00  0.00    +0.000 OA
ENDROOT
BRANCH   2   6
ATOM      6  C   UNL     1       2.976   3.155  18.786  0.00  0.00    +0.000 A 
ATOM      7  C   UNL     1       2.961   3.027  20.190  0.00  0.00    +0.000 A 
ATOM      8  C   UNL     1       1.795   2.674  20.870  0.00  0.00    +0.000 A 
ATOM      9  C   UNL     1       0.625   2.432  20.154  0.00  0.00    +0.000 A 
ATOM     10  C   UNL     1       0.616   2.583  18.766  0.00  0.00    +0.000 A 
ATOM     11  C   UNL     1       1.777   2.976  18.089  0.00  0.00    +0.000 A 
ENDBRANCH   2   6
BRANCH   4  12
ATOM     12  C   UNL     1       6.898   6.280  18.014  0.00  0.00    +0.000 A 
ATOM     13  C   UNL     1       6.341   7.275  17.205  0.00  0.00    +0.000 A 
ATOM     14  C   UNL     1       6.928   8.529  17.196  0.00  0.00    +0.000 A 
ATOM     15  N   UNL     1       8.019   8.850  17.921  0.00  0.00    +0.000 NA
ATOM     16  C   UNL     1       8.513   7.891  18.730  0.00  0.00    +0.000 A 
ATOM     17  C   UNL     1       7.969   6.623  18.840  0.00  0.00    +0.000 A 
ENDBRANCH   4  12
BRANCH   1  19
ATOM     18  C   UNL     1       3.096   6.200  18.542  0.00  0.00    +0.000 C 
ATOM     19  N   UNL     1       4.282   5.845  18.922  0.00  0.00    +0.000 NA
BRANCH  18  22
ATOM     20  C   UNL     1       1.619   9.670  18.871  0.00  0.00    +0.000 A 
ATOM     21  C   UNL     1       2.321   8.569  18.369  0.00  0.00    +0.000 A 
ATOM     22  C   UNL     1       2.452   7.397  19.121  0.00  0.00    +0.000 A 
ATOM     23  C   UNL     1       1.909   7.322  20.402  0.00  0.00    +0.000 A 
ATOM     24  C   UNL     1       1.224   8.423  20.920  0.00  0.00    +0.000 A 
ATOM     25  C   UNL     1       1.065   9.586  20.154  0.00  0.00    +0.000 A 
BRANCH  25  26
ATOM     26  O   UNL     1       0.328  10.610  20.676  0.00  0.00    +0.000 OA
ATOM     27  H   UNL     1      -0.488  10.718  20.159  0.00  0.00    +0.000 HD
ENDBRANCH  25  26
BRANCH  20  28
ATOM     28  O   UNL     1       1.487  10.685  17.964  0.00  0.00    +0.000 OA
BRANCH  28  30
ATOM     29  C   UNL     1       1.562  13.021  18.381  0.00  0.00    +0.000 C 
ATOM     30  C   UNL     1       2.387  11.788  18.050  0.00  0.00    +0.000 C 
ENDBRANCH  28  30
ENDBRANCH  20  28
ENDBRANCH  18  22
ENDBRANCH   1  19
TORSDOF 7
ENDMDL
