MODEL 1
REMARK VINA RESULT:      -7.5      0.000      0.000
REMARK  Name = 
REMARK  18 active torsions:
REMARK  status: ('A' for Active; 'I' for Inactive)
REMARK    1  A    between atoms: C_1  and  C_2
REMARK    2  A    between atoms: C_2  and  O_3
REMARK    3  A    between atoms: O_3  and  C_4
REMARK    4  A    between atoms: C_4  and  C_6
REMARK    5  A    between atoms: C_6  and  C_7
REMARK    6  A    between atoms: C_8  and  C_9
REMARK    7  A    between atoms: C_9  and  O_11
REMARK    8  A    between atoms: O_11  and  C_12
REMARK    9  A    between atoms: C_12  and  C_13
REMARK   10  A    between atoms: C_14  and  C_15
REMARK   11  A    between atoms: C_17  and  O_18
REMARK   12  A    between atoms: O_18  and  C_19
REMARK   13  A    between atoms: C_20  and  O_21
REMARK   14  A    between atoms: O_21  and  C_22
REMARK   15  A    between atoms: C_24  and  O_25
REMARK   16  A    between atoms: O_25  and  C_26
REMARK   17  A    between atoms: C_27  and  C_28
REMARK   18  A    between atoms: C_30  and  N_31
REMARK                            x       y       z     vdW  Elec       q    Type
REMARK                         _______ _______ _______ _____ _____    ______ ____
ROOT
ATOM      1  C   UNL     1       5.900   4.585  17.777  0.00  0.00    +0.000 C 
ATOM      2  C   UNL     1       4.891   5.237  17.162  0.00  0.00    +0.000 C 
ATOM      3  C   UNL     1       3.430   4.874  17.433  0.00  0.00    +0.000 C 
ATOM      4  C   UNL     1       3.318   3.486  18.055  0.00  0.00    +0.000 C 
ATOM      5  C   UNL     1       4.399   2.851  18.557  0.00  0.00    +0.000 C 
ATOM      6  O   UNL     1       5.658   3.448  18.540  0.00  0.00    +0.000 OA
ENDROOT
BRANCH   3   7
ATOM      7  C   UNL     1       2.766   5.909  18.359  0.00  0.00    +0.000 A 
ATOM      8  C   UNL     1       2.326   7.103  17.731  0.00  0.00    +0.000 A 
ATOM      9  C   UNL     1       1.782   8.190  18.420  0.00  0.00    +0.000 A 
ATOM     10  C   UNL     1       1.679   8.121  19.810  0.00  0.00    +0.000 A 
ATOM     11  C   UNL     1       2.109   6.953  20.451  0.00  0.00    +0.000 A 
ATOM     12  C   UNL     1       2.650   5.851  19.753  0.00  0.00    +0.000 A 
BRANCH   9  13
ATOM     13  O   UNL     1       1.393   9.344  17.783  0.00  0.00    +0.000 OA
ATOM     14  C   UNL     1       2.293  10.446  17.893  0.00  0.00    +0.000 C 
ENDBRANCH   9  13
BRANCH  10  15
ATOM     15  O   UNL     1       1.178   9.217  20.467  0.00  0.00    +0.000 OA
ATOM     16  C   UNL     1       0.386   8.963  21.625  0.00  0.00    +0.000 C 
ENDBRANCH  10  15
BRANCH  12  17
ATOM     17  O   UNL     1       3.148   4.922  20.621  0.00  0.00    +0.000 OA
ATOM     18  C   UNL     1       2.267   4.156  21.418  0.00  0.00    +0.000 C 
ENDBRANCH  12  17
ENDBRANCH   3   7
BRANCH   5  19
ATOM     19  N   UNL     1       4.398   1.625  19.174  0.00  0.00    +0.000 N 
ATOM     20  H   UNL     1       4.399   0.819  18.553  0.00  0.00    +0.000 HD
ATOM     21  H   UNL     1       3.702   1.560  19.912  0.00  0.00    +0.000 HD
ENDBRANCH   5  19
BRANCH   2  22
ATOM     22  C   UNL     1       5.104   6.328  16.180  0.00  0.00    +0.000 C 
ATOM     23  O   UNL     1       4.526   7.400  16.219  0.00  0.00    +0.000 OA
BRANCH  22  24
ATOM     24  O   UNL     1       5.828   5.857  15.133  0.00  0.00    +0.000 OA
BRANCH  24  25
ATOM     25  C   UNL     1       5.250   4.748  14.435  0.00  0.00    +0.000 C 
ATOM     26  C   UNL     1       6.398   3.932  13.866  0.00  0.00    +0.000 C 
ENDBRANCH  24  25
ENDBRANCH  22  24
ENDBRANCH   2  22
BRANCH   4  27
ATOM     27  C   UNL     1       2.015   2.887  18.125  0.00  0.00    +0.000 C 
ATOM     28  N   UNL     1       0.961   2.433  18.168  0.00  0.00    +0.000 NA
ENDBRANCH   4  27
BRANCH   1  29
ATOM     29  C   UNL     1       7.324   5.074  17.896  0.00  0.00    +0.000 C 
BRANCH  29  30
ATOM     30  C   UNL     1       7.674   5.754  19.204  0.00  0.00    +0.000 C 
ATOM     31  O   UNL     1       7.381   5.377  20.328  0.00  0.00    +0.000 OA
BRANCH  30  32
ATOM     32  O   UNL     1       8.299   6.939  18.907  0.00  0.00    +0.000 OA
BRANCH  32  34
ATOM     33  C   UNL     1       8.185   9.103  17.914  0.00  0.00    +0.000 C 
ATOM     34  C   UNL     1       7.790   7.645  17.766  0.00  0.00    +0.000 C 
ENDBRANCH  32  34
ENDBRANCH  30  32
ENDBRANCH  29  30
ENDBRANCH   1  29
TORSDOF 13
ENDMDL
MODEL 2
REMARK VINA RESULT:      -6.8      5.924     10.752
REMARK  Name = 
REMARK  18 active torsions:
REMARK  status: ('A' for Active; 'I' for Inactive)
REMARK    1  A    between atoms: C_1  and  C_2
REMARK    2  A    between atoms: C_2  and  O_3
REMARK    3  A    between atoms: O_3  and  C_4
REMARK    4  A    between atoms: C_4  and  C_6
REMARK    5  A    between atoms: C_6  and  C_7
REMARK    6  A    between atoms: C_8  and  C_9
REMARK    7  A    between atoms: C_9  and  O_11
REMARK    8  A    between atoms: O_11  and  C_12
REMARK    9  A    between atoms: C_12  and  C_13
REMARK   10  A    between atoms: C_14  and  C_15
REMARK   11  A    between atoms: C_17  and  O_18
REMARK   12  A    between atoms: O_18  and  C_19
REMARK   13  A    between atoms: C_20  and  O_21
REMARK   14  A    between atoms: O_21  and  C_22
REMARK   15  A    between atoms: C_24  and  O_25
REMARK   16  A    between atoms: O_25  and  C_26
REMARK   17  A    between atoms: C_27  and  C_28
REMARK   18  A    between atoms: C_30  and  N_31
REMARK                            x       y       z     vdW  Elec       q    Type
REMARK                         _______ _______ _______ _____ _____    ______ ____
ROOT
ATOM      1  C   UNL     1      -2.956  13.005  21.324  0.00  0.00    +0.000 C 
ATOM      2  C   UNL     1      -1.879  12.194  21.392  0.00  0.00    +0.000 C 
ATOM      3  C   UNL     1      -1.359  11.462  20.155  0.00  0.00    +0.000 C 
ATOM      4  C   UNL     1      -2.424  11.404  19.064  0.00  0.00    +0.000 C 
ATOM      5  C   UNL     1      -3.532  12.176  19.122  0.00  0.00    +0.000 C 
ATOM      6  O   UNL     1      -3.735  13.067  20.174  0.00  0.00    +0.000 OA
ENDROOT
BRANCH   3   7
ATOM      7  C   UNL     1      -0.093  12.140  19.602  0.00  0.00    +0.000 A 
ATOM      8  C   UNL     1      -0.174  13.546  19.428  0.00  0.00    +0.000 A 
ATOM      9  C   UNL     1       0.840  14.319  18.857  0.00  0.00    +0.000 A 
ATOM     10  C   UNL     1       1.997  13.683  18.405  0.00  0.00    +0.000 A 
ATOM     11  C   UNL     1       2.097  12.296  18.564  0.00  0.00    +0.000 A 
ATOM     12  C   UNL     1       1.077  11.516  19.150  0.00  0.00    +0.000 A 
BRANCH   9  13
ATOM     13  O   UNL     1       0.716  15.677  18.677  0.00  0.00    +0.000 OA
ATOM     14  C   UNL     1      -0.562  16.230  18.994  0.00  0.00    +0.000 C 
ENDBRANCH   9  13
BRANCH  10  15
ATOM     15  O   UNL     1       2.960  14.460  17.813  0.00  0.00    +0.000 OA
ATOM     16  C   UNL     1       4.147  14.695  18.566  0.00  0.00    +0.000 C 
ENDBRANCH  10  15
BRANCH  12  17
ATOM     17  O   UNL     1       1.349  10.184  19.025  0.00  0.00    +0.000 OA
ATOM     18  C   UNL     1       2.002   9.702  17.867  0.00  0.00    +0.000 C 
ENDBRANCH  12  17
ENDBRANCH   3   7
BRANCH   5  19
ATOM     19  N   UNL     1      -4.524  12.232  18.176  0.00  0.00    +0.000 N 
ATOM     20  H   UNL     1      -5.255  12.919  18.343  0.00  0.00    +0.000 HD
ATOM     21  H   UNL     1      -4.886  11.313  17.936  0.00  0.00    +0.000 HD
ENDBRANCH   5  19
BRANCH   2  22
ATOM     22  C   UNL     1      -1.132  11.935  22.646  0.00  0.00    +0.000 C 
ATOM     23  O   UNL     1      -0.242  12.652  23.068  0.00  0.00    +0.000 OA
BRANCH  22  24
ATOM     24  O   UNL     1      -1.419  10.685  23.093  0.00  0.00    +0.000 OA
BRANCH  24  25
ATOM     25  C   UNL     1      -0.292   9.817  23.256  0.00  0.00    +0.000 C 
ATOM     26  C   UNL     1      -0.343   8.803  22.127  0.00  0.00    +0.000 C 
ENDBRANCH  24  25
ENDBRANCH  22  24
ENDBRANCH   2  22
BRANCH   4  27
ATOM     27  C   UNL     1      -2.196  10.529  17.950  0.00  0.00    +0.000 C 
ATOM     28  N   UNL     1      -1.983   9.833  17.062  0.00  0.00    +0.000 NA
ENDBRANCH   4  27
BRANCH   1  29
ATOM     29  C   UNL     1      -3.335  14.056  22.341  0.00  0.00    +0.000 C 
BRANCH  29  30
ATOM     30  C   UNL     1      -4.321  13.612  23.403  0.00  0.00    +0.000 C 
ATOM     31  O   UNL     1      -4.078  12.940  24.393  0.00  0.00    +0.000 OA
BRANCH  30  32
ATOM     32  O   UNL     1      -5.571  14.015  23.009  0.00  0.00    +0.000 OA
BRANCH  32  34
ATOM     33  C   UNL     1      -7.572  13.510  24.203  0.00  0.00    +0.000 C 
ATOM     34  C   UNL     1      -6.611  13.033  23.129  0.00  0.00    +0.000 C 
ENDBRANCH  32  34
ENDBRANCH  30  32
ENDBRANCH  29  30
ENDBRANCH   1  29
TORSDOF 13
ENDMDL
MODEL 3
REMARK VINA RESULT:      -6.7      4.729      8.387
REMARK  Name = 
REMARK  18 active torsions:
REMARK  status: ('A' for Active; 'I' for Inactive)
REMARK    1  A    between atoms: C_1  and  C_2
REMARK    2  A    between atoms: C_2  and  O_3
REMARK    3  A    between atoms: O_3  and  C_4
REMARK    4  A    between atoms: C_4  and  C_6
REMARK    5  A    between atoms: C_6  and  C_7
REMARK    6  A    between atoms: C_8  and  C_9
REMARK    7  A    between atoms: C_9  and  O_11
REMARK    8  A    between atoms: O_11  and  C_12
REMARK    9  A    between atoms: C_12  and  C_13
REMARK   10  A    between atoms: C_14  and  C_15
REMARK   11  A    between atoms: C_17  and  O_18
REMARK   12  A    between atoms: O_18  and  C_19
REMARK   13  A    between atoms: C_20  and  O_21
REMARK   14  A    between atoms: O_21  and  C_22
REMARK   15  A    between atoms: C_24  and  O_25
REMARK   16  A    between atoms: O_25  and  C_26
REMARK   17  A    between atoms: C_27  and  C_28
REMARK   18  A    between atoms: C_30  and  N_31
REMARK                            x       y       z     vdW  Elec       q    Type
REMARK                         _______ _______ _______ _____ _____    ______ ____
ROOT
ATOM      1  C   UNL     1       1.395   9.865  18.836  0.00  0.00    +0.000 C 
ATOM      2  C   UNL     1       0.818  10.215  20.005  0.00  0.00    +0.000 C 
ATOM      3  C   UNL     1       0.485  11.675  20.318  0.00  0.00    +0.000 C 
ATOM      4  C   UNL     1       1.272  12.621  19.418  0.00  0.00    +0.000 C 
ATOM      5  C   UNL     1       1.913  12.174  18.316  0.00  0.00    +0.000 C 
ATOM      6  O   UNL     1       1.866  10.829  17.952  0.00  0.00    +0.000 OA
ENDROOT
BRANCH   3   7
ATOM      7  C   UNL     1      -1.022  11.945  20.158  0.00  0.00    +0.000 A 
ATOM      8  C   UNL     1      -1.629  11.381  19.005  0.00  0.00    +0.000 A 
ATOM      9  C   UNL     1      -2.962  11.593  18.646  0.00  0.00    +0.000 A 
ATOM     10  C   UNL     1      -3.750  12.423  19.445  0.00  0.00    +0.000 A 
ATOM     11  C   UNL     1      -3.171  12.991  20.585  0.00  0.00    +0.000 A 
ATOM     12  C   UNL     1      -1.827  12.770  20.954  0.00  0.00    +0.000 A 
BRANCH   9  13
ATOM     13  O   UNL     1      -3.510  11.055  17.505  0.00  0.00    +0.000 OA
ATOM     14  C   UNL     1      -2.851   9.899  16.988  0.00  0.00    +0.000 C 
ENDBRANCH   9  13
BRANCH  10  15
ATOM     15  O   UNL     1      -5.045  12.646  19.048  0.00  0.00    +0.000 OA
ATOM     16  C   UNL     1      -6.065  11.980  19.789  0.00  0.00    +0.000 C 
ENDBRANCH  10  15
BRANCH  12  17
ATOM     17  O   UNL     1      -1.468  13.574  21.998  0.00  0.00    +0.000 OA
ATOM     18  C   UNL     1      -2.380  13.808  23.053  0.00  0.00    +0.000 C 
ENDBRANCH  12  17
ENDBRANCH   3   7
BRANCH   5  19
ATOM     19  N   UNL     1       2.609  12.946  17.420  0.00  0.00    +0.000 N 
ATOM     20  H   UNL     1       3.094  13.747  17.813  0.00  0.00    +0.000 HD
ATOM     21  H   UNL     1       2.061  13.174  16.594  0.00  0.00    +0.000 HD
ENDBRANCH   5  19
BRANCH   2  22
ATOM     22  C   UNL     1       0.479   9.242  21.070  0.00  0.00    +0.000 C 
ATOM     23  O   UNL     1      -0.358   8.365  20.949  0.00  0.00    +0.000 OA
BRANCH  22  24
ATOM     24  O   UNL     1       1.049   9.634  22.238  0.00  0.00    +0.000 OA
BRANCH  24  25
ATOM     25  C   UNL     1       0.262   9.406  23.413  0.00  0.00    +0.000 C 
ATOM     26  C   UNL     1      -0.953  10.311  23.319  0.00  0.00    +0.000 C 
ENDBRANCH  24  25
ENDBRANCH  22  24
ENDBRANCH   2  22
BRANCH   4  27
ATOM     27  C   UNL     1       1.279  14.017  19.756  0.00  0.00    +0.000 C 
ATOM     28  N   UNL     1       1.301  15.138  20.001  0.00  0.00    +0.000 NA
ENDBRANCH   4  27
BRANCH   1  29
ATOM     29  C   UNL     1       1.426   8.473  18.250  0.00  0.00    +0.000 C 
BRANCH  29  30
ATOM     30  C   UNL     1       2.708   7.697  18.475  0.00  0.00    +0.000 C 
ATOM     31  O   UNL     1       3.646   7.591  17.701  0.00  0.00    +0.000 OA
BRANCH  30  32
ATOM     32  O   UNL     1       2.595   7.041  19.674  0.00  0.00    +0.000 OA
BRANCH  32  34
ATOM     33  C   UNL     1       2.039   4.978  20.731  0.00  0.00    +0.000 C 
ATOM     34  C   UNL     1       2.871   5.633  19.644  0.00  0.00    +0.000 C 
ENDBRANCH  32  34
ENDBRANCH  30  32
ENDBRANCH  29  30
ENDBRANCH   1  29
TORSDOF 13
ENDMDL
MODEL 4
REMARK VINA RESULT:      -6.7      4.605      8.069
REMARK  Name = 
REMARK  18 active torsions:
REMARK  status: ('A' for Active; 'I' for Inactive)
REMARK    1  A    between atoms: C_1  and  C_2
REMARK    2  A    between atoms: C_2  and  O_3
REMARK    3  A    between atoms: O_3  and  C_4
REMARK    4  A    between atoms: C_4  and  C_6
REMARK    5  A    between atoms: C_6  and  C_7
REMARK    6  A    between atoms: C_8  and  C_9
REMARK    7  A    between atoms: C_9  and  O_11
REMARK    8  A    between atoms: O_11  and  C_12
REMARK    9  A    between atoms: C_12  and  C_13
REMARK   10  A    between atoms: C_14  and  C_15
REMARK   11  A    between atoms: C_17  and  O_18
REMARK   12  A    between atoms: O_18  and  C_19
REMARK   13  A    between atoms: C_20  and  O_21
REMARK   14  A    between atoms: O_21  and  C_22
REMARK   15  A    between atoms: C_24  and  O_25
REMARK   16  A    between atoms: O_25  and  C_26
REMARK   17  A    between atoms: C_27  and  C_28
REMARK   18  A    between atoms: C_30  and  N_31
REMARK                            x       y       z     vdW  Elec       q    Type
REMARK                         _______ _______ _______ _____ _____    ______ ____
ROOT
ATOM      1  C   UNL     1       1.504   9.204  19.146  0.00  0.00    +0.000 C 
ATOM      2  C   UNL     1       0.660   9.735  20.056  0.00  0.00    +0.000 C 
ATOM      3  C   UNL     1       0.162  11.175  19.929  0.00  0.00    +0.000 C 
ATOM      4  C   UNL     1       1.059  11.985  18.998  0.00  0.00    +0.000 C 
ATOM      5  C   UNL     1       1.958  11.383  18.189  0.00  0.00    +0.000 C 
ATOM      6  O   UNL     1       2.089   9.996  18.164  0.00  0.00    +0.000 OA
ENDROOT
BRANCH   3   7
ATOM      7  C   UNL     1      -1.287  11.217  19.413  0.00  0.00    +0.000 A 
ATOM      8  C   UNL     1      -1.575  10.359  18.319  0.00  0.00    +0.000 A 
ATOM      9  C   UNL     1      -2.807  10.325  17.661  0.00  0.00    +0.000 A 
ATOM     10  C   UNL     1      -3.816  11.194  18.077  0.00  0.00    +0.000 A 
ATOM     11  C   UNL     1      -3.553  12.050  19.153  0.00  0.00    +0.000 A 
ATOM     12  C   UNL     1      -2.311  12.079  19.823  0.00  0.00    +0.000 A 
BRANCH   9  13
ATOM     13  O   UNL     1      -3.043   9.501  16.585  0.00  0.00    +0.000 OA
ATOM     14  C   UNL     1      -2.706  10.041  15.307  0.00  0.00    +0.000 C 
ENDBRANCH   9  13
BRANCH  10  15
ATOM     15  O   UNL     1      -5.003  11.168  17.389  0.00  0.00    +0.000 OA
ATOM     16  C   UNL     1      -5.804  12.346  17.447  0.00  0.00    +0.000 C 
ENDBRANCH  10  15
BRANCH  12  17
ATOM     17  O   UNL     1      -2.260  13.117  20.710  0.00  0.00    +0.000 OA
ATOM     18  C   UNL     1      -3.455  13.645  21.249  0.00  0.00    +0.000 C 
ENDBRANCH  12  17
ENDBRANCH   3   7
BRANCH   5  19
ATOM     19  N   UNL     1       2.778  12.013  17.287  0.00  0.00    +0.000 N 
ATOM     20  H   UNL     1       2.328  12.702  16.689  0.00  0.00    +0.000 HD
ATOM     21  H   UNL     1       3.367  11.362  16.775  0.00  0.00    +0.000 HD
ENDBRANCH   5  19
BRANCH   2  22
ATOM     22  C   UNL     1       0.164   8.992  21.239  0.00  0.00    +0.000 C 
ATOM     23  O   UNL     1      -0.704   8.138  21.191  0.00  0.00    +0.000 OA
BRANCH  22  24
ATOM     24  O   UNL     1       0.637   9.576  22.370  0.00  0.00    +0.000 OA
BRANCH  24  25
ATOM     25  C   UNL     1      -0.301   9.678  23.447  0.00  0.00    +0.000 C 
ATOM     26  C   UNL     1      -1.174  10.888  23.165  0.00  0.00    +0.000 C 
ENDBRANCH  24  25
ENDBRANCH  22  24
ENDBRANCH   2  22
BRANCH   4  27
ATOM     27  C   UNL     1       0.891  13.410  18.978  0.00  0.00    +0.000 C 
ATOM     28  N   UNL     1       0.786  14.553  18.950  0.00  0.00    +0.000 NA
ENDBRANCH   4  27
BRANCH   1  29
ATOM     29  C   UNL     1       1.764   7.731  18.938  0.00  0.00    +0.000 C 
BRANCH  29  30
ATOM     30  C   UNL     1       3.041   7.390  18.196  0.00  0.00    +0.000 C 
ATOM     31  O   UNL     1       3.495   7.962  17.218  0.00  0.00    +0.000 OA
BRANCH  30  32
ATOM     32  O   UNL     1       3.560   6.250  18.757  0.00  0.00    +0.000 OA
BRANCH  32  34
ATOM     33  C   UNL     1       4.824   4.353  18.062  0.00  0.00    +0.000 C 
ATOM     34  C   UNL     1       4.855   5.854  18.281  0.00  0.00    +0.000 C 
ENDBRANCH  32  34
ENDBRANCH  30  32
ENDBRANCH  29  30
ENDBRANCH   1  29
TORSDOF 13
ENDMDL
MODEL 5
REMARK VINA RESULT:      -6.6      5.032      8.806
REMARK  Name = 
REMARK  18 active torsions:
REMARK  status: ('A' for Active; 'I' for Inactive)
REMARK    1  A    between atoms: C_1  and  C_2
REMARK    2  A    between atoms: C_2  and  O_3
REMARK    3  A    between atoms: O_3  and  C_4
REMARK    4  A    between atoms: C_4  and  C_6
REMARK    5  A    between atoms: C_6  and  C_7
REMARK    6  A    between atoms: C_8  and  C_9
REMARK    7  A    between atoms: C_9  and  O_11
REMARK    8  A    between atoms: O_11  and  C_12
REMARK    9  A    between atoms: C_12  and  C_13
REMARK   10  A    between atoms: C_14  and  C_15
REMARK   11  A    between atoms: C_17  and  O_18
REMARK   12  A    between atoms: O_18  and  C_19
REMARK   13  A    between atoms: C_20  and  O_21
REMARK   14  A    between atoms: O_21  and  C_22
REMARK   15  A    between atoms: C_24  and  O_25
REMARK   16  A    between atoms: O_25  and  C_26
REMARK   17  A    between atoms: C_27  and  C_28
REMARK   18  A    between atoms: C_30  and  N_31
REMARK                            x       y       z     vdW  Elec       q    Type
REMARK                         _______ _______ _______ _____ _____    ______ ____
ROOT
ATOM      1  C   UNL     1       1.169  10.046  19.398  0.00  0.00    +0.000 C 
ATOM      2  C   UNL     1       0.303  10.631  20.253  0.00  0.00    +0.000 C 
ATOM      3  C   UNL     1      -0.216  12.048  20.009  0.00  0.00    +0.000 C 
ATOM      4  C   UNL     1       0.680  12.799  19.029  0.00  0.00    +0.000 C 
ATOM      5  C   UNL     1       1.600  12.152  18.281  0.00  0.00    +0.000 C 
ATOM      6  O   UNL     1       1.754  10.770  18.365  0.00  0.00    +0.000 OA
ENDROOT
BRANCH   3   7
ATOM      7  C   UNL     1      -1.659  12.025  19.473  0.00  0.00    +0.000 A 
ATOM      8  C   UNL     1      -2.623  12.690  20.275  0.00  0.00    +0.000 A 
ATOM      9  C   UNL     1      -3.993  12.698  19.998  0.00  0.00    +0.000 A 
ATOM     10  C   UNL     1      -4.457  11.999  18.883  0.00  0.00    +0.000 A 
ATOM     11  C   UNL     1      -3.524  11.334  18.080  0.00  0.00    +0.000 A 
ATOM     12  C   UNL     1      -2.139  11.333  18.355  0.00  0.00    +0.000 A 
BRANCH   9  13
ATOM     13  O   UNL     1      -4.903  13.329  20.813  0.00  0.00    +0.000 OA
ATOM     14  C   UNL     1      -4.914  12.903  22.175  0.00  0.00    +0.000 C 
ENDBRANCH   9  13
BRANCH  10  15
ATOM     15  O   UNL     1      -5.811  11.991  18.656  0.00  0.00    +0.000 OA
ATOM     16  C   UNL     1      -6.412  10.722  18.410  0.00  0.00    +0.000 C 
ENDBRANCH  10  15
BRANCH  12  17
ATOM     17  O   UNL     1      -1.478  10.472  17.525  0.00  0.00    +0.000 OA
ATOM     18  C   UNL     1      -2.193   9.745  16.547  0.00  0.00    +0.000 C 
ENDBRANCH  12  17
ENDBRANCH   3   7
BRANCH   5  19
ATOM     19  N   UNL     1       2.422  12.725  17.343  0.00  0.00    +0.000 N 
ATOM     20  H   UNL     1       1.979  12.972  16.461  0.00  0.00    +0.000 HD
ATOM     21  H   UNL     1       3.293  12.216  17.225  0.00  0.00    +0.000 HD
ENDBRANCH   5  19
BRANCH   2  22
ATOM     22  C   UNL     1      -0.197   9.972  21.483  0.00  0.00    +0.000 C 
ATOM     23  O   UNL     1      -0.791   8.908  21.492  0.00  0.00    +0.000 OA
BRANCH  22  24
ATOM     24  O   UNL     1      -0.110  10.838  22.526  0.00  0.00    +0.000 OA
BRANCH  24  25
ATOM     25  C   UNL     1      -1.336  11.082  23.225  0.00  0.00    +0.000 C 
ATOM     26  C   UNL     1      -1.466  12.586  23.385  0.00  0.00    +0.000 C 
ENDBRANCH  24  25
ENDBRANCH  22  24
ENDBRANCH   2  22
BRANCH   4  27
ATOM     27  C   UNL     1       0.489  14.216  18.897  0.00  0.00    +0.000 C 
ATOM     28  N   UNL     1       0.364  15.353  18.806  0.00  0.00    +0.000 NA
ENDBRANCH   4  27
BRANCH   1  29
ATOM     29  C   UNL     1       1.455   8.566  19.307  0.00  0.00    +0.000 C 
BRANCH  29  30
ATOM     30  C   UNL     1       2.454   8.157  18.243  0.00  0.00    +0.000 C 
ATOM     31  O   UNL     1       2.539   8.601  17.108  0.00  0.00    +0.000 OA
BRANCH  30  32
ATOM     32  O   UNL     1       3.197   7.118  18.742  0.00  0.00    +0.000 OA
BRANCH  32  34
ATOM     33  C   UNL     1       2.123   5.112  18.030  0.00  0.00    +0.000 C 
ATOM     34  C   UNL     1       2.450   5.991  19.224  0.00  0.00    +0.000 C 
ENDBRANCH  32  34
ENDBRANCH  30  32
ENDBRANCH  29  30
ENDBRANCH   1  29
TORSDOF 13
ENDMDL
MODEL 6
REMARK VINA RESULT:      -6.6      4.773      8.363
REMARK  Name = 
REMARK  18 active torsions:
REMARK  status: ('A' for Active; 'I' for Inactive)
REMARK    1  A    between atoms: C_1  and  C_2
REMARK    2  A    between atoms: C_2  and  O_3
REMARK    3  A    between atoms: O_3  and  C_4
REMARK    4  A    between atoms: C_4  and  C_6
REMARK    5  A    between atoms: C_6  and  C_7
REMARK    6  A    between atoms: C_8  and  C_9
REMARK    7  A    between atoms: C_9  and  O_11
REMARK    8  A    between atoms: O_11  and  C_12
REMARK    9  A    between atoms: C_12  and  C_13
REMARK   10  A    between atoms: C_14  and  C_15
REMARK   11  A    between atoms: C_17  and  O_18
REMARK   12  A    between atoms: O_18  and  C_19
REMARK   13  A    between atoms: C_20  and  O_21
REMARK   14  A    between atoms: O_21  and  C_22
REMARK   15  A    between atoms: C_24  and  O_25
REMARK   16  A    between atoms: O_25  and  C_26
REMARK   17  A    between atoms: C_27  and  C_28
REMARK   18  A    between atoms: C_30  and  N_31
REMARK                            x       y       z     vdW  Elec       q    Type
REMARK                         _______ _______ _______ _____ _____    ______ ____
ROOT
ATOM      1  C   UNL     1       1.386   9.653  18.792  0.00  0.00    +0.000 C 
ATOM      2  C   UNL     1       0.678  10.066  19.864  0.00  0.00    +0.000 C 
ATOM      3  C   UNL     1       0.328  11.542  20.062  0.00  0.00    +0.000 C 
ATOM      4  C   UNL     1       1.230  12.436  19.217  0.00  0.00    +0.000 C 
ATOM      5  C   UNL     1       1.993  11.928  18.225  0.00  0.00    +0.000 C 
ATOM      6  O   UNL     1       1.973  10.567  17.925  0.00  0.00    +0.000 OA
ENDROOT
BRANCH   3   7
ATOM      7  C   UNL     1      -1.145  11.815  19.707  0.00  0.00    +0.000 A 
ATOM      8  C   UNL     1      -1.897  12.504  20.694  0.00  0.00    +0.000 A 
ATOM      9  C   UNL     1      -3.266  12.762  20.590  0.00  0.00    +0.000 A 
ATOM     10  C   UNL     1      -3.953  12.301  19.466  0.00  0.00    +0.000 A 
ATOM     11  C   UNL     1      -3.231  11.617  18.481  0.00  0.00    +0.000 A 
ATOM     12  C   UNL     1      -1.846  11.365  18.582  0.00  0.00    +0.000 A 
BRANCH   9  13
ATOM     13  O   UNL     1      -3.970  13.407  21.579  0.00  0.00    +0.000 OA
ATOM     14  C   UNL     1      -3.663  14.790  21.756  0.00  0.00    +0.000 C 
ENDBRANCH   9  13
BRANCH  10  15
ATOM     15  O   UNL     1      -5.304  12.533  19.406  0.00  0.00    +0.000 OA
ATOM     16  C   UNL     1      -5.939  12.299  18.151  0.00  0.00    +0.000 C 
ENDBRANCH  10  15
BRANCH  12  17
ATOM     17  O   UNL     1      -1.427  10.534  17.582  0.00  0.00    +0.000 OA
ATOM     18  C   UNL     1      -2.333  10.128  16.576  0.00  0.00    +0.000 C 
ENDBRANCH  12  17
ENDBRANCH   3   7
BRANCH   5  19
ATOM     19  N   UNL     1       2.802  12.649  17.382  0.00  0.00    +0.000 N 
ATOM     20  H   UNL     1       3.316  13.413  17.812  0.00  0.00    +0.000 HD
ATOM     21  H   UNL     1       2.329  12.916  16.523  0.00  0.00    +0.000 HD
ENDBRANCH   5  19
BRANCH   2  22
ATOM     22  C   UNL     1       0.200   9.151  20.928  0.00  0.00    +0.000 C 
ATOM     23  O   UNL     1      -0.713   8.356  20.782  0.00  0.00    +0.000 OA
BRANCH  22  24
ATOM     24  O   UNL     1       0.754   9.509  22.115  0.00  0.00    +0.000 OA
BRANCH  24  25
ATOM     25  C   UNL     1      -0.096   9.364  23.258  0.00  0.00    +0.000 C 
ATOM     26  C   UNL     1      -1.015  10.573  23.286  0.00  0.00    +0.000 C 
ENDBRANCH  24  25
ENDBRANCH  22  24
ENDBRANCH   2  22
BRANCH   4  27
ATOM     27  C   UNL     1       1.215  13.847  19.484  0.00  0.00    +0.000 C 
ATOM     28  N   UNL     1       1.203  14.980  19.667  0.00  0.00    +0.000 NA
ENDBRANCH   4  27
BRANCH   1  29
ATOM     29  C   UNL     1       1.469   8.232  18.284  0.00  0.00    +0.000 C 
BRANCH  29  30
ATOM     30  C   UNL     1       2.776   7.515  18.560  0.00  0.00    +0.000 C 
ATOM     31  O   UNL     1       3.741   7.440  17.816  0.00  0.00    +0.000 OA
BRANCH  30  32
ATOM     32  O   UNL     1       2.654   6.870  19.764  0.00  0.00    +0.000 OA
BRANCH  32  34
ATOM     33  C   UNL     1       2.131   4.798  20.820  0.00  0.00    +0.000 C 
ATOM     34  C   UNL     1       2.982   5.473  19.761  0.00  0.00    +0.000 C 
ENDBRANCH  32  34
ENDBRANCH  30  32
ENDBRANCH  29  30
ENDBRANCH   1  29
TORSDOF 13
ENDMDL
MODEL 7
REMARK VINA RESULT:      -6.5      6.746     10.824
REMARK  Name = 
REMARK  18 active torsions:
REMARK  status: ('A' for Active; 'I' for Inactive)
REMARK    1  A    between atoms: C_1  and  C_2
REMARK    2  A    between atoms: C_2  and  O_3
REMARK    3  A    between atoms: O_3  and  C_4
REMARK    4  A    between atoms: C_4  and  C_6
REMARK    5  A    between atoms: C_6  and  C_7
REMARK    6  A    between atoms: C_8  and  C_9
REMARK    7  A    between atoms: C_9  and  O_11
REMARK    8  A    between atoms: O_11  and  C_12
REMARK    9  A    between atoms: C_12  and  C_13
REMARK   10  A    between atoms: C_14  and  C_15
REMARK   11  A    between atoms: C_17  and  O_18
REMARK   12  A    between atoms: O_18  and  C_19
REMARK   13  A    between atoms: C_20  and  O_21
REMARK   14  A    between atoms: O_21  and  C_22
REMARK   15  A    between atoms: C_24  and  O_25
REMARK   16  A    between atoms: O_25  and  C_26
REMARK   17  A    between atoms: C_27  and  C_28
REMARK   18  A    between atoms: C_30  and  N_31
REMARK                            x       y       z     vdW  Elec       q    Type
REMARK                         _______ _______ _______ _____ _____    ______ ____
ROOT
ATOM      1  C   UNL     1      -0.694  11.683  19.995  0.00  0.00    +0.000 C 
ATOM      2  C   UNL     1      -0.540  11.867  21.323  0.00  0.00    +0.000 C 
ATOM      3  C   UNL     1      -0.707  13.248  21.957  0.00  0.00    +0.000 C 
ATOM      4  C   UNL     1      -0.593  14.349  20.908  0.00  0.00    +0.000 C 
ATOM      5  C   UNL     1      -0.651  14.071  19.587  0.00  0.00    +0.000 C 
ATOM      6  O   UNL     1      -0.834  12.766  19.134  0.00  0.00    +0.000 OA
ENDROOT
BRANCH   3   7
ATOM      7  C   UNL     1      -2.060  13.366  22.682  0.00  0.00    +0.000 A 
ATOM      8  C   UNL     1      -3.165  12.768  22.021  0.00  0.00    +0.000 A 
ATOM      9  C   UNL     1      -4.482  12.850  22.479  0.00  0.00    +0.000 A 
ATOM     10  C   UNL     1      -4.746  13.576  23.642  0.00  0.00    +0.000 A 
ATOM     11  C   UNL     1      -3.671  14.175  24.309  0.00  0.00    +0.000 A 
ATOM     12  C   UNL     1      -2.339  14.085  23.850  0.00  0.00    +0.000 A 
BRANCH   9  13
ATOM     13  O   UNL     1      -5.534  12.283  21.798  0.00  0.00    +0.000 OA
ATOM     14  C   UNL     1      -5.766  12.791  20.484  0.00  0.00    +0.000 C 
ENDBRANCH   9  13
BRANCH  10  15
ATOM     15  O   UNL     1      -6.053  13.672  24.049  0.00  0.00    +0.000 OA
ATOM     16  C   UNL     1      -6.707  14.917  23.813  0.00  0.00    +0.000 C 
ENDBRANCH  10  15
BRANCH  12  17
ATOM     17  O   UNL     1      -1.517  14.898  24.578  0.00  0.00    +0.000 OA
ATOM     18  C   UNL     1      -1.935  15.375  25.841  0.00  0.00    +0.000 C 
ENDBRANCH  12  17
ENDBRANCH   3   7
BRANCH   5  19
ATOM     19  N   UNL     1      -0.603  14.989  18.568  0.00  0.00    +0.000 N 
ATOM     20  H   UNL     1      -1.263  15.759  18.637  0.00  0.00    +0.000 HD
ATOM     21  H   UNL     1      -0.591  14.552  17.650  0.00  0.00    +0.000 HD
ENDBRANCH   5  19
BRANCH   2  22
ATOM     22  C   UNL     1      -0.190  10.774  22.262  0.00  0.00    +0.000 C 
ATOM     23  O   UNL     1      -0.824  10.513  23.269  0.00  0.00    +0.000 OA
BRANCH  22  24
ATOM     24  O   UNL     1       1.045  10.298  21.960  0.00  0.00    +0.000 OA
BRANCH  24  25
ATOM     25  C   UNL     1       1.256   8.910  22.245  0.00  0.00    +0.000 C 
ATOM     26  C   UNL     1       1.421   8.202  20.912  0.00  0.00    +0.000 C 
ENDBRANCH  24  25
ENDBRANCH  22  24
ENDBRANCH   2  22
BRANCH   4  27
ATOM     27  C   UNL     1      -0.460  15.703  21.369  0.00  0.00    +0.000 C 
ATOM     28  N   UNL     1      -0.359  16.794  21.708  0.00  0.00    +0.000 NA
ENDBRANCH   4  27
BRANCH   1  29
ATOM     29  C   UNL     1      -0.932  10.359  19.309  0.00  0.00    +0.000 C 
BRANCH  29  30
ATOM     30  C   UNL     1      -1.859  10.401  18.110  0.00  0.00    +0.000 C 
ATOM     31  O   UNL     1      -1.595  10.060  16.968  0.00  0.00    +0.000 OA
BRANCH  30  32
ATOM     32  O   UNL     1      -3.033  10.989  18.508  0.00  0.00    +0.000 OA
BRANCH  32  34
ATOM     33  C   UNL     1      -4.741  11.728  17.019  0.00  0.00    +0.000 C 
ATOM     34  C   UNL     1      -4.215  10.552  17.822  0.00  0.00    +0.000 C 
ENDBRANCH  32  34
ENDBRANCH  30  32
ENDBRANCH  29  30
ENDBRANCH   1  29
TORSDOF 13
ENDMDL
MODEL 8
REMARK VINA RESULT:      -6.4      7.023      9.438
REMARK  Name = 
REMARK  18 active torsions:
REMARK  status: ('A' for Active; 'I' for Inactive)
REMARK    1  A    between atoms: C_1  and  C_2
REMARK    2  A    between atoms: C_2  and  O_3
REMARK    3  A    between atoms: O_3  and  C_4
REMARK    4  A    between atoms: C_4  and  C_6
REMARK    5  A    between atoms: C_6  and  C_7
REMARK    6  A    between atoms: C_8  and  C_9
REMARK    7  A    between atoms: C_9  and  O_11
REMARK    8  A    between atoms: O_11  and  C_12
REMARK    9  A    between atoms: C_12  and  C_13
REMARK   10  A    between atoms: C_14  and  C_15
REMARK   11  A    between atoms: C_17  and  O_18
REMARK   12  A    between atoms: O_18  and  C_19
REMARK   13  A    between atoms: C_20  and  O_21
REMARK   14  A    between atoms: O_21  and  C_22
REMARK   15  A    between atoms: C_24  and  O_25
REMARK   16  A    between atoms: O_25  and  C_26
REMARK   17  A    between atoms: C_27  and  C_28
REMARK   18  A    between atoms: C_30  and  N_31
REMARK                            x       y       z     vdW  Elec       q    Type
REMARK                         _______ _______ _______ _____ _____    ______ ____
ROOT
ATOM      1  C   UNL     1       1.272  13.225  19.179  0.00  0.00    +0.000 C 
ATOM      2  C   UNL     1      -0.006  13.655  19.235  0.00  0.00    +0.000 C 
ATOM      3  C   UNL     1      -1.177  12.680  19.110  0.00  0.00    +0.000 C 
ATOM      4  C   UNL     1      -0.729  11.363  18.483  0.00  0.00    +0.000 C 
ATOM      5  C   UNL     1       0.580  11.049  18.368  0.00  0.00    +0.000 C 
ATOM      6  O   UNL     1       1.571  11.912  18.832  0.00  0.00    +0.000 OA
ENDROOT
BRANCH   3   7
ATOM      7  C   UNL     1      -1.817  12.404  20.483  0.00  0.00    +0.000 A 
ATOM      8  C   UNL     1      -3.170  12.811  20.622  0.00  0.00    +0.000 A 
ATOM      9  C   UNL     1      -3.889  12.725  21.817  0.00  0.00    +0.000 A 
ATOM     10  C   UNL     1      -3.246  12.234  22.954  0.00  0.00    +0.000 A 
ATOM     11  C   UNL     1      -1.911  11.829  22.840  0.00  0.00    +0.000 A 
ATOM     12  C   UNL     1      -1.188  11.908  21.630  0.00  0.00    +0.000 A 
BRANCH   9  13
ATOM     13  O   UNL     1      -5.190  13.155  21.925  0.00  0.00    +0.000 OA
ATOM     14  C   UNL     1      -6.152  12.414  21.173  0.00  0.00    +0.000 C 
ENDBRANCH   9  13
BRANCH  10  15
ATOM     15  O   UNL     1      -3.962  12.196  24.124  0.00  0.00    +0.000 OA
ATOM     16  C   UNL     1      -3.838  13.323  24.988  0.00  0.00    +0.000 C 
ENDBRANCH  10  15
BRANCH  12  17
ATOM     17  O   UNL     1       0.132  11.619  21.832  0.00  0.00    +0.000 OA
ATOM     18  C   UNL     1       0.564  10.273  21.857  0.00  0.00    +0.000 C 
ENDBRANCH  12  17
ENDBRANCH   3   7
BRANCH   5  19
ATOM     19  N   UNL     1       1.085   9.878  17.861  0.00  0.00    +0.000 N 
ATOM     20  H   UNL     1       0.960   9.740  16.862  0.00  0.00    +0.000 HD
ATOM     21  H   UNL     1       0.819   9.068  18.414  0.00  0.00    +0.000 HD
ENDBRANCH   5  19
BRANCH   2  22
ATOM     22  C   UNL     1      -0.380  15.080  19.403  0.00  0.00    +0.000 C 
ATOM     23  O   UNL     1      -0.436  15.880  18.486  0.00  0.00    +0.000 OA
BRANCH  22  24
ATOM     24  O   UNL     1      -0.399  15.389  20.724  0.00  0.00    +0.000 OA
BRANCH  24  25
ATOM     25  C   UNL     1      -1.543  16.128  21.166  0.00  0.00    +0.000 C 
ATOM     26  C   UNL     1      -1.805  15.726  22.606  0.00  0.00    +0.000 C 
ENDBRANCH  24  25
ENDBRANCH  22  24
ENDBRANCH   2  22
BRANCH   4  27
ATOM     27  C   UNL     1      -1.746  10.445  18.053  0.00  0.00    +0.000 C 
ATOM     28  N   UNL     1      -2.545   9.711  17.681  0.00  0.00    +0.000 NA
ENDBRANCH   4  27
BRANCH   1  29
ATOM     29  C   UNL     1       2.483  13.991  19.657  0.00  0.00    +0.000 C 
BRANCH  29  30
ATOM     30  C   UNL     1       3.196  14.811  18.601  0.00  0.00    +0.000 C 
ATOM     31  O   UNL     1       2.838  15.882  18.139  0.00  0.00    +0.000 OA
BRANCH  30  32
ATOM     32  O   UNL     1       4.280  14.088  18.171  0.00  0.00    +0.000 OA
BRANCH  32  34
ATOM     33  C   UNL     1       6.257  15.061  19.079  0.00  0.00    +0.000 C 
ATOM     34  C   UNL     1       5.441  14.854  17.816  0.00  0.00    +0.000 C 
ENDBRANCH  32  34
ENDBRANCH  30  32
ENDBRANCH  29  30
ENDBRANCH   1  29
TORSDOF 13
ENDMDL
MODEL 9
REMARK VINA RESULT:      -6.4      5.111      9.540
REMARK  Name = 
REMARK  18 active torsions:
REMARK  status: ('A' for Active; 'I' for Inactive)
REMARK    1  A    between atoms: C_1  and  C_2
REMARK    2  A    between atoms: C_2  and  O_3
REMARK    3  A    between atoms: O_3  and  C_4
REMARK    4  A    between atoms: C_4  and  C_6
REMARK    5  A    between atoms: C_6  and  C_7
REMARK    6  A    between atoms: C_8  and  C_9
REMARK    7  A    between atoms: C_9  and  O_11
REMARK    8  A    between atoms: O_11  and  C_12
REMARK    9  A    between atoms: C_12  and  C_13
REMARK   10  A    between atoms: C_14  and  C_15
REMARK   11  A    between atoms: C_17  and  O_18
REMARK   12  A    between atoms: O_18  and  C_19
REMARK   13  A    between atoms: C_20  and  O_21
REMARK   14  A    between atoms: O_21  and  C_22
REMARK   15  A    between atoms: C_24  and  O_25
REMARK   16  A    between atoms: O_25  and  C_26
REMARK   17  A    between atoms: C_27  and  C_28
REMARK   18  A    between atoms: C_30  and  N_31
REMARK                            x       y       z     vdW  Elec       q    Type
REMARK                         _______ _______ _______ _____ _____    ______ ____
ROOT
ATOM      1  C   UNL     1      -2.011  12.545  19.595  0.00  0.00    +0.000 C 
ATOM      2  C   UNL     1      -1.458  11.720  18.681  0.00  0.00    +0.000 C 
ATOM      3  C   UNL     1       0.054  11.689  18.454  0.00  0.00    +0.000 C 
ATOM      4  C   UNL     1       0.717  12.947  19.004  0.00  0.00    +0.000 C 
ATOM      5  C   UNL     1       0.058  13.783  19.836  0.00  0.00    +0.000 C 
ATOM      6  O   UNL     1      -1.250  13.517  20.236  0.00  0.00    +0.000 OA
ENDROOT
BRANCH   3   7
ATOM      7  C   UNL     1       0.687  10.447  19.107  0.00  0.00    +0.000 A 
ATOM      8  C   UNL     1       1.304   9.531  18.216  0.00  0.00    +0.000 A 
ATOM      9  C   UNL     1       1.851   8.308  18.613  0.00  0.00    +0.000 A 
ATOM     10  C   UNL     1       1.773   7.941  19.958  0.00  0.00    +0.000 A 
ATOM     11  C   UNL     1       1.167   8.829  20.854  0.00  0.00    +0.000 A 
ATOM     12  C   UNL     1       0.622  10.069  20.454  0.00  0.00    +0.000 A 
BRANCH   9  13
ATOM     13  O   UNL     1       2.416   7.430  17.718  0.00  0.00    +0.000 OA
ATOM     14  C   UNL     1       3.821   7.575  17.512  0.00  0.00    +0.000 C 
ENDBRANCH   9  13
BRANCH  10  15
ATOM     15  O   UNL     1       2.283   6.718  20.315  0.00  0.00    +0.000 OA
ATOM     16  C   UNL     1       1.346   5.735  20.747  0.00  0.00    +0.000 C 
ENDBRANCH  10  15
BRANCH  12  17
ATOM     17  O   UNL     1      -0.060  10.656  21.481  0.00  0.00    +0.000 OA
ATOM     18  C   UNL     1      -0.274   9.945  22.684  0.00  0.00    +0.000 C 
ENDBRANCH  12  17
ENDBRANCH   3   7
BRANCH   5  19
ATOM     19  N   UNL     1       0.575  14.913  20.418  0.00  0.00    +0.000 N 
ATOM     20  H   UNL     1       1.485  14.805  20.858  0.00  0.00    +0.000 HD
ATOM     21  H   UNL     1      -0.101  15.392  21.008  0.00  0.00    +0.000 HD
ENDBRANCH   5  19
BRANCH   2  22
ATOM     22  C   UNL     1      -2.249  10.804  17.825  0.00  0.00    +0.000 C 
ATOM     23  O   UNL     1      -2.578   9.679  18.155  0.00  0.00    +0.000 OA
BRANCH  22  24
ATOM     24  O   UNL     1      -2.325  11.314  16.568  0.00  0.00    +0.000 OA
BRANCH  24  25
ATOM     25  C   UNL     1      -3.496  10.952  15.828  0.00  0.00    +0.000 C 
ATOM     26  C   UNL     1      -3.036  10.123  14.642  0.00  0.00    +0.000 C 
ENDBRANCH  24  25
ENDBRANCH  22  24
ENDBRANCH   2  22
BRANCH   4  27
ATOM     27  C   UNL     1       2.083  13.199  18.640  0.00  0.00    +0.000 C 
ATOM     28  N   UNL     1       3.174  13.426  18.366  0.00  0.00    +0.000 NA
ENDBRANCH   4  27
BRANCH   1  29
ATOM     29  C   UNL     1      -3.398  12.412  20.179  0.00  0.00    +0.000 C 
BRANCH  29  30
ATOM     30  C   UNL     1      -3.548  12.867  21.616  0.00  0.00    +0.000 C 
ATOM     31  O   UNL     1      -3.232  12.246  22.619  0.00  0.00    +0.000 OA
BRANCH  30  32
ATOM     32  O   UNL     1      -4.202  14.073  21.608  0.00  0.00    +0.000 OA
BRANCH  32  34
ATOM     33  C   UNL     1      -4.153  16.435  21.927  0.00  0.00    +0.000 C 
ATOM     34  C   UNL     1      -3.626  15.102  22.426  0.00  0.00    +0.000 C 
ENDBRANCH  32  34
ENDBRANCH  30  32
ENDBRANCH  29  30
ENDBRANCH   1  29
TORSDOF 13
ENDMDL
