MODEL 1
REMARK VINA RESULT:      -7.9      0.000      0.000
REMARK  Name = 
REMARK  4 active torsions:
REMARK  status: ('A' for Active; 'I' for Inactive)
REMARK    1  A    between atoms: C_2  and  C_3
REMARK    2  A    between atoms: C_3  and  N_4
REMARK    3  A    between atoms: C_7  and  C_8
REMARK    4  A    between atoms: C_14  and  C_15
REMARK                            x       y       z     vdW  Elec       q    Type
REMARK                         _______ _______ _______ _____ _____    ______ ____
ROOT
ATOM      1  N   UNL     1       4.796   5.395  16.904  0.00  0.00    +0.000 N 
ATOM      2  C   UNL     1       5.153   6.664  16.533  0.00  0.00    +0.000 A 
ATOM      3  N   UNL     1       4.386   7.567  17.085  0.00  0.00    +0.000 NA
ATOM      4  C   UNL     1       3.522   6.873  17.897  0.00  0.00    +0.000 A 
ATOM      5  C   UNL     1       3.718   5.489  17.781  0.00  0.00    +0.000 A 
ENDROOT
BRANCH   4   6
ATOM      6  C   UNL     1       2.538   7.572  18.720  0.00  0.00    +0.000 A 
ATOM      7  C   UNL     1       2.245   7.085  20.003  0.00  0.00    +0.000 A 
ATOM      8  C   UNL     1       1.362   7.775  20.841  0.00  0.00    +0.000 A 
ATOM      9  C   UNL     1       0.767   8.954  20.410  0.00  0.00    +0.000 A 
ATOM     10  C   UNL     1       1.022   9.433  19.123  0.00  0.00    +0.000 A 
ATOM     11  C   UNL     1       1.876   8.724  18.282  0.00  0.00    +0.000 A 
ENDBRANCH   4   6
BRANCH   5  12
ATOM     12  C   UNL     1       3.002   4.357  18.403  0.00  0.00    +0.000 A 
ATOM     13  C   UNL     1       1.736   3.973  17.926  0.00  0.00    +0.000 A 
ATOM     14  C   UNL     1       0.959   3.032  18.608  0.00  0.00    +0.000 A 
ATOM     15  C   UNL     1       1.465   2.399  19.737  0.00  0.00    +0.000 A 
ATOM     16  C   UNL     1       2.742   2.714  20.188  0.00  0.00    +0.000 A 
ATOM     17  C   UNL     1       3.492   3.704  19.542  0.00  0.00    +0.000 A 
ENDBRANCH   5  12
BRANCH   1  18
ATOM     18  C   UNL     1       5.452   4.178  16.459  0.00  0.00    +0.000 C 
BRANCH  18  20
ATOM     19  O   UNL     1       7.739   4.442  15.875  0.00  0.00    +0.000 OA
ATOM     20  C   UNL     1       6.581   4.374  15.460  0.00  0.00    +0.000 C 
ATOM     21  N   UNL     1       6.284   4.478  14.109  0.00  0.00    +0.000 N 
ATOM     22  C   UNL     1       4.955   4.424  13.503  0.00  0.00    +0.000 C 
ATOM     23  C   UNL     1       4.863   3.237  12.545  0.00  0.00    +0.000 C 
ATOM     24  C   UNL     1       5.993   3.272  11.511  0.00  0.00    +0.000 C 
ATOM     25  C   UNL     1       7.359   3.405  12.183  0.00  0.00    +0.000 C 
ATOM     26  C   UNL     1       7.383   4.590  13.149  0.00  0.00    +0.000 C 
ENDBRANCH  18  20
ENDBRANCH   1  18
TORSDOF 4
ENDMDL
MODEL 2
REMARK VINA RESULT:      -7.8      3.021      7.392
REMARK  Name = 
REMARK  4 active torsions:
REMARK  status: ('A' for Active; 'I' for Inactive)
REMARK    1  A    between atoms: C_2  and  C_3
REMARK    2  A    between atoms: C_3  and  N_4
REMARK    3  A    between atoms: C_7  and  C_8
REMARK    4  A    between atoms: C_14  and  C_15
REMARK                            x       y       z     vdW  Elec       q    Type
REMARK                         _______ _______ _______ _____ _____    ______ ____
ROOT
ATOM      1  N   UNL     1       1.844   7.616  19.632  0.00  0.00    +0.000 N 
ATOM      2  C   UNL     1       2.357   8.592  18.821  0.00  0.00    +0.000 A 
ATOM      3  N   UNL     1       3.191   8.105  17.938  0.00  0.00    +0.000 NA
ATOM      4  C   UNL     1       3.188   6.746  18.138  0.00  0.00    +0.000 A 
ATOM      5  C   UNL     1       2.381   6.395  19.229  0.00  0.00    +0.000 A 
ENDROOT
BRANCH   4   6
ATOM      6  C   UNL     1       3.979   5.860  17.288  0.00  0.00    +0.000 A 
ATOM      7  C   UNL     1       4.861   6.415  16.348  0.00  0.00    +0.000 A 
ATOM      8  C   UNL     1       5.684   5.591  15.572  0.00  0.00    +0.000 A 
ATOM      9  C   UNL     1       5.637   4.212  15.728  0.00  0.00    +0.000 A 
ATOM     10  C   UNL     1       4.741   3.642  16.635  0.00  0.00    +0.000 A 
ATOM     11  C   UNL     1       3.901   4.465  17.380  0.00  0.00    +0.000 A 
ENDBRANCH   4   6
BRANCH   5  12
ATOM     12  C   UNL     1       2.116   5.082  19.852  0.00  0.00    +0.000 A 
ATOM     13  C   UNL     1       1.235   4.174  19.240  0.00  0.00    +0.000 A 
ATOM     14  C   UNL     1       0.825   3.008  19.894  0.00  0.00    +0.000 A 
ATOM     15  C   UNL     1       1.348   2.690  21.142  0.00  0.00    +0.000 A 
ATOM     16  C   UNL     1       2.273   3.541  21.737  0.00  0.00    +0.000 A 
ATOM     17  C   UNL     1       2.632   4.739  21.110  0.00  0.00    +0.000 A 
ENDBRANCH   5  12
BRANCH   1  18
ATOM     18  C   UNL     1       0.896   7.837  20.710  0.00  0.00    +0.000 C 
BRANCH  18  20
ATOM     19  O   UNL     1       1.691   9.422  22.290  0.00  0.00    +0.000 OA
ATOM     20  C   UNL     1       0.935   9.221  21.338  0.00  0.00    +0.000 C 
ATOM     21  N   UNL     1       0.120  10.222  20.830  0.00  0.00    +0.000 N 
ATOM     22  C   UNL     1      -0.820  10.099  19.718  0.00  0.00    +0.000 C 
ATOM     23  C   UNL     1      -0.423  11.048  18.588  0.00  0.00    +0.000 C 
ATOM     24  C   UNL     1      -0.281  12.486  19.097  0.00  0.00    +0.000 C 
ATOM     25  C   UNL     1       0.650  12.559  20.308  0.00  0.00    +0.000 C 
ATOM     26  C   UNL     1       0.221  11.570  21.391  0.00  0.00    +0.000 C 
ENDBRANCH  18  20
ENDBRANCH   1  18
TORSDOF 4
ENDMDL
MODEL 3
REMARK VINA RESULT:      -7.8      1.636      3.352
REMARK  Name = 
REMARK  4 active torsions:
REMARK  status: ('A' for Active; 'I' for Inactive)
REMARK    1  A    between atoms: C_2  and  C_3
REMARK    2  A    between atoms: C_3  and  N_4
REMARK    3  A    between atoms: C_7  and  C_8
REMARK    4  A    between atoms: C_14  and  C_15
REMARK                            x       y       z     vdW  Elec       q    Type
REMARK                         _______ _______ _______ _____ _____    ______ ____
ROOT
ATOM      1  N   UNL     1       4.539   4.013  17.026  0.00  0.00    +0.000 N 
ATOM      2  C   UNL     1       3.229   3.630  16.921  0.00  0.00    +0.000 A 
ATOM      3  N   UNL     1       2.421   4.497  17.473  0.00  0.00    +0.000 NA
ATOM      4  C   UNL     1       3.224   5.521  17.915  0.00  0.00    +0.000 A 
ATOM      5  C   UNL     1       4.578   5.237  17.691  0.00  0.00    +0.000 A 
ENDROOT
BRANCH   4   6
ATOM      6  C   UNL     1       2.651   6.705  18.551  0.00  0.00    +0.000 A 
ATOM      7  C   UNL     1       2.437   7.861  17.785  0.00  0.00    +0.000 A 
ATOM      8  C   UNL     1       1.823   8.985  18.350  0.00  0.00    +0.000 A 
ATOM      9  C   UNL     1       1.415   8.964  19.677  0.00  0.00    +0.000 A 
ATOM     10  C   UNL     1       1.651   7.833  20.462  0.00  0.00    +0.000 A 
ATOM     11  C   UNL     1       2.293   6.731  19.904  0.00  0.00    +0.000 A 
ENDBRANCH   4   6
BRANCH   5  12
ATOM     12  C   UNL     1       5.796   5.997  18.041  0.00  0.00    +0.000 A 
ATOM     13  C   UNL     1       6.154   7.138  17.302  0.00  0.00    +0.000 A 
ATOM     14  C   UNL     1       7.389   7.766  17.491  0.00  0.00    +0.000 A 
ATOM     15  C   UNL     1       8.257   7.311  18.476  0.00  0.00    +0.000 A 
ATOM     16  C   UNL     1       7.894   6.224  19.265  0.00  0.00    +0.000 A 
ATOM     17  C   UNL     1       6.686   5.557  19.030  0.00  0.00    +0.000 A 
ENDBRANCH   5  12
BRANCH   1  18
ATOM     18  C   UNL     1       5.673   3.263  16.515  0.00  0.00    +0.000 C 
BRANCH  18  20
ATOM     19  O   UNL     1       7.730   4.393  16.146  0.00  0.00    +0.000 OA
ATOM     20  C   UNL     1       6.647   4.059  15.662  0.00  0.00    +0.000 C 
ATOM     21  N   UNL     1       6.297   4.394  14.362  0.00  0.00    +0.000 N 
ATOM     22  C   UNL     1       5.043   4.066  13.686  0.00  0.00    +0.000 C 
ATOM     23  C   UNL     1       5.319   3.192  12.463  0.00  0.00    +0.000 C 
ATOM     24  C   UNL     1       6.347   3.849  11.535  0.00  0.00    +0.000 C 
ATOM     25  C   UNL     1       7.611   4.246  12.297  0.00  0.00    +0.000 C 
ATOM     26  C   UNL     1       7.271   5.093  13.523  0.00  0.00    +0.000 C 
ENDBRANCH  18  20
ENDBRANCH   1  18
TORSDOF 4
ENDMDL
MODEL 4
REMARK VINA RESULT:      -7.6      0.158      1.343
REMARK  Name = 
REMARK  4 active torsions:
REMARK  status: ('A' for Active; 'I' for Inactive)
REMARK    1  A    between atoms: C_2  and  C_3
REMARK    2  A    between atoms: C_3  and  N_4
REMARK    3  A    between atoms: C_7  and  C_8
REMARK    4  A    between atoms: C_14  and  C_15
REMARK                            x       y       z     vdW  Elec       q    Type
REMARK                         _______ _______ _______ _____ _____    ______ ____
ROOT
ATOM      1  N   UNL     1       4.696   5.411  16.865  0.00  0.00    +0.000 N 
ATOM      2  C   UNL     1       5.072   6.664  16.461  0.00  0.00    +0.000 A 
ATOM      3  N   UNL     1       4.347   7.595  17.023  0.00  0.00    +0.000 NA
ATOM      4  C   UNL     1       3.493   6.936  17.874  0.00  0.00    +0.000 A 
ATOM      5  C   UNL     1       3.651   5.547  17.775  0.00  0.00    +0.000 A 
ENDROOT
BRANCH   4   6
ATOM      6  C   UNL     1       2.555   7.673  18.717  0.00  0.00    +0.000 A 
ATOM      7  C   UNL     1       1.924   8.818  18.206  0.00  0.00    +0.000 A 
ATOM      8  C   UNL     1       0.966   9.501  18.965  0.00  0.00    +0.000 A 
ATOM      9  C   UNL     1       0.629   9.048  20.234  0.00  0.00    +0.000 A 
ATOM     10  C   UNL     1       1.273   7.931  20.770  0.00  0.00    +0.000 A 
ATOM     11  C   UNL     1       2.248   7.275  20.024  0.00  0.00    +0.000 A 
ENDBRANCH   4   6
BRANCH   5  12
ATOM     12  C   UNL     1       2.927   4.443  18.439  0.00  0.00    +0.000 A 
ATOM     13  C   UNL     1       3.501   3.782  19.539  0.00  0.00    +0.000 A 
ATOM     14  C   UNL     1       2.927   2.621  20.067  0.00  0.00    +0.000 A 
ATOM     15  C   UNL     1       1.726   2.144  19.556  0.00  0.00    +0.000 A 
ATOM     16  C   UNL     1       1.106   2.820  18.511  0.00  0.00    +0.000 A 
ATOM     17  C   UNL     1       1.716   3.944  17.940  0.00  0.00    +0.000 A 
ENDBRANCH   5  12
BRANCH   1  18
ATOM     18  C   UNL     1       5.306   4.170  16.419  0.00  0.00    +0.000 C 
BRANCH  18  20
ATOM     19  O   UNL     1       7.619   4.353  15.910  0.00  0.00    +0.000 OA
ATOM     20  C   UNL     1       6.473   4.327  15.457  0.00  0.00    +0.000 C 
ATOM     21  N   UNL     1       6.224   4.441  14.097  0.00  0.00    +0.000 N 
ATOM     22  C   UNL     1       4.914   4.436  13.448  0.00  0.00    +0.000 C 
ATOM     23  C   UNL     1       4.810   3.253  12.486  0.00  0.00    +0.000 C 
ATOM     24  C   UNL     1       5.974   3.248  11.489  0.00  0.00    +0.000 C 
ATOM     25  C   UNL     1       7.321   3.333  12.206  0.00  0.00    +0.000 C 
ATOM     26  C   UNL     1       7.357   4.515  13.173  0.00  0.00    +0.000 C 
ENDBRANCH  18  20
ENDBRANCH   1  18
TORSDOF 4
ENDMDL
MODEL 5
REMARK VINA RESULT:      -7.5      3.093      7.460
REMARK  Name = 
REMARK  4 active torsions:
REMARK  status: ('A' for Active; 'I' for Inactive)
REMARK    1  A    between atoms: C_2  and  C_3
REMARK    2  A    between atoms: C_3  and  N_4
REMARK    3  A    between atoms: C_7  and  C_8
REMARK    4  A    between atoms: C_14  and  C_15
REMARK                            x       y       z     vdW  Elec       q    Type
REMARK                         _______ _______ _______ _____ _____    ______ ____
ROOT
ATOM      1  N   UNL     1       1.728   7.693  19.752  0.00  0.00    +0.000 N 
ATOM      2  C   UNL     1       2.287   8.644  18.942  0.00  0.00    +0.000 A 
ATOM      3  N   UNL     1       3.129   8.124  18.088  0.00  0.00    +0.000 NA
ATOM      4  C   UNL     1       3.085   6.768  18.304  0.00  0.00    +0.000 A 
ATOM      5  C   UNL     1       2.241   6.453  19.378  0.00  0.00    +0.000 A 
ENDROOT
BRANCH   4   6
ATOM      6  C   UNL     1       3.873   5.850  17.486  0.00  0.00    +0.000 A 
ATOM      7  C   UNL     1       3.658   4.468  17.601  0.00  0.00    +0.000 A 
ATOM      8  C   UNL     1       4.347   3.570  16.778  0.00  0.00    +0.000 A 
ATOM      9  C   UNL     1       5.250   4.040  15.834  0.00  0.00    +0.000 A 
ATOM     10  C   UNL     1       5.500   5.410  15.729  0.00  0.00    +0.000 A 
ATOM     11  C   UNL     1       4.837   6.296  16.574  0.00  0.00    +0.000 A 
ENDBRANCH   4   6
BRANCH   5  12
ATOM     12  C   UNL     1       1.926   5.155  20.010  0.00  0.00    +0.000 A 
ATOM     13  C   UNL     1       2.576   4.769  21.195  0.00  0.00    +0.000 A 
ATOM     14  C   UNL     1       2.435   3.477  21.711  0.00  0.00    +0.000 A 
ATOM     15  C   UNL     1       1.580   2.571  21.096  0.00  0.00    +0.000 A 
ATOM     16  C   UNL     1       0.875   2.954  19.960  0.00  0.00    +0.000 A 
ATOM     17  C   UNL     1       1.067   4.225  19.407  0.00  0.00    +0.000 A 
ENDBRANCH   5  12
BRANCH   1  18
ATOM     18  C   UNL     1       0.758   7.953  20.802  0.00  0.00    +0.000 C 
BRANCH  18  20
ATOM     19  O   UNL     1       1.563   9.533  22.382  0.00  0.00    +0.000 OA
ATOM     20  C   UNL     1       0.821   9.341  21.417  0.00  0.00    +0.000 C 
ATOM     21  N   UNL     1       0.043  10.358  20.883  0.00  0.00    +0.000 N 
ATOM     22  C   UNL     1      -0.879  10.248  19.753  0.00  0.00    +0.000 C 
ATOM     23  C   UNL     1      -0.435  11.174  18.622  0.00  0.00    +0.000 C 
ATOM     24  C   UNL     1      -0.266  12.613  19.120  0.00  0.00    +0.000 C 
ATOM     25  C   UNL     1       0.643  12.674  20.347  0.00  0.00    +0.000 C 
ATOM     26  C   UNL     1       0.168  11.709  21.432  0.00  0.00    +0.000 C 
ENDBRANCH  18  20
ENDBRANCH   1  18
TORSDOF 4
ENDMDL
MODEL 6
REMARK VINA RESULT:      -7.4      2.863      7.673
REMARK  Name = 
REMARK  4 active torsions:
REMARK  status: ('A' for Active; 'I' for Inactive)
REMARK    1  A    between atoms: C_2  and  C_3
REMARK    2  A    between atoms: C_3  and  N_4
REMARK    3  A    between atoms: C_7  and  C_8
REMARK    4  A    between atoms: C_14  and  C_15
REMARK                            x       y       z     vdW  Elec       q    Type
REMARK                         _______ _______ _______ _____ _____    ______ ____
ROOT
ATOM      1  N   UNL     1       2.196   7.854  18.458  0.00  0.00    +0.000 N 
ATOM      2  C   UNL     1       2.963   8.756  17.773  0.00  0.00    +0.000 A 
ATOM      3  N   UNL     1       4.052   8.211  17.297  0.00  0.00    +0.000 NA
ATOM      4  C   UNL     1       3.976   6.881  17.633  0.00  0.00    +0.000 A 
ATOM      5  C   UNL     1       2.837   6.617  18.407  0.00  0.00    +0.000 A 
ENDROOT
BRANCH   4   6
ATOM      6  C   UNL     1       5.012   5.940  17.217  0.00  0.00    +0.000 A 
ATOM      7  C   UNL     1       5.018   5.462  15.897  0.00  0.00    +0.000 A 
ATOM      8  C   UNL     1       6.040   4.617  15.450  0.00  0.00    +0.000 A 
ATOM      9  C   UNL     1       7.064   4.245  16.311  0.00  0.00    +0.000 A 
ATOM     10  C   UNL     1       7.055   4.684  17.637  0.00  0.00    +0.000 A 
ATOM     11  C   UNL     1       6.017   5.497  18.085  0.00  0.00    +0.000 A 
ENDBRANCH   4   6
BRANCH   5  12
ATOM     12  C   UNL     1       2.368   5.368  19.041  0.00  0.00    +0.000 A 
ATOM     13  C   UNL     1       1.770   4.362  18.263  0.00  0.00    +0.000 A 
ATOM     14  C   UNL     1       1.153   3.256  18.857  0.00  0.00    +0.000 A 
ATOM     15  C   UNL     1       1.191   3.097  20.238  0.00  0.00    +0.000 A 
ATOM     16  C   UNL     1       1.835   4.047  21.022  0.00  0.00    +0.000 A 
ATOM     17  C   UNL     1       2.394   5.186  20.431  0.00  0.00    +0.000 A 
ENDBRANCH   5  12
BRANCH   1  18
ATOM     18  C   UNL     1       0.931   8.152  19.106  0.00  0.00    +0.000 C 
BRANCH  18  20
ATOM     19  O   UNL     1       0.515  10.401  18.467  0.00  0.00    +0.000 OA
ATOM     20  C   UNL     1       0.684   9.621  19.406  0.00  0.00    +0.000 C 
ATOM     21  N   UNL     1       0.657  10.052  20.725  0.00  0.00    +0.000 N 
ATOM     22  C   UNL     1       0.854   9.226  21.915  0.00  0.00    +0.000 C 
ATOM     23  C   UNL     1      -0.399   9.258  22.789  0.00  0.00    +0.000 C 
ATOM     24  C   UNL     1      -0.807  10.698  23.118  0.00  0.00    +0.000 C 
ATOM     25  C   UNL     1      -0.927  11.546  21.852  0.00  0.00    +0.000 C 
ATOM     26  C   UNL     1       0.342  11.454  21.006  0.00  0.00    +0.000 C 
ENDBRANCH  18  20
ENDBRANCH   1  18
TORSDOF 4
ENDMDL
MODEL 7
REMARK VINA RESULT:      -7.4      1.467      2.180
REMARK  Name = 
REMARK  4 active torsions:
REMARK  status: ('A' for Active; 'I' for Inactive)
REMARK    1  A    between atoms: C_2  and  C_3
REMARK    2  A    between atoms: C_3  and  N_4
REMARK    3  A    between atoms: C_7  and  C_8
REMARK    4  A    between atoms: C_14  and  C_15
REMARK                            x       y       z     vdW  Elec       q    Type
REMARK                         _______ _______ _______ _____ _____    ______ ____
ROOT
ATOM      1  N   UNL     1       4.322   5.835  18.051  0.00  0.00    +0.000 N 
ATOM      2  C   UNL     1       4.706   7.000  17.444  0.00  0.00    +0.000 A 
ATOM      3  N   UNL     1       3.856   7.968  17.664  0.00  0.00    +0.000 NA
ATOM      4  C   UNL     1       2.899   7.438  18.495  0.00  0.00    +0.000 A 
ATOM      5  C   UNL     1       3.131   6.076  18.732  0.00  0.00    +0.000 A 
ENDROOT
BRANCH   4   6
ATOM      6  C   UNL     1       1.799   8.258  18.995  0.00  0.00    +0.000 A 
ATOM      7  C   UNL     1       1.460   8.199  20.356  0.00  0.00    +0.000 A 
ATOM      8  C   UNL     1       0.459   9.028  20.877  0.00  0.00    +0.000 A 
ATOM      9  C   UNL     1      -0.207   9.922  20.049  0.00  0.00    +0.000 A 
ATOM     10  C   UNL     1       0.095   9.969  18.686  0.00  0.00    +0.000 A 
ATOM     11  C   UNL     1       1.067   9.119  18.168  0.00  0.00    +0.000 A 
ENDBRANCH   4   6
BRANCH   5  12
ATOM     12  C   UNL     1       2.353   5.083  19.501  0.00  0.00    +0.000 A 
ATOM     13  C   UNL     1       2.637   4.861  20.860  0.00  0.00    +0.000 A 
ATOM     14  C   UNL     1       2.048   3.804  21.561  0.00  0.00    +0.000 A 
ATOM     15  C   UNL     1       1.103   2.997  20.938  0.00  0.00    +0.000 A 
ATOM     16  C   UNL     1       0.757   3.241  19.613  0.00  0.00    +0.000 A 
ATOM     17  C   UNL     1       1.397   4.257  18.894  0.00  0.00    +0.000 A 
ENDBRANCH   5  12
BRANCH   1  18
ATOM     18  C   UNL     1       5.053   4.581  17.993  0.00  0.00    +0.000 C 
BRANCH  18  20
ATOM     19  O   UNL     1       3.824   3.165  16.534  0.00  0.00    +0.000 OA
ATOM     20  C   UNL     1       4.875   3.783  16.711  0.00  0.00    +0.000 C 
ATOM     21  N   UNL     1       5.898   3.765  15.774  0.00  0.00    +0.000 N 
ATOM     22  C   UNL     1       7.187   4.446  15.878  0.00  0.00    +0.000 C 
ATOM     23  C   UNL     1       7.339   5.460  14.744  0.00  0.00    +0.000 C 
ATOM     24  C   UNL     1       7.119   4.799  13.379  0.00  0.00    +0.000 C 
ATOM     25  C   UNL     1       5.796   4.034  13.338  0.00  0.00    +0.000 C 
ATOM     26  C   UNL     1       5.688   3.058  14.509  0.00  0.00    +0.000 C 
ENDBRANCH  18  20
ENDBRANCH   1  18
TORSDOF 4
ENDMDL
MODEL 8
REMARK VINA RESULT:      -7.3      2.802      7.734
REMARK  Name = 
REMARK  4 active torsions:
REMARK  status: ('A' for Active; 'I' for Inactive)
REMARK    1  A    between atoms: C_2  and  C_3
REMARK    2  A    between atoms: C_3  and  N_4
REMARK    3  A    between atoms: C_7  and  C_8
REMARK    4  A    between atoms: C_14  and  C_15
REMARK                            x       y       z     vdW  Elec       q    Type
REMARK                         _______ _______ _______ _____ _____    ______ ____
ROOT
ATOM      1  N   UNL     1       2.240   7.700  18.827  0.00  0.00    +0.000 N 
ATOM      2  C   UNL     1       2.905   8.604  18.044  0.00  0.00    +0.000 A 
ATOM      3  N   UNL     1       3.810   8.029  17.296  0.00  0.00    +0.000 NA
ATOM      4  C   UNL     1       3.704   6.685  17.555  0.00  0.00    +0.000 A 
ATOM      5  C   UNL     1       2.750   6.433  18.551  0.00  0.00    +0.000 A 
ENDROOT
BRANCH   4   6
ATOM      6  C   UNL     1       4.541   5.715  16.852  0.00  0.00    +0.000 A 
ATOM      7  C   UNL     1       4.681   4.421  17.376  0.00  0.00    +0.000 A 
ATOM      8  C   UNL     1       5.417   3.450  16.686  0.00  0.00    +0.000 A 
ATOM      9  C   UNL     1       6.014   3.760  15.471  0.00  0.00    +0.000 A 
ATOM     10  C   UNL     1       5.911   5.053  14.953  0.00  0.00    +0.000 A 
ATOM     11  C   UNL     1       5.207   6.023  15.660  0.00  0.00    +0.000 A 
ENDBRANCH   4   6
BRANCH   5  12
ATOM     12  C   UNL     1       2.335   5.170  19.195  0.00  0.00    +0.000 A 
ATOM     13  C   UNL     1       1.512   4.262  18.506  0.00  0.00    +0.000 A 
ATOM     14  C   UNL     1       0.956   3.154  19.151  0.00  0.00    +0.000 A 
ATOM     15  C   UNL     1       1.274   2.889  20.478  0.00  0.00    +0.000 A 
ATOM     16  C   UNL     1       2.140   3.737  21.160  0.00  0.00    +0.000 A 
ATOM     17  C   UNL     1       2.643   4.882  20.532  0.00  0.00    +0.000 A 
ENDBRANCH   5  12
BRANCH   1  18
ATOM     18  C   UNL     1       1.181   8.026  19.766  0.00  0.00    +0.000 C 
BRANCH  18  20
ATOM     19  O   UNL     1       0.496  10.020  18.672  0.00  0.00    +0.000 OA
ATOM     20  C   UNL     1       0.723   9.475  19.754  0.00  0.00    +0.000 C 
ATOM     21  N   UNL     1       0.575  10.153  20.955  0.00  0.00    +0.000 N 
ATOM     22  C   UNL     1       0.825   9.618  22.293  0.00  0.00    +0.000 C 
ATOM     23  C   UNL     1      -0.462   9.646  23.118  0.00  0.00    +0.000 C 
ATOM     24  C   UNL     1      -1.076  11.050  23.137  0.00  0.00    +0.000 C 
ATOM     25  C   UNL     1      -1.249  11.602  21.722  0.00  0.00    +0.000 C 
ATOM     26  C   UNL     1       0.061  11.523  20.938  0.00  0.00    +0.000 C 
ENDBRANCH  18  20
ENDBRANCH   1  18
TORSDOF 4
ENDMDL
MODEL 9
REMARK VINA RESULT:      -7.3      3.178      5.553
REMARK  Name = 
REMARK  4 active torsions:
REMARK  status: ('A' for Active; 'I' for Inactive)
REMARK    1  A    between atoms: C_2  and  C_3
REMARK    2  A    between atoms: C_3  and  N_4
REMARK    3  A    between atoms: C_7  and  C_8
REMARK    4  A    between atoms: C_14  and  C_15
REMARK                            x       y       z     vdW  Elec       q    Type
REMARK                         _______ _______ _______ _____ _____    ______ ____
ROOT
ATOM      1  N   UNL     1       2.217   7.779  19.033  0.00  0.00    +0.000 N 
ATOM      2  C   UNL     1       2.516   8.093  17.735  0.00  0.00    +0.000 A 
ATOM      3  N   UNL     1       2.076   9.279  17.405  0.00  0.00    +0.000 NA
ATOM      4  C   UNL     1       1.510   9.793  18.546  0.00  0.00    +0.000 A 
ATOM      5  C   UNL     1       1.539   8.860  19.592  0.00  0.00    +0.000 A 
ENDROOT
BRANCH   4   6
ATOM      6  C   UNL     1       0.949  11.141  18.565  0.00  0.00    +0.000 A 
ATOM      7  C   UNL     1       1.814  12.246  18.615  0.00  0.00    +0.000 A 
ATOM      8  C   UNL     1       1.307  13.549  18.561  0.00  0.00    +0.000 A 
ATOM      9  C   UNL     1      -0.060  13.763  18.453  0.00  0.00    +0.000 A 
ATOM     10  C   UNL     1      -0.937  12.675  18.435  0.00  0.00    +0.000 A 
ATOM     11  C   UNL     1      -0.429  11.382  18.524  0.00  0.00    +0.000 A 
ENDBRANCH   4   6
BRANCH   5  12
ATOM     12  C   UNL     1       1.007   8.935  20.968  0.00  0.00    +0.000 A 
ATOM     13  C   UNL     1      -0.379   8.882  21.194  0.00  0.00    +0.000 A 
ATOM     14  C   UNL     1      -0.919   9.134  22.459  0.00  0.00    +0.000 A 
ATOM     15  C   UNL     1      -0.077   9.368  23.540  0.00  0.00    +0.000 A 
ATOM     16  C   UNL     1       1.301   9.358  23.353  0.00  0.00    +0.000 A 
ATOM     17  C   UNL     1       1.836   9.171  22.074  0.00  0.00    +0.000 A 
ENDBRANCH   5  12
BRANCH   1  18
ATOM     18  C   UNL     1       2.568   6.535  19.696  0.00  0.00    +0.000 C 
BRANCH  18  20
ATOM     19  O   UNL     1       4.733   5.837  19.012  0.00  0.00    +0.000 OA
ATOM     20  C   UNL     1       3.521   5.634  18.927  0.00  0.00    +0.000 C 
ATOM     21  N   UNL     1       3.007   4.610  18.145  0.00  0.00    +0.000 N 
ATOM     22  C   UNL     1       1.595   4.281  17.958  0.00  0.00    +0.000 C 
ATOM     23  C   UNL     1       1.314   2.866  18.463  0.00  0.00    +0.000 C 
ATOM     24  C   UNL     1       2.258   1.849  17.812  0.00  0.00    +0.000 C 
ATOM     25  C   UNL     1       3.720   2.270  17.964  0.00  0.00    +0.000 C 
ATOM     26  C   UNL     1       3.935   3.700  17.470  0.00  0.00    +0.000 C 
ENDBRANCH  18  20
ENDBRANCH   1  18
TORSDOF 4
ENDMDL
