MODEL 1
REMARK VINA RESULT:      -8.3      0.000      0.000
REMARK  Name = 
REMARK  6 active torsions:
REMARK  status: ('A' for Active; 'I' for Inactive)
REMARK    1  A    between atoms: C_2  and  C_15
REMARK    2  A    between atoms: N_3  and  N_4
REMARK    3  A    between atoms: N_4  and  C_5
REMARK    4  A    between atoms: C_5  and  N_7
REMARK    5  A    between atoms: N_7  and  C_8
REMARK    6  A    between atoms: C_8  and  C_9
REMARK                            x       y       z     vdW  Elec       q    Type
REMARK                         _______ _______ _______ _____ _____    ______ ____
ROOT
ATOM      1  O   UNL     1       2.722   7.397  18.860  0.00  0.00    +0.000 OA
ATOM      2  C   UNL     1       2.241   6.619  19.685  0.00  0.00    +0.000 C 
ATOM      3  N   UNL     1       1.766   7.009  20.928  0.00  0.00    +0.000 N 
ATOM      4  H   UNL     1       1.893   6.378  21.702  0.00  0.00    +0.000 HD
ENDROOT
BRANCH   2   5
ATOM      5  C   UNL     1       2.240   5.106  19.439  0.00  0.00    +0.000 C 
ATOM      6  C   UNL     1       3.652   4.552  19.744  0.00  0.00    +0.000 C 
ATOM      7  C   UNL     1       3.690   3.028  19.585  0.00  0.00    +0.000 C 
ATOM      8  C   UNL     1       2.674   2.403  20.552  0.00  0.00    +0.000 C 
ATOM      9  C   UNL     1       1.257   2.924  20.241  0.00  0.00    +0.000 C 
ATOM     10  C   UNL     1       0.895   2.559  18.794  0.00  0.00    +0.000 C 
ATOM     11  C   UNL     1       1.906   3.190  17.819  0.00  0.00    +0.000 C 
ATOM     12  C   UNL     1       3.310   2.663  18.142  0.00  0.00    +0.000 C 
ATOM     13  C   UNL     1       1.882   4.722  17.984  0.00  0.00    +0.000 C 
ATOM     14  C   UNL     1       1.227   4.449  20.400  0.00  0.00    +0.000 C 
ENDBRANCH   2   5
BRANCH   3  15
ATOM     15  N   UNL     1       1.832   8.378  21.241  0.00  0.00    +0.000 N 
ATOM     16  H   UNL     1       2.578   8.675  21.865  0.00  0.00    +0.000 HD
BRANCH  15  17
ATOM     17  C   UNL     1       0.749   9.227  21.152  0.00  0.00    +0.000 C 
ATOM     18  S   UNL     1      -0.281   9.700  22.380  0.00  0.00    +0.000 S 
BRANCH  17  19
ATOM     19  N   UNL     1       0.532   9.714  19.892  0.00  0.00    +0.000 N 
ATOM     20  H   UNL     1       1.131   9.325  19.174  0.00  0.00    +0.000 HD
BRANCH  19  21
ATOM     21  C   UNL     1      -0.101  10.995  19.607  0.00  0.00    +0.000 C 
BRANCH  21  22
ATOM     22  C   UNL     1      -1.288  10.850  18.688  0.00  0.00    +0.000 A 
ATOM     23  C   UNL     1      -2.428  11.640  18.891  0.00  0.00    +0.000 A 
ATOM     24  C   UNL     1      -3.532  11.516  18.046  0.00  0.00    +0.000 A 
ATOM     25  C   UNL     1      -3.504  10.609  16.988  0.00  0.00    +0.000 A 
ATOM     26  C   UNL     1      -2.369   9.834  16.763  0.00  0.00    +0.000 A 
ATOM     27  C   UNL     1      -1.264   9.961  17.604  0.00  0.00    +0.000 A 
ENDBRANCH  21  22
ENDBRANCH  19  21
ENDBRANCH  17  19
ENDBRANCH  15  17
ENDBRANCH   3  15
TORSDOF 6
ENDMDL
MODEL 2
REMARK VINA RESULT:      -8.2      0.312      1.023
REMARK  Name = 
REMARK  6 active torsions:
REMARK  status: ('A' for Active; 'I' for Inactive)
REMARK    1  A    between atoms: C_2  and  C_15
REMARK    2  A    between atoms: N_3  and  N_4
REMARK    3  A    between atoms: N_4  and  C_5
REMARK    4  A    between atoms: C_5  and  N_7
REMARK    5  A    between atoms: N_7  and  C_8
REMARK    6  A    between atoms: C_8  and  C_9
REMARK                            x       y       z     vdW  Elec       q    Type
REMARK                         _______ _______ _______ _____ _____    ______ ____
ROOT
ATOM      1  O   UNL     1       2.507   7.543  18.817  0.00  0.00    +0.000 OA
ATOM      2  C   UNL     1       2.146   6.766  19.703  0.00  0.00    +0.000 C 
ATOM      3  N   UNL     1       1.765   7.170  20.973  0.00  0.00    +0.000 N 
ATOM      4  H   UNL     1       1.997   6.571  21.748  0.00  0.00    +0.000 HD
ENDROOT
BRANCH   2   5
ATOM      5  C   UNL     1       2.205   5.249  19.499  0.00  0.00    +0.000 C 
ATOM      6  C   UNL     1       3.642   4.762  19.804  0.00  0.00    +0.000 C 
ATOM      7  C   UNL     1       3.741   3.237  19.687  0.00  0.00    +0.000 C 
ATOM      8  C   UNL     1       2.761   2.597  20.680  0.00  0.00    +0.000 C 
ATOM      9  C   UNL     1       1.321   3.051  20.369  0.00  0.00    +0.000 C 
ATOM     10  C   UNL     1       0.962   2.631  18.937  0.00  0.00    +0.000 C 
ATOM     11  C   UNL     1       1.937   3.277  17.935  0.00  0.00    +0.000 C 
ATOM     12  C   UNL     1       3.364   2.817  18.258  0.00  0.00    +0.000 C 
ATOM     13  C   UNL     1       1.850   4.810  18.058  0.00  0.00    +0.000 C 
ATOM     14  C   UNL     1       1.229   4.577  20.487  0.00  0.00    +0.000 C 
ENDBRANCH   2   5
BRANCH   3  15
ATOM     15  N   UNL     1       1.784   8.550  21.242  0.00  0.00    +0.000 N 
ATOM     16  H   UNL     1       2.614   8.922  21.696  0.00  0.00    +0.000 HD
BRANCH  15  17
ATOM     17  C   UNL     1       0.641   9.313  21.361  0.00  0.00    +0.000 C 
ATOM     18  S   UNL     1      -0.316   9.513  22.715  0.00  0.00    +0.000 S 
BRANCH  17  19
ATOM     19  N   UNL     1       0.290   9.964  20.210  0.00  0.00    +0.000 N 
ATOM     20  H   UNL     1       0.975   9.914  19.465  0.00  0.00    +0.000 HD
BRANCH  19  21
ATOM     21  C   UNL     1      -0.686  11.043  20.144  0.00  0.00    +0.000 C 
BRANCH  21  22
ATOM     22  C   UNL     1      -1.581  10.925  18.936  0.00  0.00    +0.000 A 
ATOM     23  C   UNL     1      -1.240  10.048  17.898  0.00  0.00    +0.000 A 
ATOM     24  C   UNL     1      -2.061   9.929  16.775  0.00  0.00    +0.000 A 
ATOM     25  C   UNL     1      -3.234  10.677  16.685  0.00  0.00    +0.000 A 
ATOM     26  C   UNL     1      -3.595  11.536  17.720  0.00  0.00    +0.000 A 
ATOM     27  C   UNL     1      -2.777  11.652  18.843  0.00  0.00    +0.000 A 
ENDBRANCH  21  22
ENDBRANCH  19  21
ENDBRANCH  17  19
ENDBRANCH  15  17
ENDBRANCH   3  15
TORSDOF 6
ENDMDL
MODEL 3
REMARK VINA RESULT:      -8.2      0.410      1.581
REMARK  Name = 
REMARK  6 active torsions:
REMARK  status: ('A' for Active; 'I' for Inactive)
REMARK    1  A    between atoms: C_2  and  C_15
REMARK    2  A    between atoms: N_3  and  N_4
REMARK    3  A    between atoms: N_4  and  C_5
REMARK    4  A    between atoms: C_5  and  N_7
REMARK    5  A    between atoms: N_7  and  C_8
REMARK    6  A    between atoms: C_8  and  C_9
REMARK                            x       y       z     vdW  Elec       q    Type
REMARK                         _______ _______ _______ _____ _____    ______ ____
ROOT
ATOM      1  O   UNL     1       2.358   7.692  18.911  0.00  0.00    +0.000 OA
ATOM      2  C   UNL     1       2.109   6.856  19.781  0.00  0.00    +0.000 C 
ATOM      3  N   UNL     1       1.742   7.180  21.078  0.00  0.00    +0.000 N 
ATOM      4  H   UNL     1       2.060   6.582  21.822  0.00  0.00    +0.000 HD
ENDROOT
BRANCH   2   5
ATOM      5  C   UNL     1       2.305   5.359  19.520  0.00  0.00    +0.000 C 
ATOM      6  C   UNL     1       1.357   4.564  20.450  0.00  0.00    +0.000 C 
ATOM      7  C   UNL     1       1.458   3.059  20.181  0.00  0.00    +0.000 C 
ATOM      8  C   UNL     1       1.083   2.790  18.717  0.00  0.00    +0.000 C 
ATOM      9  C   UNL     1       2.039   3.553  17.778  0.00  0.00    +0.000 C 
ATOM     10  C   UNL     1       3.478   3.088  18.043  0.00  0.00    +0.000 C 
ATOM     11  C   UNL     1       3.862   3.363  19.509  0.00  0.00    +0.000 C 
ATOM     12  C   UNL     1       2.903   2.600  20.429  0.00  0.00    +0.000 C 
ATOM     13  C   UNL     1       3.750   4.875  19.788  0.00  0.00    +0.000 C 
ATOM     14  C   UNL     1       1.934   5.058  18.053  0.00  0.00    +0.000 C 
ENDBRANCH   2   5
BRANCH   3  15
ATOM     15  N   UNL     1       1.639   8.546  21.395  0.00  0.00    +0.000 N 
ATOM     16  H   UNL     1       2.462   8.992  21.792  0.00  0.00    +0.000 HD
BRANCH  15  17
ATOM     17  C   UNL     1       0.437   9.178  21.637  0.00  0.00    +0.000 C 
ATOM     18  S   UNL     1      -0.175   9.677  23.109  0.00  0.00    +0.000 S 
BRANCH  17  19
ATOM     19  N   UNL     1      -0.306   9.400  20.510  0.00  0.00    +0.000 N 
ATOM     20  H   UNL     1      -0.594   8.564  20.016  0.00  0.00    +0.000 HD
BRANCH  19  21
ATOM     21  C   UNL     1      -0.298  10.648  19.757  0.00  0.00    +0.000 C 
BRANCH  21  22
ATOM     22  C   UNL     1      -1.383  10.687  18.712  0.00  0.00    +0.000 A 
ATOM     23  C   UNL     1      -2.480  11.544  18.877  0.00  0.00    +0.000 A 
ATOM     24  C   UNL     1      -3.491  11.591  17.915  0.00  0.00    +0.000 A 
ATOM     25  C   UNL     1      -3.410  10.789  16.778  0.00  0.00    +0.000 A 
ATOM     26  C   UNL     1      -2.315   9.949  16.592  0.00  0.00    +0.000 A 
ATOM     27  C   UNL     1      -1.303   9.906  17.550  0.00  0.00    +0.000 A 
ENDBRANCH  21  22
ENDBRANCH  19  21
ENDBRANCH  17  19
ENDBRANCH  15  17
ENDBRANCH   3  15
TORSDOF 6
ENDMDL
MODEL 4
REMARK VINA RESULT:      -8.2      0.462      1.864
REMARK  Name = 
REMARK  6 active torsions:
REMARK  status: ('A' for Active; 'I' for Inactive)
REMARK    1  A    between atoms: C_2  and  C_15
REMARK    2  A    between atoms: N_3  and  N_4
REMARK    3  A    between atoms: N_4  and  C_5
REMARK    4  A    between atoms: C_5  and  N_7
REMARK    5  A    between atoms: N_7  and  C_8
REMARK    6  A    between atoms: C_8  and  C_9
REMARK                            x       y       z     vdW  Elec       q    Type
REMARK                         _______ _______ _______ _____ _____    ______ ____
ROOT
ATOM      1  O   UNL     1       2.838   7.328  18.805  0.00  0.00    +0.000 OA
ATOM      2  C   UNL     1       2.323   6.602  19.657  0.00  0.00    +0.000 C 
ATOM      3  N   UNL     1       1.821   7.066  20.863  0.00  0.00    +0.000 N 
ATOM      4  H   UNL     1       1.918   6.477  21.673  0.00  0.00    +0.000 HD
ENDROOT
BRANCH   2   5
ATOM      5  C   UNL     1       2.305   5.078  19.494  0.00  0.00    +0.000 C 
ATOM      6  C   UNL     1       1.256   4.487  20.466  0.00  0.00    +0.000 C 
ATOM      7  C   UNL     1       1.143   2.969  20.294  0.00  0.00    +0.000 C 
ATOM      8  C   UNL     1       0.731   2.662  18.847  0.00  0.00    +0.000 C 
ATOM      9  C   UNL     1       1.783   3.220  17.868  0.00  0.00    +0.000 C 
ATOM     10  C   UNL     1       3.142   2.575  18.172  0.00  0.00    +0.000 C 
ATOM     11  C   UNL     1       3.565   2.886  19.620  0.00  0.00    +0.000 C 
ATOM     12  C   UNL     1       2.509   2.327  20.581  0.00  0.00    +0.000 C 
ATOM     13  C   UNL     1       3.667   4.413  19.802  0.00  0.00    +0.000 C 
ATOM     14  C   UNL     1       1.892   4.739  18.046  0.00  0.00    +0.000 C 
ENDBRANCH   2   5
BRANCH   3  15
ATOM     15  N   UNL     1       1.899   8.449  21.102  0.00  0.00    +0.000 N 
ATOM     16  H   UNL     1       2.749   8.796  21.540  0.00  0.00    +0.000 HD
BRANCH  15  17
ATOM     17  C   UNL     1       0.790   9.261  21.216  0.00  0.00    +0.000 C 
ATOM     18  S   UNL     1      -0.403   9.202  22.384  0.00  0.00    +0.000 S 
BRANCH  17  19
ATOM     19  N   UNL     1       0.699  10.211  20.236  0.00  0.00    +0.000 N 
ATOM     20  H   UNL     1       0.491  11.147  20.565  0.00  0.00    +0.000 HD
BRANCH  19  21
ATOM     21  C   UNL     1       0.414   9.920  18.837  0.00  0.00    +0.000 C 
BRANCH  21  22
ATOM     22  C   UNL     1      -0.959  10.389  18.428  0.00  0.00    +0.000 A 
ATOM     23  C   UNL     1      -1.585   9.822  17.310  0.00  0.00    +0.000 A 
ATOM     24  C   UNL     1      -2.858  10.247  16.922  0.00  0.00    +0.000 A 
ATOM     25  C   UNL     1      -3.518  11.233  17.653  0.00  0.00    +0.000 A 
ATOM     26  C   UNL     1      -2.915  11.788  18.779  0.00  0.00    +0.000 A 
ATOM     27  C   UNL     1      -1.647  11.361  19.169  0.00  0.00    +0.000 A 
ENDBRANCH  21  22
ENDBRANCH  19  21
ENDBRANCH  17  19
ENDBRANCH  15  17
ENDBRANCH   3  15
TORSDOF 6
ENDMDL
MODEL 5
REMARK VINA RESULT:      -8.1      5.237      7.619
REMARK  Name = 
REMARK  6 active torsions:
REMARK  status: ('A' for Active; 'I' for Inactive)
REMARK    1  A    between atoms: C_2  and  C_15
REMARK    2  A    between atoms: N_3  and  N_4
REMARK    3  A    between atoms: N_4  and  C_5
REMARK    4  A    between atoms: C_5  and  N_7
REMARK    5  A    between atoms: N_7  and  C_8
REMARK    6  A    between atoms: C_8  and  C_9
REMARK                            x       y       z     vdW  Elec       q    Type
REMARK                         _______ _______ _______ _____ _____    ______ ____
ROOT
ATOM      1  O   UNL     1       4.624   6.200  18.702  0.00  0.00    +0.000 OA
ATOM      2  C   UNL     1       4.725   5.058  19.152  0.00  0.00    +0.000 C 
ATOM      3  N   UNL     1       5.935   4.413  19.355  0.00  0.00    +0.000 N 
ATOM      4  H   UNL     1       5.974   3.420  19.198  0.00  0.00    +0.000 HD
ENDROOT
BRANCH   2   5
ATOM      5  C   UNL     1       3.484   4.199  19.417  0.00  0.00    +0.000 C 
ATOM      6  C   UNL     1       2.841   4.652  20.750  0.00  0.00    +0.000 C 
ATOM      7  C   UNL     1       1.551   3.875  21.030  0.00  0.00    +0.000 C 
ATOM      8  C   UNL     1       0.566   4.115  19.878  0.00  0.00    +0.000 C 
ATOM      9  C   UNL     1       1.182   3.640  18.547  0.00  0.00    +0.000 C 
ATOM     10  C   UNL     1       1.508   2.144  18.652  0.00  0.00    +0.000 C 
ATOM     11  C   UNL     1       2.503   1.897  19.801  0.00  0.00    +0.000 C 
ATOM     12  C   UNL     1       1.876   2.376  21.117  0.00  0.00    +0.000 C 
ATOM     13  C   UNL     1       3.797   2.688  19.531  0.00  0.00    +0.000 C 
ATOM     14  C   UNL     1       2.472   4.421  18.273  0.00  0.00    +0.000 C 
ENDBRANCH   2   5
BRANCH   3  15
ATOM     15  N   UNL     1       7.105   5.126  19.038  0.00  0.00    +0.000 N 
ATOM     16  H   UNL     1       7.612   5.551  19.810  0.00  0.00    +0.000 HD
BRANCH  15  17
ATOM     17  C   UNL     1       7.350   5.662  17.791  0.00  0.00    +0.000 C 
ATOM     18  S   UNL     1       7.528   7.275  17.391  0.00  0.00    +0.000 S 
BRANCH  17  19
ATOM     19  N   UNL     1       7.450   4.727  16.798  0.00  0.00    +0.000 N 
ATOM     20  H   UNL     1       8.379   4.614  16.409  0.00  0.00    +0.000 HD
BRANCH  19  21
ATOM     21  C   UNL     1       6.330   4.271  15.985  0.00  0.00    +0.000 C 
BRANCH  21  22
ATOM     22  C   UNL     1       6.636   4.335  14.510  0.00  0.00    +0.000 A 
ATOM     23  C   UNL     1       7.596   5.239  14.036  0.00  0.00    +0.000 A 
ATOM     24  C   UNL     1       7.890   5.306  12.673  0.00  0.00    +0.000 A 
ATOM     25  C   UNL     1       7.234   4.466  11.775  0.00  0.00    +0.000 A 
ATOM     26  C   UNL     1       6.293   3.549  12.237  0.00  0.00    +0.000 A 
ATOM     27  C   UNL     1       6.003   3.478  13.598  0.00  0.00    +0.000 A 
ENDBRANCH  21  22
ENDBRANCH  19  21
ENDBRANCH  17  19
ENDBRANCH  15  17
ENDBRANCH   3  15
TORSDOF 6
ENDMDL
MODEL 6
REMARK VINA RESULT:      -8.0      4.874      7.268
REMARK  Name = 
REMARK  6 active torsions:
REMARK  status: ('A' for Active; 'I' for Inactive)
REMARK    1  A    between atoms: C_2  and  C_15
REMARK    2  A    between atoms: N_3  and  N_4
REMARK    3  A    between atoms: N_4  and  C_5
REMARK    4  A    between atoms: C_5  and  N_7
REMARK    5  A    between atoms: N_7  and  C_8
REMARK    6  A    between atoms: C_8  and  C_9
REMARK                            x       y       z     vdW  Elec       q    Type
REMARK                         _______ _______ _______ _____ _____    ______ ____
ROOT
ATOM      1  O   UNL     1       2.691   7.158  18.805  0.00  0.00    +0.000 OA
ATOM      2  C   UNL     1       3.330   6.106  18.764  0.00  0.00    +0.000 C 
ATOM      3  N   UNL     1       4.606   5.999  18.231  0.00  0.00    +0.000 N 
ATOM      4  H   UNL     1       4.847   5.149  17.749  0.00  0.00    +0.000 HD
ENDROOT
BRANCH   2   5
ATOM      5  C   UNL     1       2.701   4.779  19.203  0.00  0.00    +0.000 C 
ATOM      6  C   UNL     1       3.833   3.766  19.497  0.00  0.00    +0.000 C 
ATOM      7  C   UNL     1       3.263   2.440  20.012  0.00  0.00    +0.000 C 
ATOM      8  C   UNL     1       2.468   2.707  21.297  0.00  0.00    +0.000 C 
ATOM      9  C   UNL     1       1.318   3.693  21.013  0.00  0.00    +0.000 C 
ATOM     10  C   UNL     1       0.395   3.091  19.944  0.00  0.00    +0.000 C 
ATOM     11  C   UNL     1       1.186   2.829  18.648  0.00  0.00    +0.000 C 
ATOM     12  C   UNL     1       2.326   1.848  18.948  0.00  0.00    +0.000 C 
ATOM     13  C   UNL     1       1.773   4.158  18.133  0.00  0.00    +0.000 C 
ATOM     14  C   UNL     1       1.895   5.017  20.497  0.00  0.00    +0.000 C 
ENDBRANCH   2   5
BRANCH   3  15
ATOM     15  N   UNL     1       5.193   7.173  17.727  0.00  0.00    +0.000 N 
ATOM     16  H   UNL     1       4.564   7.927  17.459  0.00  0.00    +0.000 HD
BRANCH  15  17
ATOM     17  C   UNL     1       6.449   7.208  17.160  0.00  0.00    +0.000 C 
ATOM     18  S   UNL     1       7.824   7.937  17.768  0.00  0.00    +0.000 S 
BRANCH  17  19
ATOM     19  N   UNL     1       6.530   6.556  15.960  0.00  0.00    +0.000 N 
ATOM     20  H   UNL     1       6.026   6.996  15.199  0.00  0.00    +0.000 HD
BRANCH  19  21
ATOM     21  C   UNL     1       6.847   5.141  15.816  0.00  0.00    +0.000 C 
BRANCH  21  22
ATOM     22  C   UNL     1       6.814   4.696  14.376  0.00  0.00    +0.000 A 
ATOM     23  C   UNL     1       7.708   5.255  13.452  0.00  0.00    +0.000 A 
ATOM     24  C   UNL     1       7.689   4.849  12.116  0.00  0.00    +0.000 A 
ATOM     25  C   UNL     1       6.784   3.877  11.695  0.00  0.00    +0.000 A 
ATOM     26  C   UNL     1       5.906   3.298  12.608  0.00  0.00    +0.000 A 
ATOM     27  C   UNL     1       5.928   3.699  13.942  0.00  0.00    +0.000 A 
ENDBRANCH  21  22
ENDBRANCH  19  21
ENDBRANCH  17  19
ENDBRANCH  15  17
ENDBRANCH   3  15
TORSDOF 6
ENDMDL
MODEL 7
REMARK VINA RESULT:      -8.0      0.487      1.643
REMARK  Name = 
REMARK  6 active torsions:
REMARK  status: ('A' for Active; 'I' for Inactive)
REMARK    1  A    between atoms: C_2  and  C_15
REMARK    2  A    between atoms: N_3  and  N_4
REMARK    3  A    between atoms: N_4  and  C_5
REMARK    4  A    between atoms: C_5  and  N_7
REMARK    5  A    between atoms: N_7  and  C_8
REMARK    6  A    between atoms: C_8  and  C_9
REMARK                            x       y       z     vdW  Elec       q    Type
REMARK                         _______ _______ _______ _____ _____    ______ ____
ROOT
ATOM      1  O   UNL     1       2.467   7.277  18.626  0.00  0.00    +0.000 OA
ATOM      2  C   UNL     1       2.162   6.602  19.611  0.00  0.00    +0.000 C 
ATOM      3  N   UNL     1       1.843   7.144  20.847  0.00  0.00    +0.000 N 
ATOM      4  H   UNL     1       2.122   6.638  21.671  0.00  0.00    +0.000 HD
ENDROOT
BRANCH   2   5
ATOM      5  C   UNL     1       2.229   5.072  19.576  0.00  0.00    +0.000 C 
ATOM      6  C   UNL     1       1.827   4.590  18.161  0.00  0.00    +0.000 C 
ATOM      7  C   UNL     1       1.946   3.066  18.045  0.00  0.00    +0.000 C 
ATOM      8  C   UNL     1       3.398   2.659  18.332  0.00  0.00    +0.000 C 
ATOM      9  C   UNL     1       3.804   3.107  19.751  0.00  0.00    +0.000 C 
ATOM     10  C   UNL     1       2.865   2.449  20.771  0.00  0.00    +0.000 C 
ATOM     11  C   UNL     1       1.407   2.861  20.494  0.00  0.00    +0.000 C 
ATOM     12  C   UNL     1       1.020   2.409  19.080  0.00  0.00    +0.000 C 
ATOM     13  C   UNL     1       1.285   4.394  20.596  0.00  0.00    +0.000 C 
ATOM     14  C   UNL     1       3.680   4.632  19.859  0.00  0.00    +0.000 C 
ENDBRANCH   2   5
BRANCH   3  15
ATOM     15  N   UNL     1       1.859   8.545  20.959  0.00  0.00    +0.000 N 
ATOM     16  H   UNL     1       2.727   8.976  21.268  0.00  0.00    +0.000 HD
BRANCH  15  17
ATOM     17  C   UNL     1       0.720   9.304  21.127  0.00  0.00    +0.000 C 
ATOM     18  S   UNL     1      -0.459   9.129  22.298  0.00  0.00    +0.000 S 
BRANCH  17  19
ATOM     19  N   UNL     1       0.581  10.304  20.203  0.00  0.00    +0.000 N 
ATOM     20  H   UNL     1       0.308  11.202  20.584  0.00  0.00    +0.000 HD
BRANCH  19  21
ATOM     21  C   UNL     1       0.336  10.080  18.785  0.00  0.00    +0.000 C 
BRANCH  21  22
ATOM     22  C   UNL     1      -1.068  10.457  18.385  0.00  0.00    +0.000 A 
ATOM     23  C   UNL     1      -1.755  11.447  19.102  0.00  0.00    +0.000 A 
ATOM     24  C   UNL     1      -3.055  11.806  18.740  0.00  0.00    +0.000 A 
ATOM     25  C   UNL     1      -3.675  11.187  17.656  0.00  0.00    +0.000 A 
ATOM     26  C   UNL     1      -2.995  10.218  16.923  0.00  0.00    +0.000 A 
ATOM     27  C   UNL     1      -1.695   9.862  17.281  0.00  0.00    +0.000 A 
ENDBRANCH  21  22
ENDBRANCH  19  21
ENDBRANCH  17  19
ENDBRANCH  15  17
ENDBRANCH   3  15
TORSDOF 6
ENDMDL
MODEL 8
REMARK VINA RESULT:      -8.0      5.185      7.731
REMARK  Name = 
REMARK  6 active torsions:
REMARK  status: ('A' for Active; 'I' for Inactive)
REMARK    1  A    between atoms: C_2  and  C_15
REMARK    2  A    between atoms: N_3  and  N_4
REMARK    3  A    between atoms: N_4  and  C_5
REMARK    4  A    between atoms: C_5  and  N_7
REMARK    5  A    between atoms: N_7  and  C_8
REMARK    6  A    between atoms: C_8  and  C_9
REMARK                            x       y       z     vdW  Elec       q    Type
REMARK                         _______ _______ _______ _____ _____    ______ ____
ROOT
ATOM      1  O   UNL     1       4.564   3.973  16.877  0.00  0.00    +0.000 OA
ATOM      2  C   UNL     1       4.653   3.965  18.106  0.00  0.00    +0.000 C 
ATOM      3  N   UNL     1       5.856   4.014  18.792  0.00  0.00    +0.000 N 
ATOM      4  H   UNL     1       5.931   3.498  19.653  0.00  0.00    +0.000 HD
ENDROOT
BRANCH   2   5
ATOM      5  C   UNL     1       3.414   3.776  18.988  0.00  0.00    +0.000 C 
ATOM      6  C   UNL     1       3.548   2.438  19.753  0.00  0.00    +0.000 C 
ATOM      7  C   UNL     1       2.368   2.231  20.709  0.00  0.00    +0.000 C 
ATOM      8  C   UNL     1       2.331   3.393  21.711  0.00  0.00    +0.000 C 
ATOM      9  C   UNL     1       2.168   4.732  20.964  0.00  0.00    +0.000 C 
ATOM     10  C   UNL     1       0.864   4.698  20.155  0.00  0.00    +0.000 C 
ATOM     11  C   UNL     1       0.899   3.539  19.142  0.00  0.00    +0.000 C 
ATOM     12  C   UNL     1       1.062   2.216  19.900  0.00  0.00    +0.000 C 
ATOM     13  C   UNL     1       2.092   3.735  18.186  0.00  0.00    +0.000 C 
ATOM     14  C   UNL     1       3.351   4.932  20.009  0.00  0.00    +0.000 C 
ENDBRANCH   2   5
BRANCH   3  15
ATOM     15  N   UNL     1       7.032   4.093  18.025  0.00  0.00    +0.000 N 
ATOM     16  H   UNL     1       7.851   3.607  18.382  0.00  0.00    +0.000 HD
BRANCH  15  17
ATOM     17  C   UNL     1       7.280   5.107  17.124  0.00  0.00    +0.000 C 
ATOM     18  S   UNL     1       7.348   6.749  17.426  0.00  0.00    +0.000 S 
BRANCH  17  19
ATOM     19  N   UNL     1       7.490   4.668  15.845  0.00  0.00    +0.000 N 
ATOM     20  H   UNL     1       8.258   4.016  15.737  0.00  0.00    +0.000 HD
BRANCH  19  21
ATOM     21  C   UNL     1       7.050   5.380  14.652  0.00  0.00    +0.000 C 
BRANCH  21  22
ATOM     22  C   UNL     1       6.545   4.442  13.586  0.00  0.00    +0.000 A 
ATOM     23  C   UNL     1       5.182   4.117  13.531  0.00  0.00    +0.000 A 
ATOM     24  C   UNL     1       4.701   3.252  12.547  0.00  0.00    +0.000 A 
ATOM     25  C   UNL     1       5.575   2.712  11.605  0.00  0.00    +0.000 A 
ATOM     26  C   UNL     1       6.927   3.044  11.635  0.00  0.00    +0.000 A 
ATOM     27  C   UNL     1       7.406   3.912  12.615  0.00  0.00    +0.000 A 
ENDBRANCH  21  22
ENDBRANCH  19  21
ENDBRANCH  17  19
ENDBRANCH  15  17
ENDBRANCH   3  15
TORSDOF 6
ENDMDL
MODEL 9
REMARK VINA RESULT:      -7.9      5.191      7.780
REMARK  Name = 
REMARK  6 active torsions:
REMARK  status: ('A' for Active; 'I' for Inactive)
REMARK    1  A    between atoms: C_2  and  C_15
REMARK    2  A    between atoms: N_3  and  N_4
REMARK    3  A    between atoms: N_4  and  C_5
REMARK    4  A    between atoms: C_5  and  N_7
REMARK    5  A    between atoms: N_7  and  C_8
REMARK    6  A    between atoms: C_8  and  C_9
REMARK                            x       y       z     vdW  Elec       q    Type
REMARK                         _______ _______ _______ _____ _____    ______ ____
ROOT
ATOM      1  O   UNL     1       4.722   4.161  17.073  0.00  0.00    +0.000 OA
ATOM      2  C   UNL     1       4.822   4.039  18.295  0.00  0.00    +0.000 C 
ATOM      3  N   UNL     1       6.032   4.021  18.972  0.00  0.00    +0.000 N 
ATOM      4  H   UNL     1       6.112   3.428  19.781  0.00  0.00    +0.000 HD
ENDROOT
BRANCH   2   5
ATOM      5  C   UNL     1       3.590   3.774  19.168  0.00  0.00    +0.000 C 
ATOM      6  C   UNL     1       3.332   5.017  20.053  0.00  0.00    +0.000 C 
ATOM      7  C   UNL     1       2.065   4.837  20.897  0.00  0.00    +0.000 C 
ATOM      8  C   UNL     1       0.870   4.619  19.958  0.00  0.00    +0.000 C 
ATOM      9  C   UNL     1       1.101   3.365  19.091  0.00  0.00    +0.000 C 
ATOM     10  C   UNL     1       1.275   2.147  20.008  0.00  0.00    +0.000 C 
ATOM     11  C   UNL     1       2.478   2.357  20.946  0.00  0.00    +0.000 C 
ATOM     12  C   UNL     1       2.234   3.606  21.800  0.00  0.00    +0.000 C 
ATOM     13  C   UNL     1       3.753   2.552  20.102  0.00  0.00    +0.000 C 
ATOM     14  C   UNL     1       2.370   3.552  18.250  0.00  0.00    +0.000 C 
ENDBRANCH   2   5
BRANCH   3  15
ATOM     15  N   UNL     1       7.200   4.167  18.204  0.00  0.00    +0.000 N 
ATOM     16  H   UNL     1       8.044   3.719  18.555  0.00  0.00    +0.000 HD
BRANCH  15  17
ATOM     17  C   UNL     1       7.396   5.199  17.311  0.00  0.00    +0.000 C 
ATOM     18  S   UNL     1       7.445   6.837  17.639  0.00  0.00    +0.000 S 
BRANCH  17  19
ATOM     19  N   UNL     1       7.564   4.785  16.018  0.00  0.00    +0.000 N 
ATOM     20  H   UNL     1       8.308   4.111  15.878  0.00  0.00    +0.000 HD
BRANCH  19  21
ATOM     21  C   UNL     1       7.123   5.540  14.852  0.00  0.00    +0.000 C 
BRANCH  21  22
ATOM     22  C   UNL     1       6.610   4.642  13.755  0.00  0.00    +0.000 A 
ATOM     23  C   UNL     1       7.440   4.321  12.672  0.00  0.00    +0.000 A 
ATOM     24  C   UNL     1       6.977   3.489  11.651  0.00  0.00    +0.000 A 
ATOM     25  C   UNL     1       5.687   2.964  11.708  0.00  0.00    +0.000 A 
ATOM     26  C   UNL     1       4.861   3.259  12.790  0.00  0.00    +0.000 A 
ATOM     27  C   UNL     1       5.325   4.086  13.812  0.00  0.00    +0.000 A 
ENDBRANCH  21  22
ENDBRANCH  19  21
ENDBRANCH  17  19
ENDBRANCH  15  17
ENDBRANCH   3  15
TORSDOF 6
ENDMDL
