MODEL 1
REMARK VINA RESULT:      -8.4      0.000      0.000
REMARK  Name = 
REMARK  11 active torsions:
REMARK  status: ('A' for Active; 'I' for Inactive)
REMARK    1  A    between atoms: C_1  and  C_2
REMARK    2  A    between atoms: C_4  and  N_5
REMARK    3  A    between atoms: N_5  and  S_6
REMARK    4  A    between atoms: S_6  and  C_7
REMARK    5  A    between atoms: C_12  and  C_13
REMARK    6  A    between atoms: C_15  and  C_16
REMARK    7  A    between atoms: C_16  and  C_17
REMARK    8  A    between atoms: C_21  and  C_22
REMARK    9  A    between atoms: N_27  and  C_28
REMARK   10  A    between atoms: C_28  and  C_29
REMARK   11  A    between atoms: C_29  and  C_30
REMARK                            x       y       z     vdW  Elec       q    Type
REMARK                         _______ _______ _______ _____ _____    ______ ____
ROOT
ATOM      1  C   UNL     1       5.223   5.358  16.128  0.00  0.00    +0.000 A 
ATOM      2  N   UNL     1       5.093   4.752  14.904  0.00  0.00    +0.000 N 
ATOM      3  C   UNL     1       6.296   4.727  14.266  0.00  0.00    +0.000 A 
ATOM      4  N   UNL     1       7.235   5.235  15.029  0.00  0.00    +0.000 NA
ATOM      5  C   UNL     1       6.581   5.682  16.169  0.00  0.00    +0.000 A 
ATOM      6  H   UNL     1       4.224   4.428  14.507  0.00  0.00    +0.000 HD
ENDROOT
BRANCH   1  13
ATOM      7  C   UNL     1       1.982   8.488  18.221  0.00  0.00    +0.000 C 
ATOM      8  C   UNL     1       2.469   7.079  18.061  0.00  0.00    +0.000 A 
ATOM      9  C   UNL     1       1.825   6.008  18.683  0.00  0.00    +0.000 A 
ATOM     10  C   UNL     1       2.331   4.713  18.551  0.00  0.00    +0.000 A 
ATOM     11  C   UNL     1       3.477   4.475  17.767  0.00  0.00    +0.000 A 
ATOM     12 CL   UNL     1       4.148   2.866  17.774  0.00  0.00    +0.000 Cl
ATOM     13  C   UNL     1       4.085   5.531  17.050  0.00  0.00    +0.000 A 
ATOM     14  C   UNL     1       3.580   6.827  17.249  0.00  0.00    +0.000 A 
BRANCH  10  15
ATOM     15  N   UNL     1       1.654   3.666  19.251  0.00  0.00    +0.000 N 
ATOM     16  H   UNL     1       0.708   3.425  18.956  0.00  0.00    +0.000 HD
BRANCH  15  17
ATOM     17  S   UNL     1       1.967   3.405  20.881  0.00  0.00    +0.000 S 
ATOM     18  C   UNL     1       3.441   2.401  20.899  0.00  0.00    +0.000 C 
ATOM     19  O   UNL     1       2.334   4.704  21.407  0.00  0.00    +0.000 OA
ATOM     20  O   UNL     1       0.874   2.645  21.451  0.00  0.00    +0.000 OA
ENDBRANCH  15  17
ENDBRANCH  10  15
ENDBRANCH   1  13
BRANCH   5  21
ATOM     21  C   UNL     1       7.272   6.426  17.216  0.00  0.00    +0.000 A 
ATOM     22  C   UNL     1       7.771   5.786  18.325  0.00  0.00    +0.000 A 
ATOM     23  C   UNL     1       8.414   6.594  19.228  0.00  0.00    +0.000 A 
ATOM     24  N   UNL     1       8.599   7.916  19.044  0.00  0.00    +0.000 NA
ATOM     25  C   UNL     1       8.102   8.445  17.920  0.00  0.00    +0.000 A 
ATOM     26  N   UNL     1       8.295   9.781  17.617  0.00  0.00    +0.000 N 
ATOM     27  N   UNL     1       7.403   7.755  17.021  0.00  0.00    +0.000 NA
ATOM     28  H   UNL     1       7.401  10.249  17.720  0.00  0.00    +0.000 HD
BRANCH  26  29
ATOM     29  C   UNL     1       9.427  10.427  18.255  0.00  0.00    +0.000 C 
BRANCH  29  30
ATOM     30  C   UNL     1       9.144  11.923  18.327  0.00  0.00    +0.000 C 
BRANCH  30  31
ATOM     31  C   UNL     1      10.190  12.683  17.529  0.00  0.00    +0.000 C 
ATOM     32  N   UNL     1      11.059  13.314  16.867  0.00  0.00    +0.000 NA
ENDBRANCH  30  31
ENDBRANCH  29  30
ENDBRANCH  26  29
ENDBRANCH   5  21
BRANCH   3  33
ATOM     33  C   UNL     1       6.502   4.182  12.844  0.00  0.00    +0.000 C 
ATOM     34  C   UNL     1       7.543   4.861  12.000  0.00  0.00    +0.000 C 
ATOM     35  C   UNL     1       6.267   2.686  12.646  0.00  0.00    +0.000 C 
ATOM     36  C   UNL     1       5.262   3.653  12.128  0.00  0.00    +0.000 C 
ENDBRANCH   3  33
TORSDOF 8
ENDMDL
MODEL 2
REMARK VINA RESULT:      -8.0      0.848      1.043
REMARK  Name = 
REMARK  11 active torsions:
REMARK  status: ('A' for Active; 'I' for Inactive)
REMARK    1  A    between atoms: C_1  and  C_2
REMARK    2  A    between atoms: C_4  and  N_5
REMARK    3  A    between atoms: N_5  and  S_6
REMARK    4  A    between atoms: S_6  and  C_7
REMARK    5  A    between atoms: C_12  and  C_13
REMARK    6  A    between atoms: C_15  and  C_16
REMARK    7  A    between atoms: C_16  and  C_17
REMARK    8  A    between atoms: C_21  and  C_22
REMARK    9  A    between atoms: N_27  and  C_28
REMARK   10  A    between atoms: C_28  and  C_29
REMARK   11  A    between atoms: C_29  and  C_30
REMARK                            x       y       z     vdW  Elec       q    Type
REMARK                         _______ _______ _______ _____ _____    ______ ____
ROOT
ATOM      1  C   UNL     1       5.226   5.264  16.041  0.00  0.00    +0.000 A 
ATOM      2  N   UNL     1       5.104   4.694  14.799  0.00  0.00    +0.000 N 
ATOM      3  C   UNL     1       6.309   4.693  14.165  0.00  0.00    +0.000 A 
ATOM      4  N   UNL     1       7.242   5.183  14.947  0.00  0.00    +0.000 NA
ATOM      5  C   UNL     1       6.581   5.594  16.096  0.00  0.00    +0.000 A 
ATOM      6  H   UNL     1       4.237   4.377  14.389  0.00  0.00    +0.000 HD
ENDROOT
BRANCH   1  13
ATOM      7  C   UNL     1       2.149   8.338  18.443  0.00  0.00    +0.000 C 
ATOM      8  C   UNL     1       2.549   6.927  18.127  0.00  0.00    +0.000 A 
ATOM      9  C   UNL     1       1.827   5.837  18.613  0.00  0.00    +0.000 A 
ATOM     10  C   UNL     1       2.253   4.535  18.339  0.00  0.00    +0.000 A 
ATOM     11  C   UNL     1       3.396   4.314  17.546  0.00  0.00    +0.000 A 
ATOM     12 CL   UNL     1       3.964   2.675  17.375  0.00  0.00    +0.000 Cl
ATOM     13  C   UNL     1       4.083   5.404  16.964  0.00  0.00    +0.000 A 
ATOM     14  C   UNL     1       3.657   6.699  17.304  0.00  0.00    +0.000 A 
BRANCH  10  15
ATOM     15  N   UNL     1       1.497   3.461  18.905  0.00  0.00    +0.000 N 
ATOM     16  H   UNL     1       0.482   3.552  18.935  0.00  0.00    +0.000 HD
BRANCH  15  17
ATOM     17  S   UNL     1       2.155   2.531  20.140  0.00  0.00    +0.000 S 
ATOM     18  C   UNL     1       1.090   2.827  21.539  0.00  0.00    +0.000 C 
ATOM     19  O   UNL     1       1.944   1.157  19.731  0.00  0.00    +0.000 OA
ATOM     20  O   UNL     1       3.480   3.028  20.445  0.00  0.00    +0.000 OA
ENDBRANCH  15  17
ENDBRANCH  10  15
ENDBRANCH   1  13
BRANCH   5  21
ATOM     21  C   UNL     1       7.265   6.310  17.168  0.00  0.00    +0.000 A 
ATOM     22  C   UNL     1       7.784   5.637  18.247  0.00  0.00    +0.000 A 
ATOM     23  C   UNL     1       8.417   6.423  19.178  0.00  0.00    +0.000 A 
ATOM     24  N   UNL     1       8.575   7.754  19.044  0.00  0.00    +0.000 NA
ATOM     25  C   UNL     1       8.058   8.316  17.946  0.00  0.00    +0.000 A 
ATOM     26  N   UNL     1       8.222   9.667  17.694  0.00  0.00    +0.000 N 
ATOM     27  N   UNL     1       7.367   7.648  17.024  0.00  0.00    +0.000 NA
ATOM     28  H   UNL     1       7.320  10.112  17.821  0.00  0.00    +0.000 HD
BRANCH  26  29
ATOM     29  C   UNL     1       9.346  10.310  18.349  0.00  0.00    +0.000 C 
BRANCH  29  30
ATOM     30  C   UNL     1       9.404  11.760  17.881  0.00  0.00    +0.000 C 
BRANCH  30  31
ATOM     31  C   UNL     1      10.831  12.274  17.980  0.00  0.00    +0.000 C 
ATOM     32  N   UNL     1      12.015  12.701  18.061  0.00  0.00    +0.000 NA
ENDBRANCH  30  31
ENDBRANCH  29  30
ENDBRANCH  26  29
ENDBRANCH   5  21
BRANCH   3  33
ATOM     33  C   UNL     1       6.523   4.191  12.728  0.00  0.00    +0.000 C 
ATOM     34  C   UNL     1       7.510   4.947  11.884  0.00  0.00    +0.000 C 
ATOM     35  C   UNL     1       6.371   2.689  12.501  0.00  0.00    +0.000 C 
ATOM     36  C   UNL     1       5.304   3.608  12.020  0.00  0.00    +0.000 C 
ENDBRANCH   3  33
TORSDOF 8
ENDMDL
MODEL 3
REMARK VINA RESULT:      -7.8      7.004     10.496
REMARK  Name = 
REMARK  11 active torsions:
REMARK  status: ('A' for Active; 'I' for Inactive)
REMARK    1  A    between atoms: C_1  and  C_2
REMARK    2  A    between atoms: C_4  and  N_5
REMARK    3  A    between atoms: N_5  and  S_6
REMARK    4  A    between atoms: S_6  and  C_7
REMARK    5  A    between atoms: C_12  and  C_13
REMARK    6  A    between atoms: C_15  and  C_16
REMARK    7  A    between atoms: C_16  and  C_17
REMARK    8  A    between atoms: C_21  and  C_22
REMARK    9  A    between atoms: N_27  and  C_28
REMARK   10  A    between atoms: C_28  and  C_29
REMARK   11  A    between atoms: C_29  and  C_30
REMARK                            x       y       z     vdW  Elec       q    Type
REMARK                         _______ _______ _______ _____ _____    ______ ____
ROOT
ATOM      1  C   UNL     1      -0.650  12.171  18.616  0.00  0.00    +0.000 A 
ATOM      2  N   UNL     1      -1.619  12.325  17.658  0.00  0.00    +0.000 N 
ATOM      3  C   UNL     1      -2.283  11.151  17.472  0.00  0.00    +0.000 A 
ATOM      4  N   UNL     1      -1.841  10.234  18.301  0.00  0.00    +0.000 NA
ATOM      5  C   UNL     1      -0.790  10.831  18.983  0.00  0.00    +0.000 A 
ATOM      6  H   UNL     1      -1.779  13.168  17.124  0.00  0.00    +0.000 HD
ENDROOT
BRANCH   1  13
ATOM      7  C   UNL     1      -0.281  16.664  20.706  0.00  0.00    +0.000 C 
ATOM      8  C   UNL     1       0.413  15.485  20.091  0.00  0.00    +0.000 A 
ATOM      9  C   UNL     1       1.804  15.419  20.004  0.00  0.00    +0.000 A 
ATOM     10  C   UNL     1       2.417  14.328  19.384  0.00  0.00    +0.000 A 
ATOM     11  C   UNL     1       1.638  13.274  18.868  0.00  0.00    +0.000 A 
ATOM     12 CL   UNL     1       2.453  12.024  17.967  0.00  0.00    +0.000 Cl
ATOM     13  C   UNL     1       0.234  13.276  19.033  0.00  0.00    +0.000 A 
ATOM     14  C   UNL     1      -0.351  14.413  19.615  0.00  0.00    +0.000 A 
BRANCH  10  15
ATOM     15  N   UNL     1       3.844  14.341  19.285  0.00  0.00    +0.000 N 
ATOM     16  H   UNL     1       4.385  14.282  20.147  0.00  0.00    +0.000 HD
BRANCH  15  17
ATOM     17  S   UNL     1       4.592  15.193  18.045  0.00  0.00    +0.000 S 
ATOM     18  C   UNL     1       5.212  16.670  18.827  0.00  0.00    +0.000 C 
ATOM     19  O   UNL     1       5.744  14.393  17.679  0.00  0.00    +0.000 OA
ATOM     20  O   UNL     1       3.594  15.564  17.064  0.00  0.00    +0.000 OA
ENDBRANCH  15  17
ENDBRANCH  10  15
ENDBRANCH   1  13
BRANCH   5  21
ATOM     21  C   UNL     1       0.048  10.087  19.917  0.00  0.00    +0.000 A 
ATOM     22  C   UNL     1       0.025  10.367  21.262  0.00  0.00    +0.000 A 
ATOM     23  C   UNL     1       0.845   9.586  22.037  0.00  0.00    +0.000 A 
ATOM     24  N   UNL     1       1.594   8.579  21.547  0.00  0.00    +0.000 NA
ATOM     25  C   UNL     1       1.529   8.365  20.228  0.00  0.00    +0.000 A 
ATOM     26  N   UNL     1       2.216   7.315  19.643  0.00  0.00    +0.000 N 
ATOM     27  N   UNL     1       0.818   9.113  19.388  0.00  0.00    +0.000 NA
ATOM     28  H   UNL     1       2.978   7.713  19.104  0.00  0.00    +0.000 HD
BRANCH  26  29
ATOM     29  C   UNL     1       2.565   6.211  20.518  0.00  0.00    +0.000 C 
BRANCH  29  30
ATOM     30  C   UNL     1       1.527   5.110  20.331  0.00  0.00    +0.000 C 
BRANCH  30  31
ATOM     31  C   UNL     1       1.860   3.933  21.234  0.00  0.00    +0.000 C 
ATOM     32  N   UNL     1       2.135   2.956  21.982  0.00  0.00    +0.000 NA
ENDBRANCH  30  31
ENDBRANCH  29  30
ENDBRANCH  26  29
ENDBRANCH   5  21
BRANCH   3  33
ATOM     33  C   UNL     1      -3.388  10.946  16.424  0.00  0.00    +0.000 C 
ATOM     34  C   UNL     1      -4.704  11.623  16.681  0.00  0.00    +0.000 C 
ATOM     35  C   UNL     1      -2.932  10.768  14.977  0.00  0.00    +0.000 C 
ATOM     36  C   UNL     1      -3.429   9.586  15.732  0.00  0.00    +0.000 C 
ENDBRANCH   3  33
TORSDOF 8
ENDMDL
MODEL 4
REMARK VINA RESULT:      -7.7      6.480     10.315
REMARK  Name = 
REMARK  11 active torsions:
REMARK  status: ('A' for Active; 'I' for Inactive)
REMARK    1  A    between atoms: C_1  and  C_2
REMARK    2  A    between atoms: C_4  and  N_5
REMARK    3  A    between atoms: N_5  and  S_6
REMARK    4  A    between atoms: S_6  and  C_7
REMARK    5  A    between atoms: C_12  and  C_13
REMARK    6  A    between atoms: C_15  and  C_16
REMARK    7  A    between atoms: C_16  and  C_17
REMARK    8  A    between atoms: C_21  and  C_22
REMARK    9  A    between atoms: N_27  and  C_28
REMARK   10  A    between atoms: C_28  and  C_29
REMARK   11  A    between atoms: C_29  and  C_30
REMARK                            x       y       z     vdW  Elec       q    Type
REMARK                         _______ _______ _______ _____ _____    ______ ____
ROOT
ATOM      1  C   UNL     1      -0.646  12.129  18.580  0.00  0.00    +0.000 A 
ATOM      2  N   UNL     1      -1.653  12.332  17.671  0.00  0.00    +0.000 N 
ATOM      3  C   UNL     1      -2.311  11.163  17.434  0.00  0.00    +0.000 A 
ATOM      4  N   UNL     1      -1.828  10.201  18.185  0.00  0.00    +0.000 NA
ATOM      5  C   UNL     1      -0.758  10.767  18.865  0.00  0.00    +0.000 A 
ATOM      6  H   UNL     1      -1.842  13.204  17.199  0.00  0.00    +0.000 HD
ENDROOT
BRANCH   1  13
ATOM      7  C   UNL     1      -0.255  16.516  20.880  0.00  0.00    +0.000 C 
ATOM      8  C   UNL     1       0.432  15.372  20.195  0.00  0.00    +0.000 A 
ATOM      9  C   UNL     1       1.821  15.317  20.079  0.00  0.00    +0.000 A 
ATOM     10  C   UNL     1       2.427  14.261  19.394  0.00  0.00    +0.000 A 
ATOM     11  C   UNL     1       1.642  13.230  18.842  0.00  0.00    +0.000 A 
ATOM     12 CL   UNL     1       2.444  12.029  17.866  0.00  0.00    +0.000 Cl
ATOM     13  C   UNL     1       0.241  13.217  19.034  0.00  0.00    +0.000 A 
ATOM     14  C   UNL     1      -0.337  14.321  19.682  0.00  0.00    +0.000 A 
BRANCH  10  15
ATOM     15  N   UNL     1       3.851  14.286  19.269  0.00  0.00    +0.000 N 
ATOM     16  H   UNL     1       4.409  14.191  20.117  0.00  0.00    +0.000 HD
BRANCH  15  17
ATOM     17  S   UNL     1       4.572  15.197  18.055  0.00  0.00    +0.000 S 
ATOM     18  C   UNL     1       5.102  16.691  18.871  0.00  0.00    +0.000 C 
ATOM     19  O   UNL     1       5.768  14.464  17.693  0.00  0.00    +0.000 OA
ATOM     20  O   UNL     1       3.570  15.533  17.065  0.00  0.00    +0.000 OA
ENDBRANCH  15  17
ENDBRANCH  10  15
ENDBRANCH   1  13
BRANCH   5  21
ATOM     21  C   UNL     1       0.123   9.976  19.717  0.00  0.00    +0.000 A 
ATOM     22  C   UNL     1       0.105  10.127  21.083  0.00  0.00    +0.000 A 
ATOM     23  C   UNL     1       0.968   9.313  21.773  0.00  0.00    +0.000 A 
ATOM     24  N   UNL     1       1.753   8.390  21.184  0.00  0.00    +0.000 NA
ATOM     25  C   UNL     1       1.681   8.298  19.851  0.00  0.00    +0.000 A 
ATOM     26  N   UNL     1       2.405   7.340  19.164  0.00  0.00    +0.000 N 
ATOM     27  N   UNL     1       0.927   9.091  19.092  0.00  0.00    +0.000 NA
ATOM     28  H   UNL     1       3.141   7.819  18.658  0.00  0.00    +0.000 HD
BRANCH  26  29
ATOM     29  C   UNL     1       2.812   6.175  19.927  0.00  0.00    +0.000 C 
BRANCH  29  30
ATOM     30  C   UNL     1       3.348   5.131  18.952  0.00  0.00    +0.000 C 
BRANCH  30  31
ATOM     31  C   UNL     1       2.209   4.581  18.111  0.00  0.00    +0.000 C 
ATOM     32  N   UNL     1       1.263   4.124  17.412  0.00  0.00    +0.000 NA
ENDBRANCH  30  31
ENDBRANCH  29  30
ENDBRANCH  26  29
ENDBRANCH   5  21
BRANCH   3  33
ATOM     33  C   UNL     1      -3.453  11.011  16.417  0.00  0.00    +0.000 C 
ATOM     34  C   UNL     1      -4.733  11.737  16.718  0.00  0.00    +0.000 C 
ATOM     35  C   UNL     1      -3.046  10.828  14.956  0.00  0.00    +0.000 C 
ATOM     36  C   UNL     1      -3.568   9.660  15.716  0.00  0.00    +0.000 C 
ENDBRANCH   3  33
TORSDOF 8
ENDMDL
MODEL 5
REMARK VINA RESULT:      -7.7      1.226      1.271
REMARK  Name = 
REMARK  11 active torsions:
REMARK  status: ('A' for Active; 'I' for Inactive)
REMARK    1  A    between atoms: C_1  and  C_2
REMARK    2  A    between atoms: C_4  and  N_5
REMARK    3  A    between atoms: N_5  and  S_6
REMARK    4  A    between atoms: S_6  and  C_7
REMARK    5  A    between atoms: C_12  and  C_13
REMARK    6  A    between atoms: C_15  and  C_16
REMARK    7  A    between atoms: C_16  and  C_17
REMARK    8  A    between atoms: C_21  and  C_22
REMARK    9  A    between atoms: N_27  and  C_28
REMARK   10  A    between atoms: C_28  and  C_29
REMARK   11  A    between atoms: C_29  and  C_30
REMARK                            x       y       z     vdW  Elec       q    Type
REMARK                         _______ _______ _______ _____ _____    ______ ____
ROOT
ATOM      1  C   UNL     1       5.432   6.041  16.710  0.00  0.00    +0.000 A 
ATOM      2  N   UNL     1       5.244   5.307  15.566  0.00  0.00    +0.000 N 
ATOM      3  C   UNL     1       6.405   5.237  14.859  0.00  0.00    +0.000 A 
ATOM      4  N   UNL     1       7.375   5.842  15.503  0.00  0.00    +0.000 NA
ATOM      5  C   UNL     1       6.781   6.394  16.629  0.00  0.00    +0.000 A 
ATOM      6  H   UNL     1       4.360   4.926  15.262  0.00  0.00    +0.000 HD
ENDROOT
BRANCH   1  13
ATOM      7  C   UNL     1       1.458   8.763  17.926  0.00  0.00    +0.000 C 
ATOM      8  C   UNL     1       2.369   7.620  18.262  0.00  0.00    +0.000 A 
ATOM      9  C   UNL     1       2.144   6.807  19.373  0.00  0.00    +0.000 A 
ATOM     10  C   UNL     1       3.038   5.781  19.684  0.00  0.00    +0.000 A 
ATOM     11  C   UNL     1       4.157   5.541  18.863  0.00  0.00    +0.000 A 
ATOM     12 CL   UNL     1       5.317   4.352  19.394  0.00  0.00    +0.000 Cl
ATOM     13  C   UNL     1       4.349   6.289  17.679  0.00  0.00    +0.000 A 
ATOM     14  C   UNL     1       3.458   7.347  17.427  0.00  0.00    +0.000 A 
BRANCH  10  15
ATOM     15  N   UNL     1       2.778   5.013  20.862  0.00  0.00    +0.000 N 
ATOM     16  H   UNL     1       3.519   4.936  21.558  0.00  0.00    +0.000 HD
BRANCH  15  17
ATOM     17  S   UNL     1       1.743   3.691  20.792  0.00  0.00    +0.000 S 
ATOM     18  C   UNL     1       2.470   2.618  19.568  0.00  0.00    +0.000 C 
ATOM     19  O   UNL     1       1.888   3.030  22.074  0.00  0.00    +0.000 OA
ATOM     20  O   UNL     1       0.449   4.135  20.319  0.00  0.00    +0.000 OA
ENDBRANCH  15  17
ENDBRANCH  10  15
ENDBRANCH   1  13
BRANCH   5  21
ATOM     21  C   UNL     1       7.516   7.259  17.546  0.00  0.00    +0.000 A 
ATOM     22  C   UNL     1       8.124   6.745  18.666  0.00  0.00    +0.000 A 
ATOM     23  C   UNL     1       8.797   7.657  19.438  0.00  0.00    +0.000 A 
ATOM     24  N   UNL     1       8.910   8.962  19.120  0.00  0.00    +0.000 NA
ATOM     25  C   UNL     1       8.306   9.364  17.996  0.00  0.00    +0.000 A 
ATOM     26  N   UNL     1       8.417  10.672  17.558  0.00  0.00    +0.000 N 
ATOM     27  N   UNL     1       7.573   8.567  17.221  0.00  0.00    +0.000 NA
ATOM     28  H   UNL     1       7.514  11.114  17.689  0.00  0.00    +0.000 HD
BRANCH  26  29
ATOM     29  C   UNL     1       9.565  11.416  18.043  0.00  0.00    +0.000 C 
BRANCH  29  30
ATOM     30  C   UNL     1       9.055  12.628  18.815  0.00  0.00    +0.000 C 
BRANCH  30  31
ATOM     31  C   UNL     1      10.060  13.764  18.708  0.00  0.00    +0.000 C 
ATOM     32  N   UNL     1      10.894  14.706  18.620  0.00  0.00    +0.000 NA
ENDBRANCH  30  31
ENDBRANCH  29  30
ENDBRANCH  26  29
ENDBRANCH   5  21
BRANCH   3  33
ATOM     33  C   UNL     1       6.538   4.548  13.491  0.00  0.00    +0.000 C 
ATOM     34  C   UNL     1       7.595   5.077  12.563  0.00  0.00    +0.000 C 
ATOM     35  C   UNL     1       6.205   3.058  13.443  0.00  0.00    +0.000 C 
ATOM     36  C   UNL     1       5.248   4.035  12.857  0.00  0.00    +0.000 C 
ENDBRANCH   3  33
TORSDOF 8
ENDMDL
MODEL 6
REMARK VINA RESULT:      -7.5      1.307      1.389
REMARK  Name = 
REMARK  11 active torsions:
REMARK  status: ('A' for Active; 'I' for Inactive)
REMARK    1  A    between atoms: C_1  and  C_2
REMARK    2  A    between atoms: C_4  and  N_5
REMARK    3  A    between atoms: N_5  and  S_6
REMARK    4  A    between atoms: S_6  and  C_7
REMARK    5  A    between atoms: C_12  and  C_13
REMARK    6  A    between atoms: C_15  and  C_16
REMARK    7  A    between atoms: C_16  and  C_17
REMARK    8  A    between atoms: C_21  and  C_22
REMARK    9  A    between atoms: N_27  and  C_28
REMARK   10  A    between atoms: C_28  and  C_29
REMARK   11  A    between atoms: C_29  and  C_30
REMARK                            x       y       z     vdW  Elec       q    Type
REMARK                         _______ _______ _______ _____ _____    ______ ____
ROOT
ATOM      1  C   UNL     1       5.403   5.920  16.634  0.00  0.00    +0.000 A 
ATOM      2  N   UNL     1       5.211   5.232  15.463  0.00  0.00    +0.000 N 
ATOM      3  C   UNL     1       6.376   5.171  14.760  0.00  0.00    +0.000 A 
ATOM      4  N   UNL     1       7.351   5.735  15.433  0.00  0.00    +0.000 NA
ATOM      5  C   UNL     1       6.757   6.255  16.575  0.00  0.00    +0.000 A 
ATOM      6  H   UNL     1       4.324   4.876  15.138  0.00  0.00    +0.000 HD
ENDROOT
BRANCH   1  13
ATOM      7  C   UNL     1       1.494   8.688  17.954  0.00  0.00    +0.000 C 
ATOM      8  C   UNL     1       2.369   7.504  18.238  0.00  0.00    +0.000 A 
ATOM      9  C   UNL     1       2.109   6.641  19.303  0.00  0.00    +0.000 A 
ATOM     10  C   UNL     1       2.970   5.574  19.568  0.00  0.00    +0.000 A 
ATOM     11  C   UNL     1       4.091   5.345  18.746  0.00  0.00    +0.000 A 
ATOM     12 CL   UNL     1       5.211   4.097  19.224  0.00  0.00    +0.000 Cl
ATOM     13  C   UNL     1       4.317   6.148  17.605  0.00  0.00    +0.000 A 
ATOM     14  C   UNL     1       3.459   7.243  17.400  0.00  0.00    +0.000 A 
BRANCH  10  15
ATOM     15  N   UNL     1       2.675   4.754  20.702  0.00  0.00    +0.000 N 
ATOM     16  H   UNL     1       3.271   4.841  21.525  0.00  0.00    +0.000 HD
BRANCH  15  17
ATOM     17  S   UNL     1       2.000   3.231  20.484  0.00  0.00    +0.000 S 
ATOM     18  C   UNL     1       1.112   3.350  18.943  0.00  0.00    +0.000 C 
ATOM     19  O   UNL     1       3.127   2.348  20.256  0.00  0.00    +0.000 OA
ATOM     20  O   UNL     1       1.056   2.981  21.553  0.00  0.00    +0.000 OA
ENDBRANCH  15  17
ENDBRANCH  10  15
ENDBRANCH   1  13
BRANCH   5  21
ATOM     21  C   UNL     1       7.499   7.073  17.529  0.00  0.00    +0.000 A 
ATOM     22  C   UNL     1       8.014   6.524  18.679  0.00  0.00    +0.000 A 
ATOM     23  C   UNL     1       8.704   7.394  19.485  0.00  0.00    +0.000 A 
ATOM     24  N   UNL     1       8.918   8.687  19.173  0.00  0.00    +0.000 NA
ATOM     25  C   UNL     1       8.401   9.124  18.019  0.00  0.00    +0.000 A 
ATOM     26  N   UNL     1       8.619  10.420  17.587  0.00  0.00    +0.000 N 
ATOM     27  N   UNL     1       7.658   8.374  17.207  0.00  0.00    +0.000 NA
ATOM     28  H   UNL     1       7.741  10.921  17.671  0.00  0.00    +0.000 HD
BRANCH  26  29
ATOM     29  C   UNL     1       9.786  11.089  18.131  0.00  0.00    +0.000 C 
BRANCH  29  30
ATOM     30  C   UNL     1       9.424  12.548  18.384  0.00  0.00    +0.000 C 
BRANCH  30  31
ATOM     31  C   UNL     1       8.135  12.891  17.655  0.00  0.00    +0.000 C 
ATOM     32  N   UNL     1       7.065  13.175  17.050  0.00  0.00    +0.000 NA
ENDBRANCH  30  31
ENDBRANCH  29  30
ENDBRANCH  26  29
ENDBRANCH   5  21
BRANCH   3  33
ATOM     33  C   UNL     1       6.508   4.532  13.369  0.00  0.00    +0.000 C 
ATOM     34  C   UNL     1       7.555   5.103  12.455  0.00  0.00    +0.000 C 
ATOM     35  C   UNL     1       6.191   3.041  13.270  0.00  0.00    +0.000 C 
ATOM     36  C   UNL     1       5.220   4.028  12.724  0.00  0.00    +0.000 C 
ENDBRANCH   3  33
TORSDOF 8
ENDMDL
MODEL 7
REMARK VINA RESULT:      -7.5      0.987      1.363
REMARK  Name = 
REMARK  11 active torsions:
REMARK  status: ('A' for Active; 'I' for Inactive)
REMARK    1  A    between atoms: C_1  and  C_2
REMARK    2  A    between atoms: C_4  and  N_5
REMARK    3  A    between atoms: N_5  and  S_6
REMARK    4  A    between atoms: S_6  and  C_7
REMARK    5  A    between atoms: C_12  and  C_13
REMARK    6  A    between atoms: C_15  and  C_16
REMARK    7  A    between atoms: C_16  and  C_17
REMARK    8  A    between atoms: C_21  and  C_22
REMARK    9  A    between atoms: N_27  and  C_28
REMARK   10  A    between atoms: C_28  and  C_29
REMARK   11  A    between atoms: C_29  and  C_30
REMARK                            x       y       z     vdW  Elec       q    Type
REMARK                         _______ _______ _______ _____ _____    ______ ____
ROOT
ATOM      1  C   UNL     1       5.259   5.367  16.076  0.00  0.00    +0.000 A 
ATOM      2  N   UNL     1       5.153   4.794  14.834  0.00  0.00    +0.000 N 
ATOM      3  C   UNL     1       6.372   4.760  14.229  0.00  0.00    +0.000 A 
ATOM      4  N   UNL     1       7.298   5.232  15.030  0.00  0.00    +0.000 NA
ATOM      5  C   UNL     1       6.621   5.665  16.161  0.00  0.00    +0.000 A 
ATOM      6  H   UNL     1       4.289   4.495  14.405  0.00  0.00    +0.000 HD
ENDROOT
BRANCH   1  13
ATOM      7  C   UNL     1       2.076   8.518  18.226  0.00  0.00    +0.000 C 
ATOM      8  C   UNL     1       2.512   7.100  18.009  0.00  0.00    +0.000 A 
ATOM      9  C   UNL     1       1.807   6.027  18.554  0.00  0.00    +0.000 A 
ATOM     10  C   UNL     1       2.266   4.720  18.371  0.00  0.00    +0.000 A 
ATOM     11  C   UNL     1       3.427   4.475  17.612  0.00  0.00    +0.000 A 
ATOM     12 CL   UNL     1       4.034   2.842  17.557  0.00  0.00    +0.000 Cl
ATOM     13  C   UNL     1       4.099   5.540  16.970  0.00  0.00    +0.000 A 
ATOM     14  C   UNL     1       3.638   6.844  17.219  0.00  0.00    +0.000 A 
BRANCH  10  15
ATOM     15  N   UNL     1       1.526   3.667  18.995  0.00  0.00    +0.000 N 
ATOM     16  H   UNL     1       0.536   3.578  18.769  0.00  0.00    +0.000 HD
BRANCH  15  17
ATOM     17  S   UNL     1       1.942   3.148  20.538  0.00  0.00    +0.000 S 
ATOM     18  C   UNL     1       2.369   4.640  21.414  0.00  0.00    +0.000 C 
ATOM     19  O   UNL     1       0.707   2.656  21.115  0.00  0.00    +0.000 OA
ATOM     20  O   UNL     1       3.115   2.304  20.447  0.00  0.00    +0.000 OA
ENDBRANCH  15  17
ENDBRANCH  10  15
ENDBRANCH   1  13
BRANCH   5  21
ATOM     21  C   UNL     1       7.296   6.371  17.245  0.00  0.00    +0.000 A 
ATOM     22  C   UNL     1       7.765   5.694  18.345  0.00  0.00    +0.000 A 
ATOM     23  C   UNL     1       8.395   6.468  19.285  0.00  0.00    +0.000 A 
ATOM     24  N   UNL     1       8.597   7.793  19.144  0.00  0.00    +0.000 NA
ATOM     25  C   UNL     1       8.128   8.360  18.027  0.00  0.00    +0.000 A 
ATOM     26  N   UNL     1       8.340   9.703  17.767  0.00  0.00    +0.000 N 
ATOM     27  N   UNL     1       7.443   7.704  17.092  0.00  0.00    +0.000 NA
ATOM     28  H   UNL     1       7.449  10.176  17.865  0.00  0.00    +0.000 HD
BRANCH  26  29
ATOM     29  C   UNL     1       9.464  10.318  18.448  0.00  0.00    +0.000 C 
BRANCH  29  30
ATOM     30  C   UNL     1       9.704  11.690  17.828  0.00  0.00    +0.000 C 
BRANCH  30  31
ATOM     31  C   UNL     1       8.376  12.310  17.426  0.00  0.00    +0.000 C 
ATOM     32  N   UNL     1       7.274  12.826  17.093  0.00  0.00    +0.000 NA
ENDBRANCH  30  31
ENDBRANCH  29  30
ENDBRANCH  26  29
ENDBRANCH   5  21
BRANCH   3  33
ATOM     33  C   UNL     1       6.608   4.245  12.800  0.00  0.00    +0.000 C 
ATOM     34  C   UNL     1       5.586   3.295  12.242  0.00  0.00    +0.000 C 
ATOM     35  C   UNL     1       7.317   5.198  11.840  0.00  0.00    +0.000 C 
ATOM     36  C   UNL     1       8.061   4.029  12.383  0.00  0.00    +0.000 C 
ENDBRANCH   3  33
TORSDOF 8
ENDMDL
MODEL 8
REMARK VINA RESULT:      -7.5      5.293      8.083
REMARK  Name = 
REMARK  11 active torsions:
REMARK  status: ('A' for Active; 'I' for Inactive)
REMARK    1  A    between atoms: C_1  and  C_2
REMARK    2  A    between atoms: C_4  and  N_5
REMARK    3  A    between atoms: N_5  and  S_6
REMARK    4  A    between atoms: S_6  and  C_7
REMARK    5  A    between atoms: C_12  and  C_13
REMARK    6  A    between atoms: C_15  and  C_16
REMARK    7  A    between atoms: C_16  and  C_17
REMARK    8  A    between atoms: C_21  and  C_22
REMARK    9  A    between atoms: N_27  and  C_28
REMARK   10  A    between atoms: C_28  and  C_29
REMARK   11  A    between atoms: C_29  and  C_30
REMARK                            x       y       z     vdW  Elec       q    Type
REMARK                         _______ _______ _______ _____ _____    ______ ____
ROOT
ATOM      1  C   UNL     1      -0.654  10.669  18.812  0.00  0.00    +0.000 A 
ATOM      2  N   UNL     1      -1.714  10.176  18.095  0.00  0.00    +0.000 N 
ATOM      3  C   UNL     1      -2.235  11.152  17.300  0.00  0.00    +0.000 A 
ATOM      4  N   UNL     1      -1.537  12.258  17.410  0.00  0.00    +0.000 NA
ATOM      5  C   UNL     1      -0.583  11.996  18.384  0.00  0.00    +0.000 A 
ATOM      6  H   UNL     1      -2.094   9.245  18.187  0.00  0.00    +0.000 HD
ENDROOT
BRANCH   1  13
ATOM      7  C   UNL     1       0.111   9.361  23.544  0.00  0.00    +0.000 C 
ATOM      8  C   UNL     1       0.468   9.179  22.100  0.00  0.00    +0.000 A 
ATOM      9  C   UNL     1       1.404   8.227  21.693  0.00  0.00    +0.000 A 
ATOM     10  C   UNL     1       1.749   8.114  20.344  0.00  0.00    +0.000 A 
ATOM     11  C   UNL     1       1.134   8.939  19.382  0.00  0.00    +0.000 A 
ATOM     12 CL   UNL     1       1.723   8.859  17.744  0.00  0.00    +0.000 Cl
ATOM     13  C   UNL     1       0.113   9.841  19.762  0.00  0.00    +0.000 A 
ATOM     14  C   UNL     1      -0.169   9.963  21.133  0.00  0.00    +0.000 A 
BRANCH  10  15
ATOM     15  N   UNL     1       2.749   7.152  19.997  0.00  0.00    +0.000 N 
ATOM     16  H   UNL     1       3.604   7.488  19.554  0.00  0.00    +0.000 HD
BRANCH  15  17
ATOM     17  S   UNL     1       2.300   5.593  19.559  0.00  0.00    +0.000 S 
ATOM     18  C   UNL     1       3.791   4.632  19.733  0.00  0.00    +0.000 C 
ATOM     19  O   UNL     1       1.390   5.157  20.600  0.00  0.00    +0.000 OA
ATOM     20  O   UNL     1       1.901   5.595  18.167  0.00  0.00    +0.000 OA
ENDBRANCH  15  17
ENDBRANCH  10  15
ENDBRANCH   1  13
BRANCH   5  21
ATOM     21  C   UNL     1       0.318  13.030  18.882  0.00  0.00    +0.000 A 
ATOM     22  C   UNL     1      -0.001  13.767  19.997  0.00  0.00    +0.000 A 
ATOM     23  C   UNL     1       0.936  14.696  20.374  0.00  0.00    +0.000 A 
ATOM     24  N   UNL     1       2.114  14.862  19.742  0.00  0.00    +0.000 NA
ATOM     25  C   UNL     1       2.347  14.080  18.682  0.00  0.00    +0.000 A 
ATOM     26  N   UNL     1       3.554  14.137  18.007  0.00  0.00    +0.000 N 
ATOM     27  N   UNL     1       1.470  13.200  18.201  0.00  0.00    +0.000 NA
ATOM     28  H   UNL     1       3.378  14.568  17.106  0.00  0.00    +0.000 HD
BRANCH  26  29
ATOM     29  C   UNL     1       4.682  14.662  18.754  0.00  0.00    +0.000 C 
BRANCH  29  30
ATOM     30  C   UNL     1       5.754  15.089  17.758  0.00  0.00    +0.000 C 
BRANCH  30  31
ATOM     31  C   UNL     1       7.097  14.505  18.167  0.00  0.00    +0.000 C 
ATOM     32  N   UNL     1       8.210  14.020  18.506  0.00  0.00    +0.000 NA
ENDBRANCH  30  31
ENDBRANCH  29  30
ENDBRANCH  26  29
ENDBRANCH   5  21
BRANCH   3  33
ATOM     33  C   UNL     1      -3.475  10.966  16.412  0.00  0.00    +0.000 C 
ATOM     34  C   UNL     1      -4.720  11.701  16.821  0.00  0.00    +0.000 C 
ATOM     35  C   UNL     1      -3.220  10.737  14.924  0.00  0.00    +0.000 C 
ATOM     36  C   UNL     1      -3.656   9.593  15.770  0.00  0.00    +0.000 C 
ENDBRANCH   3  33
TORSDOF 8
ENDMDL
MODEL 9
REMARK VINA RESULT:      -7.4      6.510     10.156
REMARK  Name = 
REMARK  11 active torsions:
REMARK  status: ('A' for Active; 'I' for Inactive)
REMARK    1  A    between atoms: C_1  and  C_2
REMARK    2  A    between atoms: C_4  and  N_5
REMARK    3  A    between atoms: N_5  and  S_6
REMARK    4  A    between atoms: S_6  and  C_7
REMARK    5  A    between atoms: C_12  and  C_13
REMARK    6  A    between atoms: C_15  and  C_16
REMARK    7  A    between atoms: C_16  and  C_17
REMARK    8  A    between atoms: C_21  and  C_22
REMARK    9  A    between atoms: N_27  and  C_28
REMARK   10  A    between atoms: C_28  and  C_29
REMARK   11  A    between atoms: C_29  and  C_30
REMARK                            x       y       z     vdW  Elec       q    Type
REMARK                         _______ _______ _______ _____ _____    ______ ____
ROOT
ATOM      1  C   UNL     1      -0.658  12.060  18.582  0.00  0.00    +0.000 A 
ATOM      2  N   UNL     1      -1.680  12.285  17.695  0.00  0.00    +0.000 N 
ATOM      3  C   UNL     1      -2.297  11.111  17.385  0.00  0.00    +0.000 A 
ATOM      4  N   UNL     1      -1.773  10.120  18.067  0.00  0.00    +0.000 NA
ATOM      5  C   UNL     1      -0.718  10.678  18.776  0.00  0.00    +0.000 A 
ATOM      6  H   UNL     1      -1.904  13.179  17.283  0.00  0.00    +0.000 HD
ENDROOT
BRANCH   1  13
ATOM      7  C   UNL     1      -0.410  16.308  21.146  0.00  0.00    +0.000 C 
ATOM      8  C   UNL     1       0.313  15.232  20.393  0.00  0.00    +0.000 A 
ATOM      9  C   UNL     1       1.703  15.231  20.274  0.00  0.00    +0.000 A 
ATOM     10  C   UNL     1       2.343  14.239  19.526  0.00  0.00    +0.000 A 
ATOM     11  C   UNL     1       1.592  13.218  18.911  0.00  0.00    +0.000 A 
ATOM     12 CL   UNL     1       2.433  12.107  17.864  0.00  0.00    +0.000 Cl
ATOM     13  C   UNL     1       0.193  13.146  19.102  0.00  0.00    +0.000 A 
ATOM     14  C   UNL     1      -0.420  14.189  19.816  0.00  0.00    +0.000 A 
BRANCH  10  15
ATOM     15  N   UNL     1       3.765  14.320  19.403  0.00  0.00    +0.000 N 
ATOM     16  H   UNL     1       4.331  14.091  20.219  0.00  0.00    +0.000 HD
BRANCH  15  17
ATOM     17  S   UNL     1       4.456  15.446  18.365  0.00  0.00    +0.000 S 
ATOM     18  C   UNL     1       5.988  14.697  17.846  0.00  0.00    +0.000 C 
ATOM     19  O   UNL     1       3.585  15.476  17.207  0.00  0.00    +0.000 OA
ATOM     20  O   UNL     1       4.752  16.651  19.112  0.00  0.00    +0.000 OA
ENDBRANCH  15  17
ENDBRANCH  10  15
ENDBRANCH   1  13
BRANCH   5  21
ATOM     21  C   UNL     1       0.198   9.865  19.568  0.00  0.00    +0.000 A 
ATOM     22  C   UNL     1       0.173   9.909  20.941  0.00  0.00    +0.000 A 
ATOM     23  C   UNL     1       1.073   9.085  21.570  0.00  0.00    +0.000 A 
ATOM     24  N   UNL     1       1.900   8.248  20.914  0.00  0.00    +0.000 NA
ATOM     25  C   UNL     1       1.832   8.256  19.578  0.00  0.00    +0.000 A 
ATOM     26  N   UNL     1       2.600   7.388  18.822  0.00  0.00    +0.000 N 
ATOM     27  N   UNL     1       1.043   9.069  18.879  0.00  0.00    +0.000 NA
ATOM     28  H   UNL     1       3.314   7.938  18.358  0.00  0.00    +0.000 HD
BRANCH  26  29
ATOM     29  C   UNL     1       3.060   6.187  19.494  0.00  0.00    +0.000 C 
BRANCH  29  30
ATOM     30  C   UNL     1       4.175   5.570  18.656  0.00  0.00    +0.000 C 
BRANCH  30  31
ATOM     31  C   UNL     1       4.533   4.200  19.207  0.00  0.00    +0.000 C 
ATOM     32  N   UNL     1       4.830   3.062  19.665  0.00  0.00    +0.000 NA
ENDBRANCH  30  31
ENDBRANCH  29  30
ENDBRANCH  26  29
ENDBRANCH   5  21
BRANCH   3  33
ATOM     33  C   UNL     1      -3.442  10.984  16.367  0.00  0.00    +0.000 C 
ATOM     34  C   UNL     1      -4.713  11.721  16.679  0.00  0.00    +0.000 C 
ATOM     35  C   UNL     1      -3.038  10.817  14.904  0.00  0.00    +0.000 C 
ATOM     36  C   UNL     1      -3.572   9.644  15.648  0.00  0.00    +0.000 C 
ENDBRANCH   3  33
TORSDOF 8
ENDMDL
