MODEL 1
REMARK VINA RESULT:      -9.1      0.000      0.000
REMARK  Name = 
REMARK  6 active torsions:
REMARK  status: ('A' for Active; 'I' for Inactive)
REMARK    1  A    between atoms: C_1  and  O_2
REMARK    2  A    between atoms: O_2  and  C_3
REMARK    3  A    between atoms: C_3  and  C_4
REMARK    4  A    between atoms: C_4  and  C_5
REMARK    5  A    between atoms: C_8  and  C_9
REMARK    6  A    between atoms: C_14  and  C_16
REMARK                            x       y       z     vdW  Elec       q    Type
REMARK                         _______ _______ _______ _____ _____    ______ ____
ROOT
ATOM      1  C   UNL     1       6.905   5.491  16.873  0.00  0.00    +0.000 C 
ATOM      2  F   UNL     1       8.159   5.607  17.414  0.00  0.00    +0.000 F 
ATOM      3  C   UNL     1       6.185   6.826  17.105  0.00  0.00    +0.000 C 
ATOM      4  C   UNL     1       4.688   6.734  16.823  0.00  0.00    +0.000 C 
ATOM      5  N   UNL     1       4.093   5.602  17.535  0.00  0.00    +0.000 N 
ATOM      6  C   UNL     1       2.859   5.806  18.168  0.00  0.00    +0.000 C 
ATOM      7  O   UNL     1       2.261   6.880  18.112  0.00  0.00    +0.000 OA
ATOM      8  C   UNL     1       4.717   4.312  17.236  0.00  0.00    +0.000 C 
ATOM      9  C   UNL     1       6.188   4.364  17.625  0.00  0.00    +0.000 C 
ENDROOT
BRANCH   6  10
ATOM     10  C   UNL     1       2.218   4.720  18.953  0.00  0.00    +0.000 A 
ATOM     11  C   UNL     1       1.424   3.735  18.360  0.00  0.00    +0.000 A 
ATOM     12  C   UNL     1       0.795   2.786  19.160  0.00  0.00    +0.000 A 
ATOM     13  F   UNL     1      -0.040   1.907  18.596  0.00  0.00    +0.000 F 
ATOM     14  C   UNL     1       1.009   2.744  20.529  0.00  0.00    +0.000 A 
ATOM     15  C   UNL     1       1.877   3.665  21.099  0.00  0.00    +0.000 A 
ATOM     16  F   UNL     1       2.129   3.607  22.411  0.00  0.00    +0.000 F 
ATOM     17  C   UNL     1       2.479   4.655  20.327  0.00  0.00    +0.000 A 
ENDBRANCH   6  10
BRANCH   1  21
ATOM     18  C   UNL     1       7.006   4.418  13.465  0.00  0.00    +0.000 A 
ATOM     19  N   UNL     1       7.911   5.402  13.397  0.00  0.00    +0.000 NA
ATOM     20  O   UNL     1       7.915   5.924  14.691  0.00  0.00    +0.000 OA
ATOM     21  C   UNL     1       7.028   5.179  15.413  0.00  0.00    +0.000 A 
ATOM     22  N   UNL     1       6.453   4.230  14.705  0.00  0.00    +0.000 NA
BRANCH  18  23
ATOM     23  C   UNL     1       6.635   3.575  12.310  0.00  0.00    +0.000 C 
BRANCH  23  24
ATOM     24  C   UNL     1       5.129   3.396  12.190  0.00  0.00    +0.000 C 
BRANCH  24  26
ATOM     25  C   UNL     1       5.948   1.386  11.263  0.00  0.00    +0.000 C 
ATOM     26  O   UNL     1       4.867   2.309  11.301  0.00  0.00    +0.000 OA
ENDBRANCH  24  26
ENDBRANCH  23  24
ENDBRANCH  18  23
ENDBRANCH   1  21
TORSDOF 5
ENDMDL
MODEL 2
REMARK VINA RESULT:      -9.1      0.109      1.613
REMARK  Name = 
REMARK  6 active torsions:
REMARK  status: ('A' for Active; 'I' for Inactive)
REMARK    1  A    between atoms: C_1  and  O_2
REMARK    2  A    between atoms: O_2  and  C_3
REMARK    3  A    between atoms: C_3  and  C_4
REMARK    4  A    between atoms: C_4  and  C_5
REMARK    5  A    between atoms: C_8  and  C_9
REMARK    6  A    between atoms: C_14  and  C_16
REMARK                            x       y       z     vdW  Elec       q    Type
REMARK                         _______ _______ _______ _____ _____    ______ ____
ROOT
ATOM      1  C   UNL     1       6.880   5.594  16.931  0.00  0.00    +0.000 C 
ATOM      2  F   UNL     1       8.133   5.755  17.463  0.00  0.00    +0.000 F 
ATOM      3  C   UNL     1       6.127   6.917  17.131  0.00  0.00    +0.000 C 
ATOM      4  C   UNL     1       4.632   6.780  16.858  0.00  0.00    +0.000 C 
ATOM      5  N   UNL     1       4.068   5.652  17.601  0.00  0.00    +0.000 N 
ATOM      6  C   UNL     1       2.832   5.842  18.234  0.00  0.00    +0.000 C 
ATOM      7  O   UNL     1       2.206   6.899  18.153  0.00  0.00    +0.000 OA
ATOM      8  C   UNL     1       4.723   4.371  17.333  0.00  0.00    +0.000 C 
ATOM      9  C   UNL     1       6.194   4.470  17.714  0.00  0.00    +0.000 C 
ENDROOT
BRANCH   6  10
ATOM     10  C   UNL     1       2.220   4.762  19.049  0.00  0.00    +0.000 A 
ATOM     11  C   UNL     1       2.384   4.682  20.435  0.00  0.00    +0.000 A 
ATOM     12  C   UNL     1       1.842   3.606  21.130  0.00  0.00    +0.000 A 
ATOM     13  F   UNL     1       2.086   3.485  22.440  0.00  0.00    +0.000 F 
ATOM     14  C   UNL     1       1.067   2.653  20.489  0.00  0.00    +0.000 A 
ATOM     15  C   UNL     1       0.824   2.791  19.129  0.00  0.00    +0.000 A 
ATOM     16  F   UNL     1       0.039   1.906  18.506  0.00  0.00    +0.000 F 
ATOM     17  C   UNL     1       1.397   3.832  18.403  0.00  0.00    +0.000 A 
ENDBRANCH   6  10
BRANCH   1  21
ATOM     18  C   UNL     1       6.979   4.445  13.548  0.00  0.00    +0.000 A 
ATOM     19  N   UNL     1       7.906   5.408  13.465  0.00  0.00    +0.000 NA
ATOM     20  O   UNL     1       7.914   5.958  14.748  0.00  0.00    +0.000 OA
ATOM     21  C   UNL     1       7.005   5.248  15.479  0.00  0.00    +0.000 A 
ATOM     22  N   UNL     1       6.414   4.297  14.788  0.00  0.00    +0.000 NA
BRANCH  18  23
ATOM     23  C   UNL     1       6.598   3.586  12.409  0.00  0.00    +0.000 C 
BRANCH  23  24
ATOM     24  C   UNL     1       5.090   3.415  12.299  0.00  0.00    +0.000 C 
BRANCH  24  26
ATOM     25  C   UNL     1       5.807   1.411  11.278  0.00  0.00    +0.000 C 
ATOM     26  O   UNL     1       4.813   2.428  11.303  0.00  0.00    +0.000 OA
ENDBRANCH  24  26
ENDBRANCH  23  24
ENDBRANCH  18  23
ENDBRANCH   1  21
TORSDOF 5
ENDMDL
MODEL 3
REMARK VINA RESULT:      -7.6      0.950      1.942
REMARK  Name = 
REMARK  6 active torsions:
REMARK  status: ('A' for Active; 'I' for Inactive)
REMARK    1  A    between atoms: C_1  and  O_2
REMARK    2  A    between atoms: O_2  and  C_3
REMARK    3  A    between atoms: C_3  and  C_4
REMARK    4  A    between atoms: C_4  and  C_5
REMARK    5  A    between atoms: C_8  and  C_9
REMARK    6  A    between atoms: C_14  and  C_16
REMARK                            x       y       z     vdW  Elec       q    Type
REMARK                         _______ _______ _______ _____ _____    ______ ____
ROOT
ATOM      1  C   UNL     1       6.679   4.732  15.919  0.00  0.00    +0.000 C 
ATOM      2  F   UNL     1       8.013   4.544  16.174  0.00  0.00    +0.000 F 
ATOM      3  C   UNL     1       6.334   6.167  16.337  0.00  0.00    +0.000 C 
ATOM      4  C   UNL     1       4.829   6.410  16.388  0.00  0.00    +0.000 C 
ATOM      5  N   UNL     1       4.162   5.379  17.185  0.00  0.00    +0.000 N 
ATOM      6  C   UNL     1       3.164   5.790  18.080  0.00  0.00    +0.000 C 
ATOM      7  O   UNL     1       2.816   6.966  18.183  0.00  0.00    +0.000 OA
ATOM      8  C   UNL     1       4.412   4.011  16.725  0.00  0.00    +0.000 C 
ATOM      9  C   UNL     1       5.907   3.728  16.782  0.00  0.00    +0.000 C 
ENDROOT
BRANCH   6  10
ATOM     10  C   UNL     1       2.478   4.808  18.959  0.00  0.00    +0.000 A 
ATOM     11  C   UNL     1       2.692   4.760  20.339  0.00  0.00    +0.000 A 
ATOM     12  C   UNL     1       2.071   3.771  21.096  0.00  0.00    +0.000 A 
ATOM     13  F   UNL     1       2.357   3.671  22.399  0.00  0.00    +0.000 F 
ATOM     14  C   UNL     1       1.175   2.884  20.523  0.00  0.00    +0.000 A 
ATOM     15  C   UNL     1       0.890   3.000  19.169  0.00  0.00    +0.000 A 
ATOM     16  F   UNL     1      -0.008   2.180  18.612  0.00  0.00    +0.000 F 
ATOM     17  C   UNL     1       1.537   3.948  18.381  0.00  0.00    +0.000 A 
ENDBRANCH   6  10
BRANCH   1  21
ATOM     18  C   UNL     1       5.744   4.008  12.547  0.00  0.00    +0.000 A 
ATOM     19  N   UNL     1       7.010   4.385  12.332  0.00  0.00    +0.000 NA
ATOM     20  O   UNL     1       7.462   4.735  13.605  0.00  0.00    +0.000 OA
ATOM     21  C   UNL     1       6.423   4.507  14.461  0.00  0.00    +0.000 A 
ATOM     22  N   UNL     1       5.347   4.045  13.858  0.00  0.00    +0.000 NA
BRANCH  18  23
ATOM     23  C   UNL     1       4.836   3.564  11.470  0.00  0.00    +0.000 C 
BRANCH  23  24
ATOM     24  C   UNL     1       4.830   2.051  11.311  0.00  0.00    +0.000 C 
BRANCH  24  26
ATOM     25  C   UNL     1       6.254   0.169  11.264  0.00  0.00    +0.000 C 
ATOM     26  O   UNL     1       6.181   1.589  11.277  0.00  0.00    +0.000 OA
ENDBRANCH  24  26
ENDBRANCH  23  24
ENDBRANCH  18  23
ENDBRANCH   1  21
TORSDOF 5
ENDMDL
MODEL 4
REMARK VINA RESULT:      -7.5      3.519      5.610
REMARK  Name = 
REMARK  6 active torsions:
REMARK  status: ('A' for Active; 'I' for Inactive)
REMARK    1  A    between atoms: C_1  and  O_2
REMARK    2  A    between atoms: O_2  and  C_3
REMARK    3  A    between atoms: C_3  and  C_4
REMARK    4  A    between atoms: C_4  and  C_5
REMARK    5  A    between atoms: C_8  and  C_9
REMARK    6  A    between atoms: C_14  and  C_16
REMARK                            x       y       z     vdW  Elec       q    Type
REMARK                         _______ _______ _______ _____ _____    ______ ____
ROOT
ATOM      1  C   UNL     1       6.771   5.917  16.777  0.00  0.00    +0.000 C 
ATOM      2  F   UNL     1       7.059   5.946  15.438  0.00  0.00    +0.000 F 
ATOM      3  C   UNL     1       7.323   4.596  17.331  0.00  0.00    +0.000 C 
ATOM      4  C   UNL     1       6.811   4.298  18.738  0.00  0.00    +0.000 C 
ATOM      5  N   UNL     1       5.352   4.409  18.795  0.00  0.00    +0.000 N 
ATOM      6  C   UNL     1       4.651   3.423  19.504  0.00  0.00    +0.000 C 
ATOM      7  O   UNL     1       5.222   2.507  20.097  0.00  0.00    +0.000 OA
ATOM      8  C   UNL     1       4.832   5.706  18.360  0.00  0.00    +0.000 C 
ATOM      9  C   UNL     1       5.245   5.954  16.916  0.00  0.00    +0.000 C 
ENDROOT
BRANCH   6  10
ATOM     10  C   UNL     1       3.167   3.438  19.563  0.00  0.00    +0.000 A 
ATOM     11  C   UNL     1       2.383   2.416  19.021  0.00  0.00    +0.000 A 
ATOM     12  C   UNL     1       0.997   2.525  19.049  0.00  0.00    +0.000 A 
ATOM     13  F   UNL     1       0.256   1.591  18.442  0.00  0.00    +0.000 F 
ATOM     14  C   UNL     1       0.372   3.587  19.683  0.00  0.00    +0.000 A 
ATOM     15  C   UNL     1       1.154   4.549  20.307  0.00  0.00    +0.000 A 
ATOM     16  F   UNL     1       0.565   5.554  20.962  0.00  0.00    +0.000 F 
ATOM     17  C   UNL     1       2.544   4.488  20.249  0.00  0.00    +0.000 A 
ENDBRANCH   6  10
BRANCH   1  21
ATOM     18  C   UNL     1       8.200   8.939  18.040  0.00  0.00    +0.000 A 
ATOM     19  N   UNL     1       8.714   8.082  18.931  0.00  0.00    +0.000 NA
ATOM     20  O   UNL     1       8.172   6.855  18.545  0.00  0.00    +0.000 OA
ATOM     21  C   UNL     1       7.407   7.099  17.441  0.00  0.00    +0.000 A 
ATOM     22  N   UNL     1       7.404   8.366  17.083  0.00  0.00    +0.000 NA
BRANCH  18  23
ATOM     23  C   UNL     1       8.477  10.390  18.058  0.00  0.00    +0.000 C 
BRANCH  23  24
ATOM     24  C   UNL     1       9.730  10.726  18.854  0.00  0.00    +0.000 C 
BRANCH  24  26
ATOM     25  C   UNL     1       9.190  11.401  21.050  0.00  0.00    +0.000 C 
ATOM     26  O   UNL     1       9.442  11.827  19.717  0.00  0.00    +0.000 OA
ENDBRANCH  24  26
ENDBRANCH  23  24
ENDBRANCH  18  23
ENDBRANCH   1  21
TORSDOF 5
ENDMDL
MODEL 5
REMARK VINA RESULT:      -7.4      3.542      5.593
REMARK  Name = 
REMARK  6 active torsions:
REMARK  status: ('A' for Active; 'I' for Inactive)
REMARK    1  A    between atoms: C_1  and  O_2
REMARK    2  A    between atoms: O_2  and  C_3
REMARK    3  A    between atoms: C_3  and  C_4
REMARK    4  A    between atoms: C_4  and  C_5
REMARK    5  A    between atoms: C_8  and  C_9
REMARK    6  A    between atoms: C_14  and  C_16
REMARK                            x       y       z     vdW  Elec       q    Type
REMARK                         _______ _______ _______ _____ _____    ______ ____
ROOT
ATOM      1  C   UNL     1       6.930   5.951  16.798  0.00  0.00    +0.000 C 
ATOM      2  F   UNL     1       7.245   5.983  15.465  0.00  0.00    +0.000 F 
ATOM      3  C   UNL     1       7.505   4.648  17.370  0.00  0.00    +0.000 C 
ATOM      4  C   UNL     1       6.972   4.342  18.766  0.00  0.00    +0.000 C 
ATOM      5  N   UNL     1       5.509   4.412  18.792  0.00  0.00    +0.000 N 
ATOM      6  C   UNL     1       4.821   3.410  19.490  0.00  0.00    +0.000 C 
ATOM      7  O   UNL     1       5.404   2.514  20.099  0.00  0.00    +0.000 OA
ATOM      8  C   UNL     1       4.963   5.693  18.340  0.00  0.00    +0.000 C 
ATOM      9  C   UNL     1       5.400   5.947  16.904  0.00  0.00    +0.000 C 
ENDROOT
BRANCH   6  10
ATOM     10  C   UNL     1       3.336   3.385  19.518  0.00  0.00    +0.000 A 
ATOM     11  C   UNL     1       2.560   3.644  18.385  0.00  0.00    +0.000 A 
ATOM     12  C   UNL     1       1.173   3.672  18.495  0.00  0.00    +0.000 A 
ATOM     13  F   UNL     1       0.441   4.016  17.429  0.00  0.00    +0.000 F 
ATOM     14  C   UNL     1       0.540   3.363  19.688  0.00  0.00    +0.000 A 
ATOM     15  C   UNL     1       1.313   3.009  20.785  0.00  0.00    +0.000 A 
ATOM     16  F   UNL     1       0.715   2.663  21.929  0.00  0.00    +0.000 F 
ATOM     17  C   UNL     1       2.704   3.023  20.713  0.00  0.00    +0.000 A 
ENDBRANCH   6  10
BRANCH   1  21
ATOM     18  C   UNL     1       8.267   9.012  18.070  0.00  0.00    +0.000 A 
ATOM     19  N   UNL     1       8.723   8.181  19.015  0.00  0.00    +0.000 NA
ATOM     20  O   UNL     1       8.210   6.942  18.628  0.00  0.00    +0.000 OA
ATOM     21  C   UNL     1       7.518   7.153  17.470  0.00  0.00    +0.000 A 
ATOM     22  N   UNL     1       7.536   8.410  17.079  0.00  0.00    +0.000 NA
BRANCH  18  23
ATOM     23  C   UNL     1       8.538  10.464  18.067  0.00  0.00    +0.000 C 
BRANCH  23  24
ATOM     24  C   UNL     1       9.624  10.847  19.062  0.00  0.00    +0.000 C 
BRANCH  24  26
ATOM     25  C   UNL     1      11.857  11.613  19.049  0.00  0.00    +0.000 C 
ATOM     26  O   UNL     1      10.596  11.651  18.391  0.00  0.00    +0.000 OA
ENDBRANCH  24  26
ENDBRANCH  23  24
ENDBRANCH  18  23
ENDBRANCH   1  21
TORSDOF 5
ENDMDL
MODEL 6
REMARK VINA RESULT:      -7.4      3.518      5.776
REMARK  Name = 
REMARK  6 active torsions:
REMARK  status: ('A' for Active; 'I' for Inactive)
REMARK    1  A    between atoms: C_1  and  O_2
REMARK    2  A    between atoms: O_2  and  C_3
REMARK    3  A    between atoms: C_3  and  C_4
REMARK    4  A    between atoms: C_4  and  C_5
REMARK    5  A    between atoms: C_8  and  C_9
REMARK    6  A    between atoms: C_14  and  C_16
REMARK                            x       y       z     vdW  Elec       q    Type
REMARK                         _______ _______ _______ _____ _____    ______ ____
ROOT
ATOM      1  C   UNL     1       6.786   5.990  16.772  0.00  0.00    +0.000 C 
ATOM      2  F   UNL     1       7.058   6.049  15.430  0.00  0.00    +0.000 F 
ATOM      3  C   UNL     1       7.317   4.644  17.285  0.00  0.00    +0.000 C 
ATOM      4  C   UNL     1       6.816   4.320  18.689  0.00  0.00    +0.000 C 
ATOM      5  N   UNL     1       5.360   4.459  18.768  0.00  0.00    +0.000 N 
ATOM      6  C   UNL     1       4.648   3.469  19.459  0.00  0.00    +0.000 C 
ATOM      7  O   UNL     1       5.207   2.527  20.021  0.00  0.00    +0.000 OA
ATOM      8  C   UNL     1       4.862   5.778  18.373  0.00  0.00    +0.000 C 
ATOM      9  C   UNL     1       5.263   6.055  16.931  0.00  0.00    +0.000 C 
ENDROOT
BRANCH   6  10
ATOM     10  C   UNL     1       3.165   3.513  19.538  0.00  0.00    +0.000 A 
ATOM     11  C   UNL     1       2.478   4.562  20.156  0.00  0.00    +0.000 A 
ATOM     12  C   UNL     1       1.091   4.509  20.257  0.00  0.00    +0.000 A 
ATOM     13  F   UNL     1       0.449   5.466  20.935  0.00  0.00    +0.000 F 
ATOM     14  C   UNL     1       0.368   3.477  19.680  0.00  0.00    +0.000 A 
ATOM     15  C   UNL     1       1.049   2.490  18.981  0.00  0.00    +0.000 A 
ATOM     16  F   UNL     1       0.360   1.515  18.379  0.00  0.00    +0.000 F 
ATOM     17  C   UNL     1       2.439   2.495  18.909  0.00  0.00    +0.000 A 
ENDBRANCH   6  10
BRANCH   1  21
ATOM     18  C   UNL     1       8.315   8.941  18.086  0.00  0.00    +0.000 A 
ATOM     19  N   UNL     1       8.752   8.062  18.996  0.00  0.00    +0.000 NA
ATOM     20  O   UNL     1       8.165   6.862  18.590  0.00  0.00    +0.000 OA
ATOM     21  C   UNL     1       7.455   7.141  17.459  0.00  0.00    +0.000 A 
ATOM     22  N   UNL     1       7.528   8.406  17.100  0.00  0.00    +0.000 NA
BRANCH  18  23
ATOM     23  C   UNL     1       8.662  10.377  18.114  0.00  0.00    +0.000 C 
BRANCH  23  24
ATOM     24  C   UNL     1       9.492  10.743  19.336  0.00  0.00    +0.000 C 
BRANCH  24  26
ATOM     25  C   UNL     1      11.679  11.605  19.123  0.00  0.00    +0.000 C 
ATOM     26  O   UNL     1      10.289  11.887  19.021  0.00  0.00    +0.000 OA
ENDBRANCH  24  26
ENDBRANCH  23  24
ENDBRANCH  18  23
ENDBRANCH   1  21
TORSDOF 5
ENDMDL
MODEL 7
REMARK VINA RESULT:      -7.4      4.703      7.016
REMARK  Name = 
REMARK  6 active torsions:
REMARK  status: ('A' for Active; 'I' for Inactive)
REMARK    1  A    between atoms: C_1  and  O_2
REMARK    2  A    between atoms: O_2  and  C_3
REMARK    3  A    between atoms: C_3  and  C_4
REMARK    4  A    between atoms: C_4  and  C_5
REMARK    5  A    between atoms: C_8  and  C_9
REMARK    6  A    between atoms: C_14  and  C_16
REMARK                            x       y       z     vdW  Elec       q    Type
REMARK                         _______ _______ _______ _____ _____    ______ ____
ROOT
ATOM      1  C   UNL     1       2.536   5.500  18.485  0.00  0.00    +0.000 C 
ATOM      2  F   UNL     1       2.070   4.497  17.676  0.00  0.00    +0.000 F 
ATOM      3  C   UNL     1       1.826   5.360  19.838  0.00  0.00    +0.000 C 
ATOM      4  C   UNL     1       2.025   6.584  20.727  0.00  0.00    +0.000 C 
ATOM      5  N   UNL     1       1.696   7.813  20.003  0.00  0.00    +0.000 N 
ATOM      6  C   UNL     1       0.952   8.789  20.680  0.00  0.00    +0.000 C 
ATOM      7  O   UNL     1       0.608   8.657  21.855  0.00  0.00    +0.000 OA
ATOM      8  C   UNL     1       2.448   7.995  18.760  0.00  0.00    +0.000 C 
ATOM      9  C   UNL     1       2.160   6.830  17.824  0.00  0.00    +0.000 C 
ENDROOT
BRANCH   6  10
ATOM     10  C   UNL     1       0.536  10.040  19.996  0.00  0.00    +0.000 A 
ATOM     11  C   UNL     1       1.171  11.265  20.218  0.00  0.00    +0.000 A 
ATOM     12  C   UNL     1       0.688  12.412  19.597  0.00  0.00    +0.000 A 
ATOM     13  F   UNL     1       1.240  13.594  19.891  0.00  0.00    +0.000 F 
ATOM     14  C   UNL     1      -0.360  12.352  18.693  0.00  0.00    +0.000 A 
ATOM     15  C   UNL     1      -0.923  11.118  18.400  0.00  0.00    +0.000 A 
ATOM     16  F   UNL     1      -1.903  11.039  17.494  0.00  0.00    +0.000 F 
ATOM     17  C   UNL     1      -0.490   9.963  19.046  0.00  0.00    +0.000 A 
ENDBRANCH   6  10
BRANCH   1  21
ATOM     18  C   UNL     1       6.109   5.409  18.516  0.00  0.00    +0.000 A 
ATOM     19  N   UNL     1       5.871   4.389  19.349  0.00  0.00    +0.000 NA
ATOM     20  O   UNL     1       4.478   4.367  19.441  0.00  0.00    +0.000 OA
ATOM     21  C   UNL     1       4.021   5.364  18.628  0.00  0.00    +0.000 A 
ATOM     22  N   UNL     1       4.987   6.026  18.026  0.00  0.00    +0.000 NA
BRANCH  18  23
ATOM     23  C   UNL     1       7.468   5.839  18.127  0.00  0.00    +0.000 C 
BRANCH  23  24
ATOM     24  C   UNL     1       7.491   7.268  17.605  0.00  0.00    +0.000 C 
BRANCH  24  26
ATOM     25  C   UNL     1       8.357   9.415  18.065  0.00  0.00    +0.000 C 
ATOM     26  O   UNL     1       8.387   8.035  18.411  0.00  0.00    +0.000 OA
ENDBRANCH  24  26
ENDBRANCH  23  24
ENDBRANCH  18  23
ENDBRANCH   1  21
TORSDOF 5
ENDMDL
MODEL 8
REMARK VINA RESULT:      -7.4      4.766      6.655
REMARK  Name = 
REMARK  6 active torsions:
REMARK  status: ('A' for Active; 'I' for Inactive)
REMARK    1  A    between atoms: C_1  and  O_2
REMARK    2  A    between atoms: O_2  and  C_3
REMARK    3  A    between atoms: C_3  and  C_4
REMARK    4  A    between atoms: C_4  and  C_5
REMARK    5  A    between atoms: C_8  and  C_9
REMARK    6  A    between atoms: C_14  and  C_16
REMARK                            x       y       z     vdW  Elec       q    Type
REMARK                         _______ _______ _______ _____ _____    ______ ____
ROOT
ATOM      1  C   UNL     1       2.408   5.786  18.593  0.00  0.00    +0.000 C 
ATOM      2  F   UNL     1       1.917   4.694  17.926  0.00  0.00    +0.000 F 
ATOM      3  C   UNL     1       1.796   5.771  20.000  0.00  0.00    +0.000 C 
ATOM      4  C   UNL     1       2.019   7.085  20.744  0.00  0.00    +0.000 C 
ATOM      5  N   UNL     1       1.605   8.224  19.923  0.00  0.00    +0.000 N 
ATOM      6  C   UNL     1       0.881   9.249  20.549  0.00  0.00    +0.000 C 
ATOM      7  O   UNL     1       0.622   9.231  21.752  0.00  0.00    +0.000 OA
ATOM      8  C   UNL     1       2.264   8.293  18.618  0.00  0.00    +0.000 C 
ATOM      9  C   UNL     1       1.947   7.031  17.828  0.00  0.00    +0.000 C 
ENDROOT
BRANCH   6  10
ATOM     10  C   UNL     1       0.382  10.412  19.772  0.00  0.00    +0.000 A 
ATOM     11  C   UNL     1       1.075  11.624  19.705  0.00  0.00    +0.000 A 
ATOM     12  C   UNL     1       0.519  12.697  19.016  0.00  0.00    +0.000 A 
ATOM     13  F   UNL     1       1.142  13.880  19.040  0.00  0.00    +0.000 F 
ATOM     14  C   UNL     1      -0.671  12.564  18.319  0.00  0.00    +0.000 A 
ATOM     15  C   UNL     1      -1.306  11.330  18.306  0.00  0.00    +0.000 A 
ATOM     16  F   UNL     1      -2.430  11.174  17.600  0.00  0.00    +0.000 F 
ATOM     17  C   UNL     1      -0.795  10.255  19.029  0.00  0.00    +0.000 A 
ENDBRANCH   6  10
BRANCH   1  21
ATOM     18  C   UNL     1       5.969   5.644  18.328  0.00  0.00    +0.000 A 
ATOM     19  N   UNL     1       5.834   5.121  19.552  0.00  0.00    +0.000 NA
ATOM     20  O   UNL     1       4.456   5.172  19.773  0.00  0.00    +0.000 OA
ATOM     21  C   UNL     1       3.902   5.698  18.642  0.00  0.00    +0.000 A 
ATOM     22  N   UNL     1       4.792   5.993  17.718  0.00  0.00    +0.000 NA
BRANCH  18  23
ATOM     23  C   UNL     1       7.275   5.821  17.661  0.00  0.00    +0.000 C 
BRANCH  23  24
ATOM     24  C   UNL     1       7.526   4.760  16.600  0.00  0.00    +0.000 C 
BRANCH  24  26
ATOM     25  C   UNL     1       6.659   4.635  14.408  0.00  0.00    +0.000 C 
ATOM     26  O   UNL     1       7.467   5.377  15.313  0.00  0.00    +0.000 OA
ENDBRANCH  24  26
ENDBRANCH  23  24
ENDBRANCH  18  23
ENDBRANCH   1  21
TORSDOF 5
ENDMDL
MODEL 9
REMARK VINA RESULT:      -7.3      4.589      6.369
REMARK  Name = 
REMARK  6 active torsions:
REMARK  status: ('A' for Active; 'I' for Inactive)
REMARK    1  A    between atoms: C_1  and  O_2
REMARK    2  A    between atoms: O_2  and  C_3
REMARK    3  A    between atoms: C_3  and  C_4
REMARK    4  A    between atoms: C_4  and  C_5
REMARK    5  A    between atoms: C_8  and  C_9
REMARK    6  A    between atoms: C_14  and  C_16
REMARK                            x       y       z     vdW  Elec       q    Type
REMARK                         _______ _______ _______ _____ _____    ______ ____
ROOT
ATOM      1  C   UNL     1       2.337   5.427  18.571  0.00  0.00    +0.000 C 
ATOM      2  F   UNL     1       1.800   4.419  17.814  0.00  0.00    +0.000 F 
ATOM      3  C   UNL     1       1.699   5.339  19.964  0.00  0.00    +0.000 C 
ATOM      4  C   UNL     1       1.980   6.578  20.810  0.00  0.00    +0.000 C 
ATOM      5  N   UNL     1       1.644   7.798  20.074  0.00  0.00    +0.000 N 
ATOM      6  C   UNL     1       0.965   8.810  20.767  0.00  0.00    +0.000 C 
ATOM      7  O   UNL     1       0.683   8.715  21.961  0.00  0.00    +0.000 OA
ATOM      8  C   UNL     1       2.330   7.930  18.788  0.00  0.00    +0.000 C 
ATOM      9  C   UNL     1       1.960   6.751  17.898  0.00  0.00    +0.000 C 
ENDROOT
BRANCH   6  10
ATOM     10  C   UNL     1       0.544  10.055  20.075  0.00  0.00    +0.000 A 
ATOM     11  C   UNL     1      -0.509  10.085  19.156  0.00  0.00    +0.000 A 
ATOM     12  C   UNL     1      -0.808  11.270  18.492  0.00  0.00    +0.000 A 
ATOM     13  F   UNL     1      -1.752  11.266  17.544  0.00  0.00    +0.000 F 
ATOM     14  C   UNL     1      -0.138  12.446  18.784  0.00  0.00    +0.000 A 
ATOM     15  C   UNL     1       0.840  12.434  19.769  0.00  0.00    +0.000 A 
ATOM     16  F   UNL     1       1.463  13.571  20.095  0.00  0.00    +0.000 F 
ATOM     17  C   UNL     1       1.192  11.250  20.413  0.00  0.00    +0.000 A 
ENDBRANCH   6  10
BRANCH   1  21
ATOM     18  C   UNL     1       5.898   5.195  18.381  0.00  0.00    +0.000 A 
ATOM     19  N   UNL     1       5.689   4.326  19.377  0.00  0.00    +0.000 NA
ATOM     20  O   UNL     1       4.307   4.376  19.562  0.00  0.00    +0.000 OA
ATOM     21  C   UNL     1       3.823   5.253  18.635  0.00  0.00    +0.000 A 
ATOM     22  N   UNL     1       4.764   5.774  17.875  0.00  0.00    +0.000 NA
BRANCH  18  23
ATOM     23  C   UNL     1       7.239   5.502  17.841  0.00  0.00    +0.000 C 
BRANCH  23  24
ATOM     24  C   UNL     1       7.572   4.661  16.617  0.00  0.00    +0.000 C 
BRANCH  24  26
ATOM     25  C   UNL     1       6.777   4.786  14.398  0.00  0.00    +0.000 C 
ATOM     26  O   UNL     1       7.438   5.476  15.452  0.00  0.00    +0.000 OA
ENDBRANCH  24  26
ENDBRANCH  23  24
ENDBRANCH  18  23
ENDBRANCH   1  21
TORSDOF 5
ENDMDL
