MODEL 1
REMARK VINA RESULT:      -7.2      0.000      0.000
REMARK  Name = 
REMARK  4 active torsions:
REMARK  status: ('A' for Active; 'I' for Inactive)
REMARK    1  A    between atoms: C_1  and  C_2
REMARK    2  A    between atoms: C_4  and  C_5
REMARK    3  A    between atoms: N_9  and  C_10
REMARK    4  A    between atoms: C_10  and  C_11
REMARK                            x       y       z     vdW  Elec       q    Type
REMARK                         _______ _______ _______ _____ _____    ______ ____
ROOT
ATOM      1  C   UNL     1       1.230   2.484  22.051  0.00  0.00    +0.000 C 
ATOM      2  C   UNL     1       1.861   3.349  20.999  0.00  0.00    +0.000 A 
ATOM      3  C   UNL     1       1.693   4.738  20.999  0.00  0.00    +0.000 A 
ATOM      4  C   UNL     1       2.274   5.562  20.003  0.00  0.00    +0.000 A 
ATOM      5  C   UNL     1       2.053   7.045  20.065  0.00  0.00    +0.000 C 
ATOM      6  C   UNL     1       3.040   4.937  18.978  0.00  0.00    +0.000 A 
ATOM      7  N   UNL     1       3.674   5.567  17.906  0.00  0.00    +0.000 NA
ATOM      8  C   UNL     1       4.269   4.667  17.144  0.00  0.00    +0.000 A 
ATOM      9  N   UNL     1       4.943   4.893  16.003  0.00  0.00    +0.000 N 
ATOM     10  S   UNL     1       4.160   3.049  17.689  0.00  0.00    +0.000 S 
ATOM     11  C   UNL     1       3.199   3.557  19.012  0.00  0.00    +0.000 A 
ATOM     12  C   UNL     1       2.629   2.746  20.004  0.00  0.00    +0.000 A 
ATOM     13  H   UNL     1       5.288   4.095  15.481  0.00  0.00    +0.000 HD
ENDROOT
BRANCH   9  14
ATOM     14  C   UNL     1       5.617   6.154  15.739  0.00  0.00    +0.000 C 
BRANCH  14  15
ATOM     15  C   UNL     1       7.120   6.048  16.073  0.00  0.00    +0.000 C 
ATOM     16  C   UNL     1       7.538   6.904  17.261  0.00  0.00    +0.000 C 
ATOM     17  C   UNL     1       7.347   5.979  18.436  0.00  0.00    +0.000 C 
ATOM     18  C   UNL     1       7.674   4.622  17.852  0.00  0.00    +0.000 C 
ATOM     19  O   UNL     1       7.432   4.686  16.445  0.00  0.00    +0.000 OA
ENDBRANCH  14  15
ENDBRANCH   9  14
TORSDOF 2
ENDMDL
MODEL 2
REMARK VINA RESULT:      -6.9      2.563      3.798
REMARK  Name = 
REMARK  4 active torsions:
REMARK  status: ('A' for Active; 'I' for Inactive)
REMARK    1  A    between atoms: C_1  and  C_2
REMARK    2  A    between atoms: C_4  and  C_5
REMARK    3  A    between atoms: N_9  and  C_10
REMARK    4  A    between atoms: C_10  and  C_11
REMARK                            x       y       z     vdW  Elec       q    Type
REMARK                         _______ _______ _______ _____ _____    ______ ____
ROOT
ATOM      1  C   UNL     1      -0.307   8.889  22.237  0.00  0.00    +0.000 C 
ATOM      2  C   UNL     1       0.593   8.600  21.071  0.00  0.00    +0.000 A 
ATOM      3  C   UNL     1       0.779   9.533  20.044  0.00  0.00    +0.000 A 
ATOM      4  C   UNL     1       1.616   9.264  18.933  0.00  0.00    +0.000 A 
ATOM      5  C   UNL     1       1.770  10.311  17.868  0.00  0.00    +0.000 C 
ATOM      6  C   UNL     1       2.272   8.001  18.876  0.00  0.00    +0.000 A 
ATOM      7  N   UNL     1       3.118   7.543  17.865  0.00  0.00    +0.000 NA
ATOM      8  C   UNL     1       3.521   6.315  18.139  0.00  0.00    +0.000 A 
ATOM      9  N   UNL     1       4.309   5.536  17.378  0.00  0.00    +0.000 N 
ATOM     10  S   UNL     1       2.971   5.671  19.625  0.00  0.00    +0.000 S 
ATOM     11  C   UNL     1       2.077   7.101  19.917  0.00  0.00    +0.000 A 
ATOM     12  C   UNL     1       1.254   7.374  21.019  0.00  0.00    +0.000 A 
ATOM     13  H   UNL     1       4.479   4.583  17.679  0.00  0.00    +0.000 HD
ENDROOT
BRANCH   9  14
ATOM     14  C   UNL     1       5.294   6.088  16.463  0.00  0.00    +0.000 C 
BRANCH  14  15
ATOM     15  C   UNL     1       6.425   5.072  16.203  0.00  0.00    +0.000 C 
ATOM     16  C   UNL     1       5.934   3.755  15.615  0.00  0.00    +0.000 C 
ATOM     17  C   UNL     1       5.992   4.000  14.128  0.00  0.00    +0.000 C 
ATOM     18  C   UNL     1       7.180   4.926  13.987  0.00  0.00    +0.000 C 
ATOM     19  O   UNL     1       7.342   5.616  15.227  0.00  0.00    +0.000 OA
ENDBRANCH  14  15
ENDBRANCH   9  14
TORSDOF 2
ENDMDL
MODEL 3
REMARK VINA RESULT:      -6.8      2.292      6.133
REMARK  Name = 
REMARK  4 active torsions:
REMARK  status: ('A' for Active; 'I' for Inactive)
REMARK    1  A    between atoms: C_1  and  C_2
REMARK    2  A    between atoms: C_4  and  C_5
REMARK    3  A    between atoms: N_9  and  C_10
REMARK    4  A    between atoms: C_10  and  C_11
REMARK                            x       y       z     vdW  Elec       q    Type
REMARK                         _______ _______ _______ _____ _____    ______ ____
ROOT
ATOM      1  C   UNL     1       8.231   9.168  17.343  0.00  0.00    +0.000 C 
ATOM      2  C   UNL     1       7.664   7.861  17.816  0.00  0.00    +0.000 A 
ATOM      3  C   UNL     1       8.273   7.129  18.842  0.00  0.00    +0.000 A 
ATOM      4  C   UNL     1       7.753   5.888  19.286  0.00  0.00    +0.000 A 
ATOM      5  C   UNL     1       8.458   5.157  20.391  0.00  0.00    +0.000 C 
ATOM      6  C   UNL     1       6.580   5.387  18.653  0.00  0.00    +0.000 A 
ATOM      7  N   UNL     1       5.927   4.186  18.933  0.00  0.00    +0.000 NA
ATOM      8  C   UNL     1       4.888   4.041  18.130  0.00  0.00    +0.000 A 
ATOM      9  N   UNL     1       4.048   2.993  18.078  0.00  0.00    +0.000 N 
ATOM     10  S   UNL     1       4.600   5.340  17.054  0.00  0.00    +0.000 S 
ATOM     11  C   UNL     1       5.990   6.143  17.647  0.00  0.00    +0.000 A 
ATOM     12  C   UNL     1       6.504   7.374  17.215  0.00  0.00    +0.000 A 
ATOM     13  H   UNL     1       3.333   2.984  17.358  0.00  0.00    +0.000 HD
ENDROOT
BRANCH   9  14
ATOM     14  C   UNL     1       3.782   2.154  19.235  0.00  0.00    +0.000 C 
BRANCH  14  15
ATOM     15  C   UNL     1       2.301   2.259  19.653  0.00  0.00    +0.000 C 
ATOM     16  C   UNL     1       2.106   2.441  21.153  0.00  0.00    +0.000 C 
ATOM     17  C   UNL     1       2.123   3.939  21.323  0.00  0.00    +0.000 C 
ATOM     18  C   UNL     1       1.496   4.429  20.036  0.00  0.00    +0.000 C 
ATOM     19  O   UNL     1       1.712   3.428  19.040  0.00  0.00    +0.000 OA
ENDBRANCH  14  15
ENDBRANCH   9  14
TORSDOF 2
ENDMDL
MODEL 4
REMARK VINA RESULT:      -6.7      2.247      3.426
REMARK  Name = 
REMARK  4 active torsions:
REMARK  status: ('A' for Active; 'I' for Inactive)
REMARK    1  A    between atoms: C_1  and  C_2
REMARK    2  A    between atoms: C_4  and  C_5
REMARK    3  A    between atoms: N_9  and  C_10
REMARK    4  A    between atoms: C_10  and  C_11
REMARK                            x       y       z     vdW  Elec       q    Type
REMARK                         _______ _______ _______ _____ _____    ______ ____
ROOT
ATOM      1  C   UNL     1      -0.166   9.098  22.362  0.00  0.00    +0.000 C 
ATOM      2  C   UNL     1       0.652   8.586  21.213  0.00  0.00    +0.000 A 
ATOM      3  C   UNL     1       0.912   9.380  20.090  0.00  0.00    +0.000 A 
ATOM      4  C   UNL     1       1.672   8.901  18.995  0.00  0.00    +0.000 A 
ATOM      5  C   UNL     1       1.912   9.808  17.823  0.00  0.00    +0.000 C 
ATOM      6  C   UNL     1       2.172   7.569  19.056  0.00  0.00    +0.000 A 
ATOM      7  N   UNL     1       2.923   6.912  18.080  0.00  0.00    +0.000 NA
ATOM      8  C   UNL     1       3.187   5.679  18.472  0.00  0.00    +0.000 A 
ATOM      9  N   UNL     1       3.851   4.737  17.779  0.00  0.00    +0.000 N 
ATOM     10  S   UNL     1       2.617   5.260  20.030  0.00  0.00    +0.000 S 
ATOM     11  C   UNL     1       1.909   6.810  20.190  0.00  0.00    +0.000 A 
ATOM     12  C   UNL     1       1.162   7.290  21.275  0.00  0.00    +0.000 A 
ATOM     13  H   UNL     1       3.918   3.806  18.175  0.00  0.00    +0.000 HD
ENDROOT
BRANCH   9  14
ATOM     14  C   UNL     1       4.862   5.071  16.790  0.00  0.00    +0.000 C 
BRANCH  14  15
ATOM     15  C   UNL     1       6.254   4.593  17.253  0.00  0.00    +0.000 C 
ATOM     16  C   UNL     1       7.378   5.553  16.884  0.00  0.00    +0.000 C 
ATOM     17  C   UNL     1       7.446   6.476  18.074  0.00  0.00    +0.000 C 
ATOM     18  C   UNL     1       7.069   5.568  19.224  0.00  0.00    +0.000 C 
ATOM     19  O   UNL     1       6.275   4.504  18.695  0.00  0.00    +0.000 OA
ENDBRANCH  14  15
ENDBRANCH   9  14
TORSDOF 2
ENDMDL
MODEL 5
REMARK VINA RESULT:      -6.5      3.996      6.426
REMARK  Name = 
REMARK  4 active torsions:
REMARK  status: ('A' for Active; 'I' for Inactive)
REMARK    1  A    between atoms: C_1  and  C_2
REMARK    2  A    between atoms: C_4  and  C_5
REMARK    3  A    between atoms: N_9  and  C_10
REMARK    4  A    between atoms: C_10  and  C_11
REMARK                            x       y       z     vdW  Elec       q    Type
REMARK                         _______ _______ _______ _____ _____    ______ ____
ROOT
ATOM      1  C   UNL     1      -0.139  12.740  18.680  0.00  0.00    +0.000 C 
ATOM      2  C   UNL     1       0.243  11.418  19.280  0.00  0.00    +0.000 A 
ATOM      3  C   UNL     1      -0.142  11.067  20.579  0.00  0.00    +0.000 A 
ATOM      4  C   UNL     1       0.225   9.828  21.159  0.00  0.00    +0.000 A 
ATOM      5  C   UNL     1      -0.224   9.517  22.557  0.00  0.00    +0.000 C 
ATOM      6  C   UNL     1       1.014   8.931  20.384  0.00  0.00    +0.000 A 
ATOM      7  N   UNL     1       1.487   7.679  20.778  0.00  0.00    +0.000 NA
ATOM      8  C   UNL     1       2.205   7.144  19.806  0.00  0.00    +0.000 A 
ATOM      9  N   UNL     1       2.854   5.966  19.837  0.00  0.00    +0.000 N 
ATOM     10  S   UNL     1       2.302   8.063  18.367  0.00  0.00    +0.000 S 
ATOM     11  C   UNL     1       1.370   9.302  19.093  0.00  0.00    +0.000 A 
ATOM     12  C   UNL     1       0.999  10.527  18.519  0.00  0.00    +0.000 A 
ATOM     13  H   UNL     1       3.428   5.713  19.040  0.00  0.00    +0.000 HD
ENDROOT
BRANCH   9  14
ATOM     14  C   UNL     1       2.411   4.859  20.668  0.00  0.00    +0.000 C 
BRANCH  14  15
ATOM     15  C   UNL     1       1.345   4.019  19.933  0.00  0.00    +0.000 C 
ATOM     16  C   UNL     1       1.412   4.148  18.416  0.00  0.00    +0.000 C 
ATOM     17  C   UNL     1       2.362   3.048  18.019  0.00  0.00    +0.000 C 
ATOM     18  C   UNL     1       2.083   1.976  19.049  0.00  0.00    +0.000 C 
ATOM     19  O   UNL     1       1.563   2.618  20.214  0.00  0.00    +0.000 OA
ENDBRANCH  14  15
ENDBRANCH   9  14
TORSDOF 2
ENDMDL
MODEL 6
REMARK VINA RESULT:      -6.5      1.975      3.133
REMARK  Name = 
REMARK  4 active torsions:
REMARK  status: ('A' for Active; 'I' for Inactive)
REMARK    1  A    between atoms: C_1  and  C_2
REMARK    2  A    between atoms: C_4  and  C_5
REMARK    3  A    between atoms: N_9  and  C_10
REMARK    4  A    between atoms: C_10  and  C_11
REMARK                            x       y       z     vdW  Elec       q    Type
REMARK                         _______ _______ _______ _____ _____    ______ ____
ROOT
ATOM      1  C   UNL     1       1.390   2.896  21.997  0.00  0.00    +0.000 C 
ATOM      2  C   UNL     1       2.181   3.176  20.753  0.00  0.00    +0.000 A 
ATOM      3  C   UNL     1       2.650   2.139  19.937  0.00  0.00    +0.000 A 
ATOM      4  C   UNL     1       3.409   2.392  18.768  0.00  0.00    +0.000 A 
ATOM      5  C   UNL     1       3.879   1.231  17.940  0.00  0.00    +0.000 C 
ATOM      6  C   UNL     1       3.697   3.746  18.434  0.00  0.00    +0.000 A 
ATOM      7  N   UNL     1       4.436   4.199  17.341  0.00  0.00    +0.000 NA
ATOM      8  C   UNL     1       4.516   5.517  17.367  0.00  0.00    +0.000 A 
ATOM      9  N   UNL     1       5.181   6.303  16.503  0.00  0.00    +0.000 N 
ATOM     10  S   UNL     1       3.673   6.283  18.644  0.00  0.00    +0.000 S 
ATOM     11  C   UNL     1       3.206   4.754  19.256  0.00  0.00    +0.000 A 
ATOM     12  C   UNL     1       2.449   4.500  20.409  0.00  0.00    +0.000 A 
ATOM     13  H   UNL     1       5.217   7.299  16.688  0.00  0.00    +0.000 HD
ENDROOT
BRANCH   9  14
ATOM     14  C   UNL     1       5.413   5.913  15.122  0.00  0.00    +0.000 C 
BRANCH  14  15
ATOM     15  C   UNL     1       6.610   4.944  15.024  0.00  0.00    +0.000 C 
ATOM     16  C   UNL     1       6.312   3.695  14.204  0.00  0.00    +0.000 C 
ATOM     17  C   UNL     1       6.698   4.103  12.805  0.00  0.00    +0.000 C 
ATOM     18  C   UNL     1       7.854   5.051  13.039  0.00  0.00    +0.000 C 
ATOM     19  O   UNL     1       7.705   5.602  14.348  0.00  0.00    +0.000 OA
ENDBRANCH  14  15
ENDBRANCH   9  14
TORSDOF 2
ENDMDL
MODEL 7
REMARK VINA RESULT:      -6.5      4.009      6.726
REMARK  Name = 
REMARK  4 active torsions:
REMARK  status: ('A' for Active; 'I' for Inactive)
REMARK    1  A    between atoms: C_1  and  C_2
REMARK    2  A    between atoms: C_4  and  C_5
REMARK    3  A    between atoms: N_9  and  C_10
REMARK    4  A    between atoms: C_10  and  C_11
REMARK                            x       y       z     vdW  Elec       q    Type
REMARK                         _______ _______ _______ _____ _____    ______ ____
ROOT
ATOM      1  C   UNL     1      -0.347  13.137  19.024  0.00  0.00    +0.000 C 
ATOM      2  C   UNL     1       0.016  11.803  19.609  0.00  0.00    +0.000 A 
ATOM      3  C   UNL     1      -0.345  11.457  20.917  0.00  0.00    +0.000 A 
ATOM      4  C   UNL     1       0.005  10.206  21.483  0.00  0.00    +0.000 A 
ATOM      5  C   UNL     1      -0.416   9.902  22.891  0.00  0.00    +0.000 C 
ATOM      6  C   UNL     1       0.749   9.292  20.684  0.00  0.00    +0.000 A 
ATOM      7  N   UNL     1       1.199   8.027  21.061  0.00  0.00    +0.000 NA
ATOM      8  C   UNL     1       1.876   7.477  20.070  0.00  0.00    +0.000 A 
ATOM      9  N   UNL     1       2.494   6.283  20.079  0.00  0.00    +0.000 N 
ATOM     10  S   UNL     1       1.960   8.399  18.631  0.00  0.00    +0.000 S 
ATOM     11  C   UNL     1       1.081   9.659  19.385  0.00  0.00    +0.000 A 
ATOM     12  C   UNL     1       0.727  10.895  18.826  0.00  0.00    +0.000 A 
ATOM     13  H   UNL     1       3.041   6.018  19.267  0.00  0.00    +0.000 HD
ENDROOT
BRANCH   9  14
ATOM     14  C   UNL     1       2.045   5.184  20.917  0.00  0.00    +0.000 C 
BRANCH  14  15
ATOM     15  C   UNL     1       2.520   3.832  20.344  0.00  0.00    +0.000 C 
ATOM     16  C   UNL     1       1.473   2.730  20.444  0.00  0.00    +0.000 C 
ATOM     17  C   UNL     1       0.710   2.861  19.150  0.00  0.00    +0.000 C 
ATOM     18  C   UNL     1       1.775   3.322  18.179  0.00  0.00    +0.000 C 
ATOM     19  O   UNL     1       2.794   3.982  18.932  0.00  0.00    +0.000 OA
ENDBRANCH  14  15
ENDBRANCH   9  14
TORSDOF 2
ENDMDL
MODEL 8
REMARK VINA RESULT:      -6.4      3.940      6.568
REMARK  Name = 
REMARK  4 active torsions:
REMARK  status: ('A' for Active; 'I' for Inactive)
REMARK    1  A    between atoms: C_1  and  C_2
REMARK    2  A    between atoms: C_4  and  C_5
REMARK    3  A    between atoms: N_9  and  C_10
REMARK    4  A    between atoms: C_10  and  C_11
REMARK                            x       y       z     vdW  Elec       q    Type
REMARK                         _______ _______ _______ _____ _____    ______ ____
ROOT
ATOM      1  C   UNL     1      -1.127  12.822  19.239  0.00  0.00    +0.000 C 
ATOM      2  C   UNL     1      -0.430  11.546  19.609  0.00  0.00    +0.000 A 
ATOM      3  C   UNL     1      -0.495  11.027  20.907  0.00  0.00    +0.000 A 
ATOM      4  C   UNL     1       0.171   9.830  21.268  0.00  0.00    +0.000 A 
ATOM      5  C   UNL     1       0.056   9.330  22.679  0.00  0.00    +0.000 C 
ATOM      6  C   UNL     1       0.928   9.155  20.269  0.00  0.00    +0.000 A 
ATOM      7  N   UNL     1       1.663   7.980  20.429  0.00  0.00    +0.000 NA
ATOM      8  C   UNL     1       2.256   7.663  19.292  0.00  0.00    +0.000 A 
ATOM      9  N   UNL     1       3.079   6.622  19.073  0.00  0.00    +0.000 N 
ATOM     10  S   UNL     1       1.925   8.699  17.971  0.00  0.00    +0.000 S 
ATOM     11  C   UNL     1       0.964   9.688  18.986  0.00  0.00    +0.000 A 
ATOM     12  C   UNL     1       0.298  10.869  18.630  0.00  0.00    +0.000 A 
ATOM     13  H   UNL     1       3.522   6.542  18.164  0.00  0.00    +0.000 HD
ENDROOT
BRANCH   9  14
ATOM     14  C   UNL     1       2.989   5.389  19.837  0.00  0.00    +0.000 C 
BRANCH  14  15
ATOM     15  C   UNL     1       1.638   4.690  19.584  0.00  0.00    +0.000 C 
ATOM     16  C   UNL     1       1.735   3.513  18.621  0.00  0.00    +0.000 C 
ATOM     17  C   UNL     1       2.019   2.346  19.531  0.00  0.00    +0.000 C 
ATOM     18  C   UNL     1       1.267   2.713  20.791  0.00  0.00    +0.000 C 
ATOM     19  O   UNL     1       1.146   4.136  20.826  0.00  0.00    +0.000 OA
ENDBRANCH  14  15
ENDBRANCH   9  14
TORSDOF 2
ENDMDL
MODEL 9
REMARK VINA RESULT:      -6.4      3.013      4.137
REMARK  Name = 
REMARK  4 active torsions:
REMARK  status: ('A' for Active; 'I' for Inactive)
REMARK    1  A    between atoms: C_1  and  C_2
REMARK    2  A    between atoms: C_4  and  C_5
REMARK    3  A    between atoms: N_9  and  C_10
REMARK    4  A    between atoms: C_10  and  C_11
REMARK                            x       y       z     vdW  Elec       q    Type
REMARK                         _______ _______ _______ _____ _____    ______ ____
ROOT
ATOM      1  C   UNL     1       1.460   6.304  20.790  0.00  0.00    +0.000 C 
ATOM      2  C   UNL     1       2.304   5.601  19.767  0.00  0.00    +0.000 A 
ATOM      3  C   UNL     1       2.360   4.204  19.701  0.00  0.00    +0.000 A 
ATOM      4  C   UNL     1       3.163   3.531  18.748  0.00  0.00    +0.000 A 
ATOM      5  C   UNL     1       3.174   2.030  18.734  0.00  0.00    +0.000 C 
ATOM      6  C   UNL     1       3.934   4.318  17.845  0.00  0.00    +0.000 A 
ATOM      7  N   UNL     1       4.794   3.849  16.851  0.00  0.00    +0.000 NA
ATOM      8  C   UNL     1       5.356   4.867  16.226  0.00  0.00    +0.000 A 
ATOM      9  N   UNL     1       6.270   4.806  15.241  0.00  0.00    +0.000 N 
ATOM     10  S   UNL     1       4.851   6.420  16.740  0.00  0.00    +0.000 S 
ATOM     11  C   UNL     1       3.848   5.703  17.926  0.00  0.00    +0.000 A 
ATOM     12  C   UNL     1       3.045   6.365  18.867  0.00  0.00    +0.000 A 
ATOM     13  H   UNL     1       6.671   5.673  14.902  0.00  0.00    +0.000 HD
ENDROOT
BRANCH   9  14
ATOM     14  C   UNL     1       6.347   3.679  14.326  0.00  0.00    +0.000 C 
BRANCH  14  15
ATOM     15  C   UNL     1       6.071   4.135  12.878  0.00  0.00    +0.000 C 
ATOM     16  C   UNL     1       7.124   3.665  11.883  0.00  0.00    +0.000 C 
ATOM     17  C   UNL     1       6.593   2.330  11.425  0.00  0.00    +0.000 C 
ATOM     18  C   UNL     1       5.094   2.533  11.470  0.00  0.00    +0.000 C 
ATOM     19  O   UNL     1       4.824   3.560  12.426  0.00  0.00    +0.000 OA
ENDBRANCH  14  15
ENDBRANCH   9  14
TORSDOF 2
ENDMDL
