MODEL 1
REMARK VINA RESULT:      -7.1      0.000      0.000
REMARK  Name = 
REMARK  3 active torsions:
REMARK  status: ('A' for Active; 'I' for Inactive)
REMARK    1  A    between atoms: N_2  and  C_4
REMARK    2  A    between atoms: N_11  and  C_12
REMARK    3  A    between atoms: C_12  and  C_13
REMARK                            x       y       z     vdW  Elec       q    Type
REMARK                         _______ _______ _______ _____ _____    ______ ____
ROOT
ATOM      1  C   UNL     1       0.269  10.385  20.959  0.00  0.00    +0.000 A 
ATOM      2  C   UNL     1       0.525   9.451  21.957  0.00  0.00    +0.000 A 
ATOM      3  C   UNL     1       1.217   8.289  21.618  0.00  0.00    +0.000 A 
ATOM      4  C   UNL     1       1.637   8.063  20.302  0.00  0.00    +0.000 A 
ATOM      5  N   UNL     1       2.317   6.910  19.968  0.00  0.00    +0.000 N 
ATOM      6  C   UNL     1       1.968   5.622  20.582  0.00  0.00    +0.000 C 
ATOM      7  C   UNL     1       1.587   4.551  19.526  0.00  0.00    +0.000 C 
ATOM      8  N   UNL     1       2.515   4.424  18.378  0.00  0.00    +0.000 NA
ATOM      9  C   UNL     1       2.637   5.774  17.772  0.00  0.00    +0.000 C 
ATOM     10  C   UNL     1       3.124   6.874  18.738  0.00  0.00    +0.000 C 
ATOM     11  N   UNL     1       1.404   8.995  19.349  0.00  0.00    +0.000 NA
ATOM     12  C   UNL     1       0.725  10.126  19.682  0.00  0.00    +0.000 A 
ENDROOT
BRANCH   1  14
ATOM     13  O   UNL     1      -1.530  11.796  20.657  0.00  0.00    +0.000 OA
ATOM     14  N   UNL     1      -0.459  11.609  21.250  0.00  0.00    +0.000 N 
ATOM     15  O   UNL     1       0.037  12.392  22.072  0.00  0.00    +0.000 OA
ENDBRANCH   1  14
BRANCH   8  16
ATOM     16  C   UNL     1       3.804   3.868  18.834  0.00  0.00    +0.000 C 
BRANCH  16  17
ATOM     17  C   UNL     1       4.966   4.062  17.883  0.00  0.00    +0.000 A 
ATOM     18  C   UNL     1       4.831   3.714  16.530  0.00  0.00    +0.000 A 
ATOM     19  C   UNL     1       5.882   3.917  15.635  0.00  0.00    +0.000 A 
ATOM     20  C   UNL     1       7.076   4.478  16.080  0.00  0.00    +0.000 A 
ATOM     21  C   UNL     1       7.221   4.832  17.421  0.00  0.00    +0.000 A 
ATOM     22  C   UNL     1       6.173   4.624  18.319  0.00  0.00    +0.000 A 
ENDBRANCH  16  17
ENDBRANCH   8  16
TORSDOF 3
ENDMDL
MODEL 2
REMARK VINA RESULT:      -7.0      0.496      1.143
REMARK  Name = 
REMARK  3 active torsions:
REMARK  status: ('A' for Active; 'I' for Inactive)
REMARK    1  A    between atoms: N_2  and  C_4
REMARK    2  A    between atoms: N_11  and  C_12
REMARK    3  A    between atoms: C_12  and  C_13
REMARK                            x       y       z     vdW  Elec       q    Type
REMARK                         _______ _______ _______ _____ _____    ______ ____
ROOT
ATOM      1  C   UNL     1       0.112  10.386  21.133  0.00  0.00    +0.000 A 
ATOM      2  C   UNL     1       0.368   9.430  22.109  0.00  0.00    +0.000 A 
ATOM      3  C   UNL     1       1.083   8.288  21.749  0.00  0.00    +0.000 A 
ATOM      4  C   UNL     1       1.527   8.104  20.435  0.00  0.00    +0.000 A 
ATOM      5  N   UNL     1       2.230   6.971  20.080  0.00  0.00    +0.000 N 
ATOM      6  C   UNL     1       1.893   5.662  20.655  0.00  0.00    +0.000 C 
ATOM      7  C   UNL     1       1.544   4.614  19.566  0.00  0.00    +0.000 C 
ATOM      8  N   UNL     1       2.491   4.532  18.429  0.00  0.00    +0.000 NA
ATOM      9  C   UNL     1       2.600   5.900  17.861  0.00  0.00    +0.000 C 
ATOM     10  C   UNL     1       3.055   6.980  18.862  0.00  0.00    +0.000 C 
ATOM     11  N   UNL     1       1.292   9.057  19.503  0.00  0.00    +0.000 NA
ATOM     12  C   UNL     1       0.590  10.168  19.856  0.00  0.00    +0.000 A 
ENDROOT
BRANCH   1  14
ATOM     13  O   UNL     1      -1.474  11.526  22.358  0.00  0.00    +0.000 OA
ATOM     14  N   UNL     1      -0.640  11.590  21.445  0.00  0.00    +0.000 N 
ATOM     15  O   UNL     1      -0.402  12.606  20.777  0.00  0.00    +0.000 OA
ENDBRANCH   1  14
BRANCH   8  16
ATOM     16  C   UNL     1       3.782   3.984  18.889  0.00  0.00    +0.000 C 
BRANCH  16  17
ATOM     17  C   UNL     1       4.940   4.162  17.930  0.00  0.00    +0.000 A 
ATOM     18  C   UNL     1       6.163   4.674  18.394  0.00  0.00    +0.000 A 
ATOM     19  C   UNL     1       7.249   4.813  17.530  0.00  0.00    +0.000 A 
ATOM     20  C   UNL     1       7.129   4.434  16.196  0.00  0.00    +0.000 A 
ATOM     21  C   UNL     1       5.922   3.921  15.723  0.00  0.00    +0.000 A 
ATOM     22  C   UNL     1       4.832   3.786  16.585  0.00  0.00    +0.000 A 
ENDBRANCH  16  17
ENDBRANCH   8  16
TORSDOF 3
ENDMDL
MODEL 3
REMARK VINA RESULT:      -6.8      2.017      3.444
REMARK  Name = 
REMARK  3 active torsions:
REMARK  status: ('A' for Active; 'I' for Inactive)
REMARK    1  A    between atoms: N_2  and  C_4
REMARK    2  A    between atoms: N_11  and  C_12
REMARK    3  A    between atoms: C_12  and  C_13
REMARK                            x       y       z     vdW  Elec       q    Type
REMARK                         _______ _______ _______ _____ _____    ______ ____
ROOT
ATOM      1  C   UNL     1       1.282   8.896  20.090  0.00  0.00    +0.000 A 
ATOM      2  C   UNL     1       1.439   9.160  18.735  0.00  0.00    +0.000 A 
ATOM      3  C   UNL     1       2.125   8.233  17.952  0.00  0.00    +0.000 A 
ATOM      4  C   UNL     1       2.650   7.065  18.519  0.00  0.00    +0.000 A 
ATOM      5  N   UNL     1       3.333   6.151  17.743  0.00  0.00    +0.000 N 
ATOM      6  C   UNL     1       4.220   6.594  16.659  0.00  0.00    +0.000 C 
ATOM      7  C   UNL     1       5.671   6.073  16.837  0.00  0.00    +0.000 C 
ATOM      8  N   UNL     1       5.800   4.630  17.153  0.00  0.00    +0.000 NA
ATOM      9  C   UNL     1       4.974   4.380  18.361  0.00  0.00    +0.000 C 
ATOM     10  C   UNL     1       3.488   4.768  18.219  0.00  0.00    +0.000 C 
ATOM     11  N   UNL     1       2.465   6.811  19.835  0.00  0.00    +0.000 NA
ATOM     12  C   UNL     1       1.798   7.720  20.597  0.00  0.00    +0.000 A 
ENDROOT
BRANCH   1  14
ATOM     13  O   UNL     1       1.106  10.095  22.052  0.00  0.00    +0.000 OA
ATOM     14  N   UNL     1       0.587   9.832  20.959  0.00  0.00    +0.000 N 
ATOM     15  O   UNL     1      -0.482  10.309  20.553  0.00  0.00    +0.000 OA
ENDBRANCH   1  14
BRANCH   8  16
ATOM     16  C   UNL     1       5.393   3.823  15.987  0.00  0.00    +0.000 C 
BRANCH  16  17
ATOM     17  C   UNL     1       6.112   4.144  14.694  0.00  0.00    +0.000 A 
ATOM     18  C   UNL     1       7.217   5.010  14.702  0.00  0.00    +0.000 A 
ATOM     19  C   UNL     1       7.910   5.290  13.524  0.00  0.00    +0.000 A 
ATOM     20  C   UNL     1       7.513   4.701  12.327  0.00  0.00    +0.000 A 
ATOM     21  C   UNL     1       6.420   3.835  12.306  0.00  0.00    +0.000 A 
ATOM     22  C   UNL     1       5.721   3.559  13.482  0.00  0.00    +0.000 A 
ENDBRANCH  16  17
ENDBRANCH   8  16
TORSDOF 3
ENDMDL
MODEL 4
REMARK VINA RESULT:      -6.8      1.977      3.082
REMARK  Name = 
REMARK  3 active torsions:
REMARK  status: ('A' for Active; 'I' for Inactive)
REMARK    1  A    between atoms: N_2  and  C_4
REMARK    2  A    between atoms: N_11  and  C_12
REMARK    3  A    between atoms: C_12  and  C_13
REMARK                            x       y       z     vdW  Elec       q    Type
REMARK                         _______ _______ _______ _____ _____    ______ ____
ROOT
ATOM      1  C   UNL     1       1.178   9.214  20.175  0.00  0.00    +0.000 A 
ATOM      2  C   UNL     1       1.334   9.487  18.821  0.00  0.00    +0.000 A 
ATOM      3  C   UNL     1       1.984   8.546  18.024  0.00  0.00    +0.000 A 
ATOM      4  C   UNL     1       2.476   7.357  18.574  0.00  0.00    +0.000 A 
ATOM      5  N   UNL     1       3.123   6.430  17.784  0.00  0.00    +0.000 N 
ATOM      6  C   UNL     1       4.016   6.855  16.698  0.00  0.00    +0.000 C 
ATOM      7  C   UNL     1       5.451   6.286  16.860  0.00  0.00    +0.000 C 
ATOM      8  N   UNL     1       5.536   4.837  17.160  0.00  0.00    +0.000 NA
ATOM      9  C   UNL     1       4.711   4.600  18.371  0.00  0.00    +0.000 C 
ATOM     10  C   UNL     1       3.237   5.037  18.245  0.00  0.00    +0.000 C 
ATOM     11  N   UNL     1       2.292   7.095  19.889  0.00  0.00    +0.000 NA
ATOM     12  C   UNL     1       1.660   8.017  20.666  0.00  0.00    +0.000 A 
ENDROOT
BRANCH   1  14
ATOM     13  O   UNL     1      -0.633   9.900  21.428  0.00  0.00    +0.000 OA
ATOM     14  N   UNL     1       0.520  10.163  21.058  0.00  0.00    +0.000 N 
ATOM     15  O   UNL     1       1.152  11.177  21.386  0.00  0.00    +0.000 OA
ENDBRANCH   1  14
BRANCH   8  16
ATOM     16  C   UNL     1       5.095   4.055  15.989  0.00  0.00    +0.000 C 
BRANCH  16  17
ATOM     17  C   UNL     1       5.935   4.227  14.741  0.00  0.00    +0.000 A 
ATOM     18  C   UNL     1       5.545   3.611  13.542  0.00  0.00    +0.000 A 
ATOM     19  C   UNL     1       6.291   3.787  12.376  0.00  0.00    +0.000 A 
ATOM     20  C   UNL     1       7.430   4.587  12.393  0.00  0.00    +0.000 A 
ATOM     21  C   UNL     1       7.826   5.208  13.577  0.00  0.00    +0.000 A 
ATOM     22  C   UNL     1       7.084   5.029  14.746  0.00  0.00    +0.000 A 
ENDBRANCH  16  17
ENDBRANCH   8  16
TORSDOF 3
ENDMDL
MODEL 5
REMARK VINA RESULT:      -6.6      3.976      9.020
REMARK  Name = 
REMARK  3 active torsions:
REMARK  status: ('A' for Active; 'I' for Inactive)
REMARK    1  A    between atoms: N_2  and  C_4
REMARK    2  A    between atoms: N_11  and  C_12
REMARK    3  A    between atoms: C_12  and  C_13
REMARK                            x       y       z     vdW  Elec       q    Type
REMARK                         _______ _______ _______ _____ _____    ______ ____
ROOT
ATOM      1  C   UNL     1       3.005   5.023  18.695  0.00  0.00    +0.000 A 
ATOM      2  C   UNL     1       3.268   6.216  18.031  0.00  0.00    +0.000 A 
ATOM      3  C   UNL     1       2.775   7.401  18.574  0.00  0.00    +0.000 A 
ATOM      4  C   UNL     1       2.026   7.391  19.757  0.00  0.00    +0.000 A 
ATOM      5  N   UNL     1       1.535   8.565  20.289  0.00  0.00    +0.000 N 
ATOM      6  C   UNL     1       1.035   9.639  19.420  0.00  0.00    +0.000 C 
ATOM      7  C   UNL     1      -0.438  10.012  19.733  0.00  0.00    +0.000 C 
ATOM      8  N   UNL     1      -0.756  10.218  21.166  0.00  0.00    +0.000 NA
ATOM      9  C   UNL     1      -0.337   8.986  21.881  0.00  0.00    +0.000 C 
ATOM     10  C   UNL     1       1.150   8.613  21.709  0.00  0.00    +0.000 C 
ATOM     11  N   UNL     1       1.802   6.225  20.404  0.00  0.00    +0.000 NA
ATOM     12  C   UNL     1       2.281   5.068  19.870  0.00  0.00    +0.000 A 
ENDROOT
BRANCH   1  14
ATOM     13  O   UNL     1       2.708   3.099  17.458  0.00  0.00    +0.000 OA
ATOM     14  N   UNL     1       3.482   3.754  18.170  0.00  0.00    +0.000 N 
ATOM     15  O   UNL     1       4.632   3.404  18.468  0.00  0.00    +0.000 OA
ENDBRANCH   1  14
BRANCH   8  16
ATOM     16  C   UNL     1      -0.086  11.438  21.659  0.00  0.00    +0.000 C 
BRANCH  16  17
ATOM     17  C   UNL     1      -0.958  12.374  22.467  0.00  0.00    +0.000 A 
ATOM     18  C   UNL     1      -0.577  13.715  22.639  0.00  0.00    +0.000 A 
ATOM     19  C   UNL     1      -1.386  14.598  23.354  0.00  0.00    +0.000 A 
ATOM     20  C   UNL     1      -2.589  14.155  23.898  0.00  0.00    +0.000 A 
ATOM     21  C   UNL     1      -2.981  12.828  23.730  0.00  0.00    +0.000 A 
ATOM     22  C   UNL     1      -2.170  11.940  23.021  0.00  0.00    +0.000 A 
ENDBRANCH  16  17
ENDBRANCH   8  16
TORSDOF 3
ENDMDL
MODEL 6
REMARK VINA RESULT:      -6.6      3.966      8.935
REMARK  Name = 
REMARK  3 active torsions:
REMARK  status: ('A' for Active; 'I' for Inactive)
REMARK    1  A    between atoms: N_2  and  C_4
REMARK    2  A    between atoms: N_11  and  C_12
REMARK    3  A    between atoms: C_12  and  C_13
REMARK                            x       y       z     vdW  Elec       q    Type
REMARK                         _______ _______ _______ _____ _____    ______ ____
ROOT
ATOM      1  C   UNL     1       3.191   5.038  18.273  0.00  0.00    +0.000 A 
ATOM      2  C   UNL     1       3.413   6.271  17.670  0.00  0.00    +0.000 A 
ATOM      3  C   UNL     1       2.907   7.414  18.288  0.00  0.00    +0.000 A 
ATOM      4  C   UNL     1       2.187   7.323  19.484  0.00  0.00    +0.000 A 
ATOM      5  N   UNL     1       1.684   8.455  20.091  0.00  0.00    +0.000 N 
ATOM      6  C   UNL     1       1.141   9.563  19.293  0.00  0.00    +0.000 C 
ATOM      7  C   UNL     1      -0.332   9.885  19.659  0.00  0.00    +0.000 C 
ATOM      8  N   UNL     1      -0.620  10.006  21.108  0.00  0.00    +0.000 NA
ATOM      9  C   UNL     1      -0.158   8.747  21.745  0.00  0.00    +0.000 C 
ATOM     10  C   UNL     1       1.332   8.418  21.519  0.00  0.00    +0.000 C 
ATOM     11  N   UNL     1       2.003   6.118  20.072  0.00  0.00    +0.000 NA
ATOM     12  C   UNL     1       2.494   5.004  19.465  0.00  0.00    +0.000 A 
ENDROOT
BRANCH   1  14
ATOM     13  O   UNL     1       3.637   2.777  18.350  0.00  0.00    +0.000 OA
ATOM     14  N   UNL     1       3.682   3.811  17.669  0.00  0.00    +0.000 N 
ATOM     15  O   UNL     1       4.118   3.874  16.511  0.00  0.00    +0.000 OA
ENDBRANCH   1  14
BRANCH   8  16
ATOM     16  C   UNL     1       0.035  11.212  21.651  0.00  0.00    +0.000 C 
BRANCH  16  17
ATOM     17  C   UNL     1      -0.886  12.192  22.346  0.00  0.00    +0.000 A 
ATOM     18  C   UNL     1      -2.069  11.736  22.951  0.00  0.00    +0.000 A 
ATOM     19  C   UNL     1      -2.911  12.622  23.623  0.00  0.00    +0.000 A 
ATOM     20  C   UNL     1      -2.578  13.971  23.707  0.00  0.00    +0.000 A 
ATOM     21  C   UNL     1      -1.404  14.436  23.115  0.00  0.00    +0.000 A 
ATOM     22  C   UNL     1      -0.562  13.552  22.436  0.00  0.00    +0.000 A 
ENDBRANCH  16  17
ENDBRANCH   8  16
TORSDOF 3
ENDMDL
MODEL 7
REMARK VINA RESULT:      -6.6      1.456      2.320
REMARK  Name = 
REMARK  3 active torsions:
REMARK  status: ('A' for Active; 'I' for Inactive)
REMARK    1  A    between atoms: N_2  and  C_4
REMARK    2  A    between atoms: N_11  and  C_12
REMARK    3  A    between atoms: C_12  and  C_13
REMARK                            x       y       z     vdW  Elec       q    Type
REMARK                         _______ _______ _______ _____ _____    ______ ____
ROOT
ATOM      1  C   UNL     1       0.446   9.896  21.255  0.00  0.00    +0.000 A 
ATOM      2  C   UNL     1       0.497  10.105  19.881  0.00  0.00    +0.000 A 
ATOM      3  C   UNL     1       1.152   9.163  19.089  0.00  0.00    +0.000 A 
ATOM      4  C   UNL     1       1.750   8.035  19.663  0.00  0.00    +0.000 A 
ATOM      5  N   UNL     1       2.402   7.107  18.877  0.00  0.00    +0.000 N 
ATOM      6  C   UNL     1       3.195   7.525  17.714  0.00  0.00    +0.000 C 
ATOM      7  C   UNL     1       4.669   7.051  17.806  0.00  0.00    +0.000 C 
ATOM      8  N   UNL     1       4.863   5.628  18.170  0.00  0.00    +0.000 NA
ATOM      9  C   UNL     1       4.134   5.407  19.445  0.00  0.00    +0.000 C 
ATOM     10  C   UNL     1       2.631   5.750  19.397  0.00  0.00    +0.000 C 
ATOM     11  N   UNL     1       1.668   7.833  20.998  0.00  0.00    +0.000 NA
ATOM     12  C   UNL     1       1.032   8.756  21.770  0.00  0.00    +0.000 A 
ENDROOT
BRANCH   1  14
ATOM     13  O   UNL     1      -0.189  10.620  23.350  0.00  0.00    +0.000 OA
ATOM     14  N   UNL     1      -0.211  10.849  22.133  0.00  0.00    +0.000 N 
ATOM     15  O   UNL     1      -0.755  11.833  21.610  0.00  0.00    +0.000 OA
ENDBRANCH   1  14
BRANCH   8  16
ATOM     16  C   UNL     1       4.397   4.760  17.071  0.00  0.00    +0.000 C 
BRANCH  16  17
ATOM     17  C   UNL     1       5.342   4.641  15.894  0.00  0.00    +0.000 A 
ATOM     18  C   UNL     1       4.880   4.126  14.672  0.00  0.00    +0.000 A 
ATOM     19  C   UNL     1       5.730   4.041  13.570  0.00  0.00    +0.000 A 
ATOM     20  C   UNL     1       7.048   4.476  13.672  0.00  0.00    +0.000 A 
ATOM     21  C   UNL     1       7.518   4.993  14.879  0.00  0.00    +0.000 A 
ATOM     22  C   UNL     1       6.671   5.074  15.986  0.00  0.00    +0.000 A 
ENDBRANCH  16  17
ENDBRANCH   8  16
TORSDOF 3
ENDMDL
MODEL 8
REMARK VINA RESULT:      -6.6      1.510      2.587
REMARK  Name = 
REMARK  3 active torsions:
REMARK  status: ('A' for Active; 'I' for Inactive)
REMARK    1  A    between atoms: N_2  and  C_4
REMARK    2  A    between atoms: N_11  and  C_12
REMARK    3  A    between atoms: C_12  and  C_13
REMARK                            x       y       z     vdW  Elec       q    Type
REMARK                         _______ _______ _______ _____ _____    ______ ____
ROOT
ATOM      1  C   UNL     1       0.726   9.957  20.129  0.00  0.00    +0.000 A 
ATOM      2  C   UNL     1       0.970   9.962  18.761  0.00  0.00    +0.000 A 
ATOM      3  C   UNL     1       1.675   8.895  18.207  0.00  0.00    +0.000 A 
ATOM      4  C   UNL     1       2.133   7.844  19.011  0.00  0.00    +0.000 A 
ATOM      5  N   UNL     1       2.835   6.791  18.461  0.00  0.00    +0.000 N 
ATOM      6  C   UNL     1       3.796   7.010  17.372  0.00  0.00    +0.000 C 
ATOM      7  C   UNL     1       5.219   6.507  17.734  0.00  0.00    +0.000 C 
ATOM      8  N   UNL     1       5.288   5.146  18.317  0.00  0.00    +0.000 NA
ATOM      9  C   UNL     1       4.386   5.138  19.496  0.00  0.00    +0.000 C 
ATOM     10  C   UNL     1       2.922   5.517  19.192  0.00  0.00    +0.000 C 
ATOM     11  N   UNL     1       1.864   7.841  20.336  0.00  0.00    +0.000 NA
ATOM     12  C   UNL     1       1.179   8.886  20.875  0.00  0.00    +0.000 A 
ENDROOT
BRANCH   1  14
ATOM     13  O   UNL     1      -0.903  11.589  20.123  0.00  0.00    +0.000 OA
ATOM     14  N   UNL     1       0.008  11.049  20.765  0.00  0.00    +0.000 N 
ATOM     15  O   UNL     1       0.352  11.374  21.910  0.00  0.00    +0.000 OA
ENDBRANCH   1  14
BRANCH   8  16
ATOM     16  C   UNL     1       4.929   4.143  17.296  0.00  0.00    +0.000 C 
BRANCH  16  17
ATOM     17  C   UNL     1       5.622   4.301  15.960  0.00  0.00    +0.000 A 
ATOM     18  C   UNL     1       6.939   4.784  15.906  0.00  0.00    +0.000 A 
ATOM     19  C   UNL     1       7.604   4.905  14.685  0.00  0.00    +0.000 A 
ATOM     20  C   UNL     1       6.963   4.536  13.506  0.00  0.00    +0.000 A 
ATOM     21  C   UNL     1       5.656   4.050  13.546  0.00  0.00    +0.000 A 
ATOM     22  C   UNL     1       4.988   3.935  14.766  0.00  0.00    +0.000 A 
ENDBRANCH  16  17
ENDBRANCH   8  16
TORSDOF 3
ENDMDL
MODEL 9
REMARK VINA RESULT:      -6.5      3.935      8.780
REMARK  Name = 
REMARK  3 active torsions:
REMARK  status: ('A' for Active; 'I' for Inactive)
REMARK    1  A    between atoms: N_2  and  C_4
REMARK    2  A    between atoms: N_11  and  C_12
REMARK    3  A    between atoms: C_12  and  C_13
REMARK                            x       y       z     vdW  Elec       q    Type
REMARK                         _______ _______ _______ _____ _____    ______ ____
ROOT
ATOM      1  C   UNL     1       3.734   5.348  18.590  0.00  0.00    +0.000 A 
ATOM      2  C   UNL     1       3.918   6.398  17.699  0.00  0.00    +0.000 A 
ATOM      3  C   UNL     1       3.224   7.587  17.919  0.00  0.00    +0.000 A 
ATOM      4  C   UNL     1       2.355   7.719  19.009  0.00  0.00    +0.000 A 
ATOM      5  N   UNL     1       1.666   8.895  19.221  0.00  0.00    +0.000 N 
ATOM      6  C   UNL     1       1.137   9.675  18.095  0.00  0.00    +0.000 C 
ATOM      7  C   UNL     1      -0.397   9.887  18.196  0.00  0.00    +0.000 C 
ATOM      8  N   UNL     1      -0.895  10.344  19.515  0.00  0.00    +0.000 NA
ATOM      9  C   UNL     1      -0.408   9.366  20.520  0.00  0.00    +0.000 C 
ATOM     10  C   UNL     1       1.123   9.186  20.557  0.00  0.00    +0.000 C 
ATOM     11  N   UNL     1       2.208   6.696  19.882  0.00  0.00    +0.000 NA
ATOM     12  C   UNL     1       2.883   5.536  19.663  0.00  0.00    +0.000 A 
ENDROOT
BRANCH   1  14
ATOM     13  O   UNL     1       5.422   3.862  19.099  0.00  0.00    +0.000 OA
ATOM     14  N   UNL     1       4.420   4.080  18.405  0.00  0.00    +0.000 N 
ATOM     15  O   UNL     1       3.961   3.295  17.564  0.00  0.00    +0.000 OA
ENDBRANCH   1  14
BRANCH   8  16
ATOM     16  C   UNL     1      -0.441  11.725  19.773  0.00  0.00    +0.000 C 
BRANCH  16  17
ATOM     17  C   UNL     1      -1.156  12.442  20.898  0.00  0.00    +0.000 A 
ATOM     18  C   UNL     1      -2.538  12.672  20.817  0.00  0.00    +0.000 A 
ATOM     19  C   UNL     1      -3.217  13.303  21.860  0.00  0.00    +0.000 A 
ATOM     20  C   UNL     1      -2.523  13.704  22.999  0.00  0.00    +0.000 A 
ATOM     21  C   UNL     1      -1.151  13.478  23.093  0.00  0.00    +0.000 A 
ATOM     22  C   UNL     1      -0.468  12.852  22.048  0.00  0.00    +0.000 A 
ENDBRANCH  16  17
ENDBRANCH   8  16
TORSDOF 3
ENDMDL
