MODEL 1
REMARK VINA RESULT:      -6.2      0.000      0.000
REMARK  Name = 
REMARK  7 active torsions:
REMARK  status: ('A' for Active; 'I' for Inactive)
REMARK    1  A    between atoms: C_1  and  O_2
REMARK    2  A    between atoms: O_2  and  C_3
REMARK    3  A    between atoms: C_6  and  C_7
REMARK    4  A    between atoms: C_7  and  C_8
REMARK    5  A    between atoms: C_8  and  C_9
REMARK    6  A    between atoms: C_9  and  N_10
REMARK    7  A    between atoms: C_14  and  S_15
REMARK                            x       y       z     vdW  Elec       q    Type
REMARK                         _______ _______ _______ _____ _____    ______ ____
ROOT
ATOM      1  C   UNL     1       2.764   5.067  18.193  0.00  0.00    +0.000 C 
ENDROOT
BRANCH   1   5
ATOM      2  C   UNL     1       6.310   5.316  15.731  0.00  0.00    +0.000 A 
ATOM      3  C   UNL     1       6.016   6.327  16.647  0.00  0.00    +0.000 A 
ATOM      4  C   UNL     1       4.882   6.242  17.457  0.00  0.00    +0.000 A 
ATOM      5  C   UNL     1       4.004   5.158  17.340  0.00  0.00    +0.000 A 
ATOM      6  C   UNL     1       4.300   4.150  16.413  0.00  0.00    +0.000 A 
ATOM      7  C   UNL     1       5.445   4.229  15.613  0.00  0.00    +0.000 A 
BRANCH   2   9
ATOM      8  C   UNL     1       7.419   4.947  13.678  0.00  0.00    +0.000 C 
ATOM      9  O   UNL     1       7.438   5.514  14.985  0.00  0.00    +0.000 OA
ENDBRANCH   2   9
ENDBRANCH   1   5
BRANCH   1  10
ATOM     10  C   UNL     1       1.706   4.103  17.651  0.00  0.00    +0.000 C 
BRANCH  10  11
ATOM     11  C   UNL     1       1.810   2.702  18.254  0.00  0.00    +0.000 C 
BRANCH  11  12
ATOM     12  N   UNL     1       1.917   2.755  19.702  0.00  0.00    +0.000 N 
ATOM     13  C   UNL     1       0.877   3.049  20.548  0.00  0.00    +0.000 A 
ATOM     14  C   UNL     1       1.423   3.018  21.810  0.00  0.00    +0.000 A 
ATOM     15  N   UNL     1       2.757   2.711  21.757  0.00  0.00    +0.000 NA
ATOM     16  C   UNL     1       3.025   2.560  20.482  0.00  0.00    +0.000 A 
BRANCH  16  17
ATOM     17  S   UNL     1       4.593   2.186  19.864  0.00  0.00    +0.000 S 
ATOM     18  H   UNL     1       4.160   1.499  18.797  0.00  0.00    +0.000 HD
ENDBRANCH  16  17
ENDBRANCH  11  12
ENDBRANCH  10  11
ENDBRANCH   1  10
TORSDOF 6
ENDMDL
MODEL 2
REMARK VINA RESULT:      -6.2      1.966      2.463
REMARK  Name = 
REMARK  7 active torsions:
REMARK  status: ('A' for Active; 'I' for Inactive)
REMARK    1  A    between atoms: C_1  and  O_2
REMARK    2  A    between atoms: O_2  and  C_3
REMARK    3  A    between atoms: C_6  and  C_7
REMARK    4  A    between atoms: C_7  and  C_8
REMARK    5  A    between atoms: C_8  and  C_9
REMARK    6  A    between atoms: C_9  and  N_10
REMARK    7  A    between atoms: C_14  and  S_15
REMARK                            x       y       z     vdW  Elec       q    Type
REMARK                         _______ _______ _______ _____ _____    ______ ____
ROOT
ATOM      1  C   UNL     1       3.946   3.203  17.989  0.00  0.00    +0.000 C 
ENDROOT
BRANCH   1   5
ATOM      2  C   UNL     1       6.766   6.369  17.140  0.00  0.00    +0.000 A 
ATOM      3  C   UNL     1       5.745   6.075  16.236  0.00  0.00    +0.000 A 
ATOM      4  C   UNL     1       4.821   5.065  16.514  0.00  0.00    +0.000 A 
ATOM      5  C   UNL     1       4.924   4.311  17.689  0.00  0.00    +0.000 A 
ATOM      6  C   UNL     1       5.957   4.605  18.588  0.00  0.00    +0.000 A 
ATOM      7  C   UNL     1       6.873   5.626  18.314  0.00  0.00    +0.000 A 
BRANCH   2   9
ATOM      8  C   UNL     1       7.846   8.388  17.720  0.00  0.00    +0.000 C 
ATOM      9  O   UNL     1       7.617   7.367  16.754  0.00  0.00    +0.000 OA
ENDBRANCH   2   9
ENDBRANCH   1   5
BRANCH   1  10
ATOM     10  C   UNL     1       2.665   3.262  17.153  0.00  0.00    +0.000 C 
BRANCH  10  11
ATOM     11  C   UNL     1       1.495   3.905  17.898  0.00  0.00    +0.000 C 
BRANCH  11  12
ATOM     12  N   UNL     1       1.670   3.817  19.337  0.00  0.00    +0.000 N 
ATOM     13  C   UNL     1       1.394   2.701  20.087  0.00  0.00    +0.000 A 
ATOM     14  C   UNL     1       1.671   3.063  21.384  0.00  0.00    +0.000 A 
ATOM     15  N   UNL     1       2.110   4.360  21.445  0.00  0.00    +0.000 NA
ATOM     16  C   UNL     1       2.097   4.786  20.204  0.00  0.00    +0.000 A 
BRANCH  16  17
ATOM     17  S   UNL     1       2.543   6.384  19.730  0.00  0.00    +0.000 S 
ATOM     18  H   UNL     1       3.180   6.693  20.869  0.00  0.00    +0.000 HD
ENDBRANCH  16  17
ENDBRANCH  11  12
ENDBRANCH  10  11
ENDBRANCH   1  10
TORSDOF 6
ENDMDL
MODEL 3
REMARK VINA RESULT:      -6.2      3.740      6.141
REMARK  Name = 
REMARK  7 active torsions:
REMARK  status: ('A' for Active; 'I' for Inactive)
REMARK    1  A    between atoms: C_1  and  O_2
REMARK    2  A    between atoms: O_2  and  C_3
REMARK    3  A    between atoms: C_6  and  C_7
REMARK    4  A    between atoms: C_7  and  C_8
REMARK    5  A    between atoms: C_8  and  C_9
REMARK    6  A    between atoms: C_9  and  N_10
REMARK    7  A    between atoms: C_14  and  S_15
REMARK                            x       y       z     vdW  Elec       q    Type
REMARK                         _______ _______ _______ _____ _____    ______ ____
ROOT
ATOM      1  C   UNL     1       3.457   7.087  17.850  0.00  0.00    +0.000 C 
ENDROOT
BRANCH   1   5
ATOM      2  C   UNL     1       1.459   3.798  19.820  0.00  0.00    +0.000 A 
ATOM      3  C   UNL     1       2.037   4.822  20.571  0.00  0.00    +0.000 A 
ATOM      4  C   UNL     1       2.668   5.896  19.939  0.00  0.00    +0.000 A 
ATOM      5  C   UNL     1       2.758   5.945  18.543  0.00  0.00    +0.000 A 
ATOM      6  C   UNL     1       2.183   4.909  17.794  0.00  0.00    +0.000 A 
ATOM      7  C   UNL     1       1.540   3.842  18.430  0.00  0.00    +0.000 A 
BRANCH   2   9
ATOM      8  C   UNL     1       1.488   2.522  21.808  0.00  0.00    +0.000 C 
ATOM      9  O   UNL     1       0.883   2.794  20.549  0.00  0.00    +0.000 OA
ENDBRANCH   2   9
ENDBRANCH   1   5
BRANCH   1  10
ATOM     10  C   UNL     1       4.353   6.654  16.687  0.00  0.00    +0.000 C 
BRANCH  10  11
ATOM     11  C   UNL     1       5.798   7.132  16.836  0.00  0.00    +0.000 C 
BRANCH  11  12
ATOM     12  N   UNL     1       6.674   6.049  17.252  0.00  0.00    +0.000 N 
ATOM     13  C   UNL     1       7.189   5.909  18.516  0.00  0.00    +0.000 A 
ATOM     14  C   UNL     1       7.976   4.783  18.460  0.00  0.00    +0.000 A 
ATOM     15  N   UNL     1       7.951   4.234  17.204  0.00  0.00    +0.000 NA
ATOM     16  C   UNL     1       7.164   5.015  16.503  0.00  0.00    +0.000 A 
BRANCH  16  17
ATOM     17  S   UNL     1       6.812   4.775  14.830  0.00  0.00    +0.000 S 
ATOM     18  H   UNL     1       6.036   3.695  15.006  0.00  0.00    +0.000 HD
ENDBRANCH  16  17
ENDBRANCH  11  12
ENDBRANCH  10  11
ENDBRANCH   1  10
TORSDOF 6
ENDMDL
MODEL 4
REMARK VINA RESULT:      -6.1      4.013      6.277
REMARK  Name = 
REMARK  7 active torsions:
REMARK  status: ('A' for Active; 'I' for Inactive)
REMARK    1  A    between atoms: C_1  and  O_2
REMARK    2  A    between atoms: O_2  and  C_3
REMARK    3  A    between atoms: C_6  and  C_7
REMARK    4  A    between atoms: C_7  and  C_8
REMARK    5  A    between atoms: C_8  and  C_9
REMARK    6  A    between atoms: C_9  and  N_10
REMARK    7  A    between atoms: C_14  and  S_15
REMARK                            x       y       z     vdW  Elec       q    Type
REMARK                         _______ _______ _______ _____ _____    ______ ____
ROOT
ATOM      1  C   UNL     1       2.892   4.202  17.434  0.00  0.00    +0.000 C 
ENDROOT
BRANCH   1   5
ATOM      2  C   UNL     1       1.832   7.267  20.294  0.00  0.00    +0.000 A 
ATOM      3  C   UNL     1       1.720   5.919  20.634  0.00  0.00    +0.000 A 
ATOM      4  C   UNL     1       2.078   4.925  19.720  0.00  0.00    +0.000 A 
ATOM      5  C   UNL     1       2.524   5.266  18.437  0.00  0.00    +0.000 A 
ATOM      6  C   UNL     1       2.626   6.622  18.099  0.00  0.00    +0.000 A 
ATOM      7  C   UNL     1       2.281   7.616  19.021  0.00  0.00    +0.000 A 
BRANCH   2   9
ATOM      8  C   UNL     1       0.926   9.390  20.795  0.00  0.00    +0.000 C 
ATOM      9  O   UNL     1       1.440   8.148  21.264  0.00  0.00    +0.000 OA
ENDBRANCH   2   9
ENDBRANCH   1   5
BRANCH   1  10
ATOM     10  C   UNL     1       4.167   3.432  17.784  0.00  0.00    +0.000 C 
BRANCH  10  11
ATOM     11  C   UNL     1       5.373   4.344  18.010  0.00  0.00    +0.000 C 
BRANCH  11  12
ATOM     12  N   UNL     1       6.063   4.630  16.764  0.00  0.00    +0.000 N 
ATOM     13  C   UNL     1       5.995   3.843  15.641  0.00  0.00    +0.000 A 
ATOM     14  C   UNL     1       6.810   4.460  14.721  0.00  0.00    +0.000 A 
ATOM     15  N   UNL     1       7.366   5.597  15.249  0.00  0.00    +0.000 NA
ATOM     16  C   UNL     1       6.901   5.671  16.473  0.00  0.00    +0.000 A 
BRANCH  16  17
ATOM     17  S   UNL     1       7.318   6.921  17.588  0.00  0.00    +0.000 S 
ATOM     18  H   UNL     1       6.621   6.424  18.620  0.00  0.00    +0.000 HD
ENDBRANCH  16  17
ENDBRANCH  11  12
ENDBRANCH  10  11
ENDBRANCH   1  10
TORSDOF 6
ENDMDL
MODEL 5
REMARK VINA RESULT:      -6.1      3.758      6.249
REMARK  Name = 
REMARK  7 active torsions:
REMARK  status: ('A' for Active; 'I' for Inactive)
REMARK    1  A    between atoms: C_1  and  O_2
REMARK    2  A    between atoms: O_2  and  C_3
REMARK    3  A    between atoms: C_6  and  C_7
REMARK    4  A    between atoms: C_7  and  C_8
REMARK    5  A    between atoms: C_8  and  C_9
REMARK    6  A    between atoms: C_9  and  N_10
REMARK    7  A    between atoms: C_14  and  S_15
REMARK                            x       y       z     vdW  Elec       q    Type
REMARK                         _______ _______ _______ _____ _____    ______ ____
ROOT
ATOM      1  C   UNL     1       3.481   7.273  17.714  0.00  0.00    +0.000 C 
ENDROOT
BRANCH   1   5
ATOM      2  C   UNL     1       1.468   4.184  19.971  0.00  0.00    +0.000 A 
ATOM      3  C   UNL     1       1.771   3.986  18.624  0.00  0.00    +0.000 A 
ATOM      4  C   UNL     1       2.438   4.974  17.895  0.00  0.00    +0.000 A 
ATOM      5  C   UNL     1       2.783   6.190  18.497  0.00  0.00    +0.000 A 
ATOM      6  C   UNL     1       2.468   6.386  19.848  0.00  0.00    +0.000 A 
ATOM      7  C   UNL     1       1.813   5.389  20.580  0.00  0.00    +0.000 A 
BRANCH   2   9
ATOM      8  C   UNL     1       1.460   2.573  21.699  0.00  0.00    +0.000 C 
ATOM      9  O   UNL     1       0.804   3.153  20.577  0.00  0.00    +0.000 OA
ENDBRANCH   2   9
ENDBRANCH   1   5
BRANCH   1  10
ATOM     10  C   UNL     1       4.400   6.746  16.608  0.00  0.00    +0.000 C 
BRANCH  10  11
ATOM     11  C   UNL     1       5.855   7.183  16.782  0.00  0.00    +0.000 C 
BRANCH  11  12
ATOM     12  N   UNL     1       6.694   6.075  17.205  0.00  0.00    +0.000 N 
ATOM     13  C   UNL     1       7.176   5.907  18.479  0.00  0.00    +0.000 A 
ATOM     14  C   UNL     1       7.936   4.763  18.427  0.00  0.00    +0.000 A 
ATOM     15  N   UNL     1       7.928   4.229  17.165  0.00  0.00    +0.000 NA
ATOM     16  C   UNL     1       7.177   5.038  16.455  0.00  0.00    +0.000 A 
BRANCH  16  17
ATOM     17  S   UNL     1       6.860   4.827  14.771  0.00  0.00    +0.000 S 
ATOM     18  H   UNL     1       6.574   6.113  14.523  0.00  0.00    +0.000 HD
ENDBRANCH  16  17
ENDBRANCH  11  12
ENDBRANCH  10  11
ENDBRANCH   1  10
TORSDOF 6
ENDMDL
MODEL 6
REMARK VINA RESULT:      -6.1      1.537      2.285
REMARK  Name = 
REMARK  7 active torsions:
REMARK  status: ('A' for Active; 'I' for Inactive)
REMARK    1  A    between atoms: C_1  and  O_2
REMARK    2  A    between atoms: O_2  and  C_3
REMARK    3  A    between atoms: C_6  and  C_7
REMARK    4  A    between atoms: C_7  and  C_8
REMARK    5  A    between atoms: C_8  and  C_9
REMARK    6  A    between atoms: C_9  and  N_10
REMARK    7  A    between atoms: C_14  and  S_15
REMARK                            x       y       z     vdW  Elec       q    Type
REMARK                         _______ _______ _______ _____ _____    ______ ____
ROOT
ATOM      1  C   UNL     1       4.452   5.455  19.505  0.00  0.00    +0.000 C 
ENDROOT
BRANCH   1   5
ATOM      2  C   UNL     1       6.830   5.265  15.899  0.00  0.00    +0.000 A 
ATOM      3  C   UNL     1       5.599   5.922  15.896  0.00  0.00    +0.000 A 
ATOM      4  C   UNL     1       4.836   6.001  17.063  0.00  0.00    +0.000 A 
ATOM      5  C   UNL     1       5.278   5.395  18.245  0.00  0.00    +0.000 A 
ATOM      6  C   UNL     1       6.512   4.730  18.239  0.00  0.00    +0.000 A 
ATOM      7  C   UNL     1       7.281   4.664  17.073  0.00  0.00    +0.000 A 
BRANCH   2   9
ATOM      8  C   UNL     1       6.853   4.475  13.673  0.00  0.00    +0.000 C 
ATOM      9  O   UNL     1       7.480   5.240  14.696  0.00  0.00    +0.000 OA
ENDBRANCH   2   9
ENDBRANCH   1   5
BRANCH   1  10
ATOM     10  C   UNL     1       3.130   6.210  19.346  0.00  0.00    +0.000 C 
BRANCH  10  11
ATOM     11  C   UNL     1       1.922   5.407  19.829  0.00  0.00    +0.000 C 
BRANCH  11  12
ATOM     12  N   UNL     1       1.942   4.052  19.305  0.00  0.00    +0.000 N 
ATOM     13  C   UNL     1       1.924   3.735  17.969  0.00  0.00    +0.000 A 
ATOM     14  C   UNL     1       1.924   2.361  17.927  0.00  0.00    +0.000 A 
ATOM     15  N   UNL     1       1.945   1.834  19.192  0.00  0.00    +0.000 NA
ATOM     16  C   UNL     1       1.954   2.872  19.996  0.00  0.00    +0.000 A 
BRANCH  16  17
ATOM     17  S   UNL     1       1.957   2.755  21.718  0.00  0.00    +0.000 S 
ATOM     18  H   UNL     1       2.916   1.821  21.791  0.00  0.00    +0.000 HD
ENDBRANCH  16  17
ENDBRANCH  11  12
ENDBRANCH  10  11
ENDBRANCH   1  10
TORSDOF 6
ENDMDL
MODEL 7
REMARK VINA RESULT:      -6.0      1.331      1.743
REMARK  Name = 
REMARK  7 active torsions:
REMARK  status: ('A' for Active; 'I' for Inactive)
REMARK    1  A    between atoms: C_1  and  O_2
REMARK    2  A    between atoms: O_2  and  C_3
REMARK    3  A    between atoms: C_6  and  C_7
REMARK    4  A    between atoms: C_7  and  C_8
REMARK    5  A    between atoms: C_8  and  C_9
REMARK    6  A    between atoms: C_9  and  N_10
REMARK    7  A    between atoms: C_14  and  S_15
REMARK                            x       y       z     vdW  Elec       q    Type
REMARK                         _______ _______ _______ _____ _____    ______ ____
ROOT
ATOM      1  C   UNL     1       4.503   5.702  19.156  0.00  0.00    +0.000 C 
ENDROOT
BRANCH   1   5
ATOM      2  C   UNL     1       6.600   5.012  15.438  0.00  0.00    +0.000 A 
ATOM      3  C   UNL     1       5.439   5.785  15.458  0.00  0.00    +0.000 A 
ATOM      4  C   UNL     1       4.768   6.025  16.659  0.00  0.00    +0.000 A 
ATOM      5  C   UNL     1       5.232   5.468  17.857  0.00  0.00    +0.000 A 
ATOM      6  C   UNL     1       6.394   4.686  17.829  0.00  0.00    +0.000 A 
ATOM      7  C   UNL     1       7.072   4.458  16.627  0.00  0.00    +0.000 A 
BRANCH   2   9
ATOM      8  C   UNL     1       6.463   3.952  13.332  0.00  0.00    +0.000 C 
ATOM      9  O   UNL     1       7.162   4.834  14.204  0.00  0.00    +0.000 OA
ENDBRANCH   2   9
ENDBRANCH   1   5
BRANCH   1  10
ATOM     10  C   UNL     1       3.077   6.232  18.981  0.00  0.00    +0.000 C 
BRANCH  10  11
ATOM     11  C   UNL     1       2.111   5.179  18.436  0.00  0.00    +0.000 C 
BRANCH  11  12
ATOM     12  N   UNL     1       1.887   4.116  19.400  0.00  0.00    +0.000 N 
ATOM     13  C   UNL     1       1.245   4.279  20.602  0.00  0.00    +0.000 A 
ATOM     14  C   UNL     1       1.281   3.041  21.199  0.00  0.00    +0.000 A 
ATOM     15  N   UNL     1       1.921   2.132  20.398  0.00  0.00    +0.000 NA
ATOM     16  C   UNL     1       2.273   2.805  19.328  0.00  0.00    +0.000 A 
BRANCH  16  17
ATOM     17  S   UNL     1       3.142   2.121  18.002  0.00  0.00    +0.000 S 
ATOM     18  H   UNL     1       4.128   3.030  18.000  0.00  0.00    +0.000 HD
ENDBRANCH  16  17
ENDBRANCH  11  12
ENDBRANCH  10  11
ENDBRANCH   1  10
TORSDOF 6
ENDMDL
MODEL 8
REMARK VINA RESULT:      -6.0      1.748      1.892
REMARK  Name = 
REMARK  7 active torsions:
REMARK  status: ('A' for Active; 'I' for Inactive)
REMARK    1  A    between atoms: C_1  and  O_2
REMARK    2  A    between atoms: O_2  and  C_3
REMARK    3  A    between atoms: C_6  and  C_7
REMARK    4  A    between atoms: C_7  and  C_8
REMARK    5  A    between atoms: C_8  and  C_9
REMARK    6  A    between atoms: C_9  and  N_10
REMARK    7  A    between atoms: C_14  and  S_15
REMARK                            x       y       z     vdW  Elec       q    Type
REMARK                         _______ _______ _______ _____ _____    ______ ____
ROOT
ATOM      1  C   UNL     1       4.173   3.537  17.787  0.00  0.00    +0.000 C 
ENDROOT
BRANCH   1   5
ATOM      2  C   UNL     1       7.058   5.013  14.923  0.00  0.00    +0.000 A 
ATOM      3  C   UNL     1       7.397   4.906  16.273  0.00  0.00    +0.000 A 
ATOM      4  C   UNL     1       6.475   4.413  17.198  0.00  0.00    +0.000 A 
ATOM      5  C   UNL     1       5.185   4.049  16.793  0.00  0.00    +0.000 A 
ATOM      6  C   UNL     1       4.848   4.166  15.437  0.00  0.00    +0.000 A 
ATOM      7  C   UNL     1       5.778   4.647  14.510  0.00  0.00    +0.000 A 
BRANCH   2   9
ATOM      8  C   UNL     1       7.875   5.268  12.722  0.00  0.00    +0.000 C 
ATOM      9  O   UNL     1       8.036   5.520  14.114  0.00  0.00    +0.000 OA
ENDBRANCH   2   9
ENDBRANCH   1   5
BRANCH   1  10
ATOM     10  C   UNL     1       2.815   3.193  17.171  0.00  0.00    +0.000 C 
BRANCH  10  11
ATOM     11  C   UNL     1       1.651   3.912  17.852  0.00  0.00    +0.000 C 
BRANCH  11  12
ATOM     12  N   UNL     1       1.706   3.761  19.296  0.00  0.00    +0.000 N 
ATOM     13  C   UNL     1       1.422   2.597  19.966  0.00  0.00    +0.000 A 
ATOM     14  C   UNL     1       1.568   2.906  21.298  0.00  0.00    +0.000 A 
ATOM     15  N   UNL     1       1.934   4.217  21.457  0.00  0.00    +0.000 NA
ATOM     16  C   UNL     1       2.008   4.703  20.240  0.00  0.00    +0.000 A 
BRANCH  16  17
ATOM     17  S   UNL     1       2.413   6.342  19.882  0.00  0.00    +0.000 S 
ATOM     18  H   UNL     1       1.527   6.488  18.886  0.00  0.00    +0.000 HD
ENDBRANCH  16  17
ENDBRANCH  11  12
ENDBRANCH  10  11
ENDBRANCH   1  10
TORSDOF 6
ENDMDL
MODEL 9
REMARK VINA RESULT:      -6.0      1.251      1.907
REMARK  Name = 
REMARK  7 active torsions:
REMARK  status: ('A' for Active; 'I' for Inactive)
REMARK    1  A    between atoms: C_1  and  O_2
REMARK    2  A    between atoms: O_2  and  C_3
REMARK    3  A    between atoms: C_6  and  C_7
REMARK    4  A    between atoms: C_7  and  C_8
REMARK    5  A    between atoms: C_8  and  C_9
REMARK    6  A    between atoms: C_9  and  N_10
REMARK    7  A    between atoms: C_14  and  S_15
REMARK                            x       y       z     vdW  Elec       q    Type
REMARK                         _______ _______ _______ _____ _____    ______ ____
ROOT
ATOM      1  C   UNL     1       3.907   3.331  16.855  0.00  0.00    +0.000 C 
ENDROOT
BRANCH   1   5
ATOM      2  C   UNL     1       6.568   6.739  16.912  0.00  0.00    +0.000 A 
ATOM      3  C   UNL     1       5.237   6.878  17.307  0.00  0.00    +0.000 A 
ATOM      4  C   UNL     1       4.378   5.777  17.307  0.00  0.00    +0.000 A 
ATOM      5  C   UNL     1       4.831   4.522  16.880  0.00  0.00    +0.000 A 
ATOM      6  C   UNL     1       6.166   4.391  16.477  0.00  0.00    +0.000 A 
ATOM      7  C   UNL     1       7.028   5.492  16.491  0.00  0.00    +0.000 A 
BRANCH   2   9
ATOM      8  C   UNL     1       8.125   8.065  18.093  0.00  0.00    +0.000 C 
ATOM      9  O   UNL     1       7.309   7.887  16.940  0.00  0.00    +0.000 OA
ENDBRANCH   2   9
ENDBRANCH   1   5
BRANCH   1  10
ATOM     10  C   UNL     1       2.556   3.578  17.531  0.00  0.00    +0.000 C 
BRANCH  10  11
ATOM     11  C   UNL     1       2.025   2.349  18.270  0.00  0.00    +0.000 C 
BRANCH  11  12
ATOM     12  N   UNL     1       2.015   2.558  19.708  0.00  0.00    +0.000 N 
ATOM     13  C   UNL     1       0.921   2.972  20.426  0.00  0.00    +0.000 A 
ATOM     14  C   UNL     1       1.359   3.065  21.726  0.00  0.00    +0.000 A 
ATOM     15  N   UNL     1       2.682   2.718  21.820  0.00  0.00    +0.000 NA
ATOM     16  C   UNL     1       3.047   2.421  20.595  0.00  0.00    +0.000 A 
BRANCH  16  17
ATOM     17  S   UNL     1       4.646   1.938  20.158  0.00  0.00    +0.000 S 
ATOM     18  H   UNL     1       4.995   3.107  19.601  0.00  0.00    +0.000 HD
ENDBRANCH  16  17
ENDBRANCH  11  12
ENDBRANCH  10  11
ENDBRANCH   1  10
TORSDOF 6
ENDMDL
