MODEL 1
REMARK VINA RESULT:      -5.5      0.000      0.000
REMARK  Name = 
REMARK  1 active torsions:
REMARK  status: ('A' for Active; 'I' for Inactive)
REMARK    1  A    between atoms: C_9  and  C_10
REMARK                            x       y       z     vdW  Elec       q    Type
REMARK                         _______ _______ _______ _____ _____    ______ ____
ROOT
ATOM      1  O   UNL     1       4.661   2.057  20.538  0.00  0.00    +0.000 OA
ATOM      2  C   UNL     1       4.627   2.837  19.602  0.00  0.00    +0.000 C 
ATOM      3  O   UNL     1       5.607   3.743  19.291  0.00  0.00    +0.000 OA
ATOM      4  C   UNL     1       5.120   4.463  18.198  0.00  0.00    +0.000 C 
ATOM      5  C   UNL     1       5.790   5.484  17.639  0.00  0.00    +0.000 C 
ATOM      6 BR   UNL     1       5.134   6.483  16.189  0.00  0.00    +0.000 Br
ATOM      7 BR   UNL     1       7.466   6.044  18.275  0.00  0.00    +0.000 Br
ATOM      8  C   UNL     1       3.841   3.949  17.837  0.00  0.00    +0.000 C 
ATOM      9  C   UNL     1       3.513   2.956  18.658  0.00  0.00    +0.000 C 
ENDROOT
BRANCH   9  10
ATOM     10  C   UNL     1       2.281   2.158  18.753  0.00  0.00    +0.000 C 
ATOM     11 BR   UNL     1       1.043   3.046  19.957  0.00  0.00    +0.000 Br
ENDBRANCH   9  10
TORSDOF 1
ENDMDL
MODEL 2
REMARK VINA RESULT:      -5.5      4.234      5.713
REMARK  Name = 
REMARK  1 active torsions:
REMARK  status: ('A' for Active; 'I' for Inactive)
REMARK    1  A    between atoms: C_9  and  C_10
REMARK                            x       y       z     vdW  Elec       q    Type
REMARK                         _______ _______ _______ _____ _____    ______ ____
ROOT
ATOM      1  O   UNL     1       8.365   5.591  13.261  0.00  0.00    +0.000 OA
ATOM      2  C   UNL     1       7.489   5.147  13.982  0.00  0.00    +0.000 C 
ATOM      3  O   UNL     1       7.300   5.483  15.297  0.00  0.00    +0.000 OA
ATOM      4  C   UNL     1       6.237   4.692  15.739  0.00  0.00    +0.000 C 
ATOM      5  C   UNL     1       5.793   4.707  17.006  0.00  0.00    +0.000 C 
ATOM      6 BR   UNL     1       4.386   3.625  17.623  0.00  0.00    +0.000 Br
ATOM      7 BR   UNL     1       6.560   5.809  18.319  0.00  0.00    +0.000 Br
ATOM      8  C   UNL     1       5.769   3.896  14.652  0.00  0.00    +0.000 C 
ATOM      9  C   UNL     1       6.496   4.152  13.569  0.00  0.00    +0.000 C 
ENDROOT
BRANCH   9  10
ATOM     10  C   UNL     1       6.464   3.547  12.228  0.00  0.00    +0.000 C 
ATOM     11 BR   UNL     1       4.614   3.260  11.710  0.00  0.00    +0.000 Br
ENDBRANCH   9  10
TORSDOF 1
ENDMDL
MODEL 3
REMARK VINA RESULT:      -5.4      2.292      4.340
REMARK  Name = 
REMARK  1 active torsions:
REMARK  status: ('A' for Active; 'I' for Inactive)
REMARK    1  A    between atoms: C_9  and  C_10
REMARK                            x       y       z     vdW  Elec       q    Type
REMARK                         _______ _______ _______ _____ _____    ______ ____
ROOT
ATOM      1  O   UNL     1       7.369   5.511  19.804  0.00  0.00    +0.000 OA
ATOM      2  C   UNL     1       6.321   5.252  19.238  0.00  0.00    +0.000 C 
ATOM      3  O   UNL     1       5.079   5.291  19.816  0.00  0.00    +0.000 OA
ATOM      4  C   UNL     1       4.191   4.860  18.828  0.00  0.00    +0.000 C 
ATOM      5  C   UNL     1       2.873   4.717  19.042  0.00  0.00    +0.000 C 
ATOM      6 BR   UNL     1       1.671   4.106  17.734  0.00  0.00    +0.000 Br
ATOM      7 BR   UNL     1       2.087   5.094  20.706  0.00  0.00    +0.000 Br
ATOM      8  C   UNL     1       4.921   4.591  17.633  0.00  0.00    +0.000 C 
ATOM      9  C   UNL     1       6.213   4.827  17.840  0.00  0.00    +0.000 C 
ENDROOT
BRANCH   9  10
ATOM     10  C   UNL     1       7.375   4.634  16.959  0.00  0.00    +0.000 C 
ATOM     11 BR   UNL     1       6.777   4.649  15.112  0.00  0.00    +0.000 Br
ENDBRANCH   9  10
TORSDOF 1
ENDMDL
MODEL 4
REMARK VINA RESULT:      -5.3      1.591      4.352
REMARK  Name = 
REMARK  1 active torsions:
REMARK  status: ('A' for Active; 'I' for Inactive)
REMARK    1  A    between atoms: C_9  and  C_10
REMARK                            x       y       z     vdW  Elec       q    Type
REMARK                         _______ _______ _______ _____ _____    ______ ____
ROOT
ATOM      1  O   UNL     1       6.588   4.432  18.727  0.00  0.00    +0.000 OA
ATOM      2  C   UNL     1       5.425   4.097  18.580  0.00  0.00    +0.000 C 
ATOM      3  O   UNL     1       4.546   3.826  19.596  0.00  0.00    +0.000 OA
ATOM      4  C   UNL     1       3.363   3.423  18.971  0.00  0.00    +0.000 C 
ATOM      5  C   UNL     1       2.277   3.023  19.652  0.00  0.00    +0.000 C 
ATOM      6 BR   UNL     1       0.690   2.447  18.826  0.00  0.00    +0.000 Br
ATOM      7 BR   UNL     1       2.239   2.974  21.529  0.00  0.00    +0.000 Br
ATOM      8  C   UNL     1       3.539   3.489  17.558  0.00  0.00    +0.000 C 
ATOM      9  C   UNL     1       4.773   3.903  17.284  0.00  0.00    +0.000 C 
ENDROOT
BRANCH   9  10
ATOM     10  C   UNL     1       5.465   4.063  15.995  0.00  0.00    +0.000 C 
ATOM     11 BR   UNL     1       5.419   5.935  15.481  0.00  0.00    +0.000 Br
ENDBRANCH   9  10
TORSDOF 1
ENDMDL
MODEL 5
REMARK VINA RESULT:      -5.3      1.928      2.253
REMARK  Name = 
REMARK  1 active torsions:
REMARK  status: ('A' for Active; 'I' for Inactive)
REMARK    1  A    between atoms: C_9  and  C_10
REMARK                            x       y       z     vdW  Elec       q    Type
REMARK                         _______ _______ _______ _____ _____    ______ ____
ROOT
ATOM      1  O   UNL     1       3.490   1.651  18.069  0.00  0.00    +0.000 OA
ATOM      2  C   UNL     1       3.207   2.836  18.090  0.00  0.00    +0.000 C 
ATOM      3  O   UNL     1       3.937   3.835  17.500  0.00  0.00    +0.000 OA
ATOM      4  C   UNL     1       3.284   5.024  17.831  0.00  0.00    +0.000 C 
ATOM      5  C   UNL     1       3.741   6.234  17.469  0.00  0.00    +0.000 C 
ATOM      6 BR   UNL     1       2.893   7.844  17.936  0.00  0.00    +0.000 Br
ATOM      7 BR   UNL     1       5.314   6.446  16.466  0.00  0.00    +0.000 Br
ATOM      8  C   UNL     1       2.127   4.718  18.606  0.00  0.00    +0.000 C 
ATOM      9  C   UNL     1       2.042   3.402  18.774  0.00  0.00    +0.000 C 
ENDROOT
BRANCH   9  10
ATOM     10  C   UNL     1       1.086   2.595  19.550  0.00  0.00    +0.000 C 
ATOM     11 BR   UNL     1       1.539   2.718  21.434  0.00  0.00    +0.000 Br
ENDBRANCH   9  10
TORSDOF 1
ENDMDL
MODEL 6
REMARK VINA RESULT:      -5.3      2.186      4.935
REMARK  Name = 
REMARK  1 active torsions:
REMARK  status: ('A' for Active; 'I' for Inactive)
REMARK    1  A    between atoms: C_9  and  C_10
REMARK                            x       y       z     vdW  Elec       q    Type
REMARK                         _______ _______ _______ _____ _____    ______ ____
ROOT
ATOM      1  O   UNL     1       7.505   4.685  16.365  0.00  0.00    +0.000 OA
ATOM      2  C   UNL     1       6.666   4.717  17.248  0.00  0.00    +0.000 C 
ATOM      3  O   UNL     1       5.471   4.046  17.228  0.00  0.00    +0.000 OA
ATOM      4  C   UNL     1       4.809   4.422  18.399  0.00  0.00    +0.000 C 
ATOM      5  C   UNL     1       3.571   4.001  18.706  0.00  0.00    +0.000 C 
ATOM      6 BR   UNL     1       2.655   4.525  20.261  0.00  0.00    +0.000 Br
ATOM      7 BR   UNL     1       2.603   2.848  17.584  0.00  0.00    +0.000 Br
ATOM      8  C   UNL     1       5.645   5.308  19.140  0.00  0.00    +0.000 C 
ATOM      9  C   UNL     1       6.782   5.502  18.479  0.00  0.00    +0.000 C 
ENDROOT
BRANCH   9  10
ATOM     10  C   UNL     1       7.927   6.377  18.778  0.00  0.00    +0.000 C 
ATOM     11 BR   UNL     1       7.783   7.992  17.711  0.00  0.00    +0.000 Br
ENDBRANCH   9  10
TORSDOF 1
ENDMDL
MODEL 7
REMARK VINA RESULT:      -5.2      2.224      4.383
REMARK  Name = 
REMARK  1 active torsions:
REMARK  status: ('A' for Active; 'I' for Inactive)
REMARK    1  A    between atoms: C_9  and  C_10
REMARK                            x       y       z     vdW  Elec       q    Type
REMARK                         _______ _______ _______ _____ _____    ______ ____
ROOT
ATOM      1  O   UNL     1       7.696   4.429  18.276  0.00  0.00    +0.000 OA
ATOM      2  C   UNL     1       6.492   4.423  18.084  0.00  0.00    +0.000 C 
ATOM      3  O   UNL     1       5.549   4.001  18.985  0.00  0.00    +0.000 OA
ATOM      4  C   UNL     1       4.324   4.106  18.324  0.00  0.00    +0.000 C 
ATOM      5  C   UNL     1       3.160   3.730  18.879  0.00  0.00    +0.000 C 
ATOM      6 BR   UNL     1       1.507   3.833  17.990  0.00  0.00    +0.000 Br
ATOM      7 BR   UNL     1       3.065   3.026  20.617  0.00  0.00    +0.000 Br
ATOM      8  C   UNL     1       4.545   4.630  17.017  0.00  0.00    +0.000 C 
ATOM      9  C   UNL     1       5.846   4.844  16.839  0.00  0.00    +0.000 C 
ENDROOT
BRANCH   9  10
ATOM     10  C   UNL     1       6.588   5.301  15.654  0.00  0.00    +0.000 C 
ATOM     11 BR   UNL     1       6.201   4.111  14.169  0.00  0.00    +0.000 Br
ENDBRANCH   9  10
TORSDOF 1
ENDMDL
MODEL 8
REMARK VINA RESULT:      -5.2      1.830      2.288
REMARK  Name = 
REMARK  1 active torsions:
REMARK  status: ('A' for Active; 'I' for Inactive)
REMARK    1  A    between atoms: C_9  and  C_10
REMARK                            x       y       z     vdW  Elec       q    Type
REMARK                         _______ _______ _______ _____ _____    ______ ____
ROOT
ATOM      1  O   UNL     1       2.306   2.297  17.411  0.00  0.00    +0.000 OA
ATOM      2  C   UNL     1       3.248   2.977  17.779  0.00  0.00    +0.000 C 
ATOM      3  O   UNL     1       4.215   3.498  16.960  0.00  0.00    +0.000 OA
ATOM      4  C   UNL     1       5.120   4.141  17.807  0.00  0.00    +0.000 C 
ATOM      5  C   UNL     1       6.241   4.734  17.365  0.00  0.00    +0.000 C 
ATOM      6 BR   UNL     1       7.484   5.574  18.496  0.00  0.00    +0.000 Br
ATOM      7 BR   UNL     1       6.702   4.763  15.545  0.00  0.00    +0.000 Br
ATOM      8  C   UNL     1       4.659   4.024  19.151  0.00  0.00    +0.000 C 
ATOM      9  C   UNL     1       3.523   3.334  19.173  0.00  0.00    +0.000 C 
ENDROOT
BRANCH   9  10
ATOM     10  C   UNL     1       2.698   2.881  20.304  0.00  0.00    +0.000 C 
ATOM     11 BR   UNL     1       1.120   4.006  20.425  0.00  0.00    +0.000 Br
ENDBRANCH   9  10
TORSDOF 1
ENDMDL
MODEL 9
REMARK VINA RESULT:      -5.2      2.266      2.772
REMARK  Name = 
REMARK  1 active torsions:
REMARK  status: ('A' for Active; 'I' for Inactive)
REMARK    1  A    between atoms: C_9  and  C_10
REMARK                            x       y       z     vdW  Elec       q    Type
REMARK                         _______ _______ _______ _____ _____    ______ ____
ROOT
ATOM      1  O   UNL     1       1.455   4.002  17.461  0.00  0.00    +0.000 OA
ATOM      2  C   UNL     1       2.536   4.412  17.845  0.00  0.00    +0.000 C 
ATOM      3  O   UNL     1       3.685   4.433  17.098  0.00  0.00    +0.000 OA
ATOM      4  C   UNL     1       4.680   4.916  17.952  0.00  0.00    +0.000 C 
ATOM      5  C   UNL     1       5.966   5.031  17.584  0.00  0.00    +0.000 C 
ATOM      6 BR   UNL     1       7.321   5.647  18.731  0.00  0.00    +0.000 Br
ATOM      7 BR   UNL     1       6.558   4.554  15.867  0.00  0.00    +0.000 Br
ATOM      8  C   UNL     1       4.098   5.216  19.218  0.00  0.00    +0.000 C 
ATOM      9  C   UNL     1       2.799   4.933  19.188  0.00  0.00    +0.000 C 
ENDROOT
BRANCH   9  10
ATOM     10  C   UNL     1       1.781   4.993  20.249  0.00  0.00    +0.000 C 
ATOM     11 BR   UNL     1       1.672   3.260  21.118  0.00  0.00    +0.000 Br
ENDBRANCH   9  10
TORSDOF 1
ENDMDL
