MODEL 1
REMARK VINA RESULT:      -7.2      0.000      0.000
REMARK  Name = 
REMARK  6 active torsions:
REMARK  status: ('A' for Active; 'I' for Inactive)
REMARK    1  A    between atoms: O5*_1  and  C5*_2
REMARK    2  A    between atoms: C5*_2  and  C4*_3
REMARK    3  A    between atoms: C1*_5  and  N_6
REMARK    4  A    between atoms: C_10  and  C_11
REMARK    5  A    between atoms: C2*_20  and  O2*_21
REMARK    6  A    between atoms: C3*_22  and  O3*_23
REMARK                            x       y       z     vdW  Elec       q    Type
REMARK                         _______ _______ _______ _____ _____    ______ ____
ROOT
ATOM      1  N   UNL     1       4.146   3.914  18.187  0.00  0.00    +0.000 N 
ATOM      2  C   UNL     1       3.456   3.805  17.012  0.00  0.00    +0.000 A 
ATOM      3  N   UNL     1       4.232   3.993  15.966  0.00  0.00    +0.000 NA
ATOM      4  C   UNL     1       5.490   4.235  16.485  0.00  0.00    +0.000 A 
ATOM      5  C   UNL     1       6.743   4.488  15.914  0.00  0.00    +0.000 A 
ATOM      6  N   UNL     1       7.815   4.697  16.733  0.00  0.00    +0.000 NA
ATOM      7  C   UNL     1       7.616   4.639  18.065  0.00  0.00    +0.000 A 
ATOM      8  N   UNL     1       6.473   4.380  18.724  0.00  0.00    +0.000 NA
ATOM      9  C   UNL     1       5.449   4.195  17.873  0.00  0.00    +0.000 A 
ENDROOT
BRANCH   1  12
ATOM     10  C4* UNL     1       1.785   2.484  20.311  0.00  0.00    +0.000 C 
ATOM     11  O4* UNL     1       3.076   2.401  19.660  0.00  0.00    +0.000 OA
ATOM     12  C1* UNL     1       3.621   3.739  19.525  0.00  0.00    +0.000 C 
ATOM     13  C2* UNL     1       2.520   4.730  19.900  0.00  0.00    +0.000 C 
ATOM     14  C3* UNL     1       1.679   3.903  20.860  0.00  0.00    +0.000 C 
BRANCH  13  15
ATOM     15  O2* UNL     1       3.013   5.909  20.539  0.00  0.00    +0.000 OA
ATOM     16  H2* UNL     1       2.237   6.341  20.955  0.00  0.00    +0.000 HD
ENDBRANCH  13  15
BRANCH  14  17
ATOM     17  O3* UNL     1       2.278   3.988  22.171  0.00  0.00    +0.000 OA
ATOM     18  H3* UNL     1       1.816   4.678  22.685  0.00  0.00    +0.000 HD
ENDBRANCH  14  17
BRANCH  10  19
ATOM     19  C5* UNL     1       0.676   2.109  19.322  0.00  0.00    +0.000 C 
BRANCH  19  20
ATOM     20  O5* UNL     1       1.213   1.623  18.098  0.00  0.00    +0.000 OA
ATOM     21  H5* UNL     1       0.496   1.651  17.438  0.00  0.00    +0.000 HD
ENDBRANCH  19  20
ENDBRANCH  10  19
ENDBRANCH   1  12
BRANCH   5  22
ATOM     22  C   UNL     1       6.942   4.520  14.471  0.00  0.00    +0.000 A 
ATOM     23  C   UNL     1       7.740   5.429  13.698  0.00  0.00    +0.000 A 
ATOM     24  C   UNL     1       7.691   5.177  12.345  0.00  0.00    +0.000 A 
ATOM     25  S   UNL     1       6.684   3.849  11.981  0.00  0.00    +0.000 S 
ATOM     26  C   UNL     1       6.314   3.611  13.637  0.00  0.00    +0.000 A 
ENDBRANCH   5  22
TORSDOF 6
ENDMDL
MODEL 2
REMARK VINA RESULT:      -7.1      5.242      7.651
REMARK  Name = 
REMARK  6 active torsions:
REMARK  status: ('A' for Active; 'I' for Inactive)
REMARK    1  A    between atoms: O5*_1  and  C5*_2
REMARK    2  A    between atoms: C5*_2  and  C4*_3
REMARK    3  A    between atoms: C1*_5  and  N_6
REMARK    4  A    between atoms: C_10  and  C_11
REMARK    5  A    between atoms: C2*_20  and  O2*_21
REMARK    6  A    between atoms: C3*_22  and  O3*_23
REMARK                            x       y       z     vdW  Elec       q    Type
REMARK                         _______ _______ _______ _____ _____    ______ ____
ROOT
ATOM      1  N   UNL     1       2.570   6.383  19.244  0.00  0.00    +0.000 N 
ATOM      2  C   UNL     1       2.095   6.091  20.492  0.00  0.00    +0.000 A 
ATOM      3  N   UNL     1       1.456   7.109  21.027  0.00  0.00    +0.000 NA
ATOM      4  C   UNL     1       1.516   8.114  20.080  0.00  0.00    +0.000 A 
ATOM      5  C   UNL     1       1.023   9.422  20.020  0.00  0.00    +0.000 A 
ATOM      6  N   UNL     1       1.271  10.176  18.910  0.00  0.00    +0.000 NA
ATOM      7  C   UNL     1       1.979   9.615  17.909  0.00  0.00    +0.000 A 
ATOM      8  N   UNL     1       2.478   8.369  17.841  0.00  0.00    +0.000 NA
ATOM      9  C   UNL     1       2.216   7.676  18.963  0.00  0.00    +0.000 A 
ENDROOT
BRANCH   1  12
ATOM     10  C4* UNL     1       2.728   3.367  17.511  0.00  0.00    +0.000 C 
ATOM     11  O4* UNL     1       2.348   4.764  17.533  0.00  0.00    +0.000 OA
ATOM     12  C1* UNL     1       3.292   5.495  18.357  0.00  0.00    +0.000 C 
ATOM     13  C2* UNL     1       4.172   4.473  19.075  0.00  0.00    +0.000 C 
ATOM     14  C3* UNL     1       4.131   3.301  18.105  0.00  0.00    +0.000 C 
BRANCH  13  15
ATOM     15  O2* UNL     1       5.514   4.922  19.274  0.00  0.00    +0.000 OA
ATOM     16  H2* UNL     1       5.938   4.920  18.391  0.00  0.00    +0.000 HD
ENDBRANCH  13  15
BRANCH  14  17
ATOM     17  O3* UNL     1       5.128   3.525  17.085  0.00  0.00    +0.000 OA
ATOM     18  H3* UNL     1       6.011   3.527  17.501  0.00  0.00    +0.000 HD
ENDBRANCH  14  17
BRANCH  10  19
ATOM     19  C5* UNL     1       1.688   2.530  18.264  0.00  0.00    +0.000 C 
BRANCH  19  20
ATOM     20  O5* UNL     1       2.265   1.345  18.801  0.00  0.00    +0.000 OA
ATOM     21  H5* UNL     1       2.072   0.623  18.176  0.00  0.00    +0.000 HD
ENDBRANCH  19  20
ENDBRANCH  10  19
ENDBRANCH   1  12
BRANCH   5  22
ATOM     22  C   UNL     1       0.237  10.002  21.103  0.00  0.00    +0.000 A 
ATOM     23  C   UNL     1      -0.096   9.424  22.375  0.00  0.00    +0.000 A 
ATOM     24  C   UNL     1      -0.871  10.251  23.158  0.00  0.00    +0.000 A 
ATOM     25  S   UNL     1      -1.213  11.730  22.379  0.00  0.00    +0.000 S 
ATOM     26  C   UNL     1      -0.322  11.263  20.992  0.00  0.00    +0.000 A 
ENDBRANCH   5  22
TORSDOF 6
ENDMDL
MODEL 3
REMARK VINA RESULT:      -7.1      5.295      7.785
REMARK  Name = 
REMARK  6 active torsions:
REMARK  status: ('A' for Active; 'I' for Inactive)
REMARK    1  A    between atoms: O5*_1  and  C5*_2
REMARK    2  A    between atoms: C5*_2  and  C4*_3
REMARK    3  A    between atoms: C1*_5  and  N_6
REMARK    4  A    between atoms: C_10  and  C_11
REMARK    5  A    between atoms: C2*_20  and  O2*_21
REMARK    6  A    between atoms: C3*_22  and  O3*_23
REMARK                            x       y       z     vdW  Elec       q    Type
REMARK                         _______ _______ _______ _____ _____    ______ ____
ROOT
ATOM      1  N   UNL     1       2.626   6.523  18.851  0.00  0.00    +0.000 N 
ATOM      2  C   UNL     1       2.224   6.125  20.095  0.00  0.00    +0.000 A 
ATOM      3  N   UNL     1       1.596   7.084  20.740  0.00  0.00    +0.000 NA
ATOM      4  C   UNL     1       1.587   8.160  19.873  0.00  0.00    +0.000 A 
ATOM      5  C   UNL     1       1.067   9.458  19.943  0.00  0.00    +0.000 A 
ATOM      6  N   UNL     1       1.241  10.301  18.883  0.00  0.00    +0.000 NA
ATOM      7  C   UNL     1       1.905   9.835  17.806  0.00  0.00    +0.000 A 
ATOM      8  N   UNL     1       2.423   8.609  17.615  0.00  0.00    +0.000 NA
ATOM      9  C   UNL     1       2.234   7.826  18.690  0.00  0.00    +0.000 A 
ENDROOT
BRANCH   1  12
ATOM     10  C4* UNL     1       3.827   3.421  17.819  0.00  0.00    +0.000 C 
ATOM     11  O4* UNL     1       2.749   4.388  17.838  0.00  0.00    +0.000 OA
ATOM     12  C1* UNL     1       3.316   5.723  17.860  0.00  0.00    +0.000 C 
ATOM     13  C2* UNL     1       4.819   5.587  18.101  0.00  0.00    +0.000 C 
ATOM     14  C3* UNL     1       5.097   4.210  17.518  0.00  0.00    +0.000 C 
BRANCH  13  15
ATOM     15  O2* UNL     1       5.591   6.588  17.436  0.00  0.00    +0.000 OA
ATOM     16  H2* UNL     1       5.799   6.229  16.548  0.00  0.00    +0.000 HD
ENDBRANCH  13  15
BRANCH  14  17
ATOM     17  O3* UNL     1       5.283   4.353  16.094  0.00  0.00    +0.000 OA
ATOM     18  H3* UNL     1       4.985   5.242  15.823  0.00  0.00    +0.000 HD
ENDBRANCH  14  17
BRANCH  10  19
ATOM     19  C5* UNL     1       3.865   2.655  19.146  0.00  0.00    +0.000 C 
BRANCH  19  20
ATOM     20  O5* UNL     1       5.201   2.386  19.553  0.00  0.00    +0.000 OA
ATOM     21  H5* UNL     1       5.691   2.102  18.760  0.00  0.00    +0.000 HD
ENDBRANCH  19  20
ENDBRANCH  10  19
ENDBRANCH   1  12
BRANCH   5  22
ATOM     22  C   UNL     1       0.329   9.933  21.107  0.00  0.00    +0.000 A 
ATOM     23  C   UNL     1       0.087   9.257  22.350  0.00  0.00    +0.000 A 
ATOM     24  C   UNL     1      -0.664  10.001  23.233  0.00  0.00    +0.000 A 
ATOM     25  S   UNL     1      -1.092  11.519  22.583  0.00  0.00    +0.000 S 
ATOM     26  C   UNL     1      -0.271  11.181  21.119  0.00  0.00    +0.000 A 
ENDBRANCH   5  22
TORSDOF 6
ENDMDL
MODEL 4
REMARK VINA RESULT:      -7.0      5.344      7.458
REMARK  Name = 
REMARK  6 active torsions:
REMARK  status: ('A' for Active; 'I' for Inactive)
REMARK    1  A    between atoms: O5*_1  and  C5*_2
REMARK    2  A    between atoms: C5*_2  and  C4*_3
REMARK    3  A    between atoms: C1*_5  and  N_6
REMARK    4  A    between atoms: C_10  and  C_11
REMARK    5  A    between atoms: C2*_20  and  O2*_21
REMARK    6  A    between atoms: C3*_22  and  O3*_23
REMARK                            x       y       z     vdW  Elec       q    Type
REMARK                         _______ _______ _______ _____ _____    ______ ____
ROOT
ATOM      1  N   UNL     1       3.118   7.128  18.530  0.00  0.00    +0.000 N 
ATOM      2  C   UNL     1       3.055   7.904  17.407  0.00  0.00    +0.000 A 
ATOM      3  N   UNL     1       2.184   8.882  17.532  0.00  0.00    +0.000 NA
ATOM      4  C   UNL     1       1.654   8.737  18.800  0.00  0.00    +0.000 A 
ATOM      5  C   UNL     1       0.708   9.452  19.544  0.00  0.00    +0.000 A 
ATOM      6  N   UNL     1       0.394   9.028  20.803  0.00  0.00    +0.000 NA
ATOM      7  C   UNL     1       1.025   7.934  21.278  0.00  0.00    +0.000 A 
ATOM      8  N   UNL     1       1.963   7.187  20.671  0.00  0.00    +0.000 NA
ATOM      9  C   UNL     1       2.224   7.640  19.433  0.00  0.00    +0.000 A 
ENDROOT
BRANCH   1  12
ATOM     10  C4* UNL     1       5.459   4.862  17.302  0.00  0.00    +0.000 C 
ATOM     11  O4* UNL     1       5.182   6.127  17.950  0.00  0.00    +0.000 OA
ATOM     12  C1* UNL     1       3.984   5.989  18.755  0.00  0.00    +0.000 C 
ATOM     13  C2* UNL     1       3.346   4.642  18.415  0.00  0.00    +0.000 C 
ATOM     14  C3* UNL     1       4.558   3.834  17.977  0.00  0.00    +0.000 C 
BRANCH  13  15
ATOM     15  O2* UNL     1       2.697   4.026  19.529  0.00  0.00    +0.000 OA
ATOM     16  H2* UNL     1       3.070   4.447  20.331  0.00  0.00    +0.000 HD
ENDBRANCH  13  15
BRANCH  14  17
ATOM     17  O3* UNL     1       5.192   3.297  19.158  0.00  0.00    +0.000 OA
ATOM     18  H3* UNL     1       4.502   3.055  19.805  0.00  0.00    +0.000 HD
ENDBRANCH  14  17
BRANCH  10  19
ATOM     19  C5* UNL     1       5.241   4.990  15.790  0.00  0.00    +0.000 C 
BRANCH  19  20
ATOM     20  O5* UNL     1       5.520   6.309  15.335  0.00  0.00    +0.000 OA
ATOM     21  H5* UNL     1       4.928   6.912  15.821  0.00  0.00    +0.000 HD
ENDBRANCH  19  20
ENDBRANCH  10  19
ENDBRANCH   1  12
BRANCH   5  22
ATOM     22  C   UNL     1       0.057  10.647  19.021  0.00  0.00    +0.000 A 
ATOM     23  C   UNL     1      -1.175  10.748  18.291  0.00  0.00    +0.000 A 
ATOM     24  C   UNL     1      -1.491  12.041  17.937  0.00  0.00    +0.000 A 
ATOM     25  S   UNL     1      -0.312  13.153  18.472  0.00  0.00    +0.000 S 
ATOM     26  C   UNL     1       0.620  11.902  19.179  0.00  0.00    +0.000 A 
ENDBRANCH   5  22
TORSDOF 6
ENDMDL
MODEL 5
REMARK VINA RESULT:      -6.8      5.447      7.373
REMARK  Name = 
REMARK  6 active torsions:
REMARK  status: ('A' for Active; 'I' for Inactive)
REMARK    1  A    between atoms: O5*_1  and  C5*_2
REMARK    2  A    between atoms: C5*_2  and  C4*_3
REMARK    3  A    between atoms: C1*_5  and  N_6
REMARK    4  A    between atoms: C_10  and  C_11
REMARK    5  A    between atoms: C2*_20  and  O2*_21
REMARK    6  A    between atoms: C3*_22  and  O3*_23
REMARK                            x       y       z     vdW  Elec       q    Type
REMARK                         _______ _______ _______ _____ _____    ______ ____
ROOT
ATOM      1  N   UNL     1       2.452   6.926  18.766  0.00  0.00    +0.000 N 
ATOM      2  C   UNL     1       2.678   7.645  17.626  0.00  0.00    +0.000 A 
ATOM      3  N   UNL     1       2.247   8.884  17.731  0.00  0.00    +0.000 NA
ATOM      4  C   UNL     1       1.715   8.977  19.003  0.00  0.00    +0.000 A 
ATOM      5  C   UNL     1       1.122  10.014  19.732  0.00  0.00    +0.000 A 
ATOM      6  N   UNL     1       0.682   9.766  21.001  0.00  0.00    +0.000 NA
ATOM      7  C   UNL     1       0.852   8.524  21.499  0.00  0.00    +0.000 A 
ATOM      8  N   UNL     1       1.428   7.463  20.907  0.00  0.00    +0.000 NA
ATOM      9  C   UNL     1       1.830   7.758  19.659  0.00  0.00    +0.000 A 
ENDROOT
BRANCH   1  12
ATOM     10  C4* UNL     1       4.928   4.493  19.040  0.00  0.00    +0.000 C 
ATOM     11  O4* UNL     1       4.109   5.503  19.677  0.00  0.00    +0.000 OA
ATOM     12  C1* UNL     1       2.819   5.547  19.014  0.00  0.00    +0.000 C 
ATOM     13  C2* UNL     1       2.913   4.688  17.754  0.00  0.00    +0.000 C 
ATOM     14  C3* UNL     1       3.990   3.689  18.146  0.00  0.00    +0.000 C 
BRANCH  13  15
ATOM     15  O2* UNL     1       1.691   4.021  17.432  0.00  0.00    +0.000 OA
ATOM     16  H2* UNL     1       1.278   4.538  16.709  0.00  0.00    +0.000 HD
ENDBRANCH  13  15
BRANCH  14  17
ATOM     17  O3* UNL     1       3.364   2.622  18.893  0.00  0.00    +0.000 OA
ATOM     18  H3* UNL     1       2.565   2.329  18.415  0.00  0.00    +0.000 HD
ENDBRANCH  14  17
BRANCH  10  19
ATOM     19  C5* UNL     1       6.089   5.157  18.292  0.00  0.00    +0.000 C 
BRANCH  19  20
ATOM     20  O5* UNL     1       7.192   4.270  18.152  0.00  0.00    +0.000 OA
ATOM     21  H5* UNL     1       6.827   3.381  17.992  0.00  0.00    +0.000 HD
ENDBRANCH  19  20
ENDBRANCH  10  19
ENDBRANCH   1  12
BRANCH   5  22
ATOM     22  C   UNL     1       0.971  11.356  19.185  0.00  0.00    +0.000 A 
ATOM     23  C   UNL     1       1.994  12.269  18.760  0.00  0.00    +0.000 A 
ATOM     24  C   UNL     1       1.494  13.468  18.302  0.00  0.00    +0.000 A 
ATOM     25  S   UNL     1      -0.210  13.518  18.380  0.00  0.00    +0.000 S 
ATOM     26  C   UNL     1      -0.278  11.933  19.025  0.00  0.00    +0.000 A 
ENDBRANCH   5  22
TORSDOF 6
ENDMDL
MODEL 6
REMARK VINA RESULT:      -6.8      5.337      6.800
REMARK  Name = 
REMARK  6 active torsions:
REMARK  status: ('A' for Active; 'I' for Inactive)
REMARK    1  A    between atoms: O5*_1  and  C5*_2
REMARK    2  A    between atoms: C5*_2  and  C4*_3
REMARK    3  A    between atoms: C1*_5  and  N_6
REMARK    4  A    between atoms: C_10  and  C_11
REMARK    5  A    between atoms: C2*_20  and  O2*_21
REMARK    6  A    between atoms: C3*_22  and  O3*_23
REMARK                            x       y       z     vdW  Elec       q    Type
REMARK                         _______ _______ _______ _____ _____    ______ ____
ROOT
ATOM      1  N   UNL     1       1.097   9.145  19.202  0.00  0.00    +0.000 N 
ATOM      2  C   UNL     1       1.587   9.503  17.977  0.00  0.00    +0.000 A 
ATOM      3  N   UNL     1       2.433   8.613  17.506  0.00  0.00    +0.000 NA
ATOM      4  C   UNL     1       2.497   7.626  18.470  0.00  0.00    +0.000 A 
ATOM      5  C   UNL     1       3.187   6.412  18.573  0.00  0.00    +0.000 A 
ATOM      6  N   UNL     1       3.031   5.652  19.696  0.00  0.00    +0.000 NA
ATOM      7  C   UNL     1       2.203   6.106  20.658  0.00  0.00    +0.000 A 
ATOM      8  N   UNL     1       1.470   7.234  20.660  0.00  0.00    +0.000 NA
ATOM      9  C   UNL     1       1.671   7.949  19.540  0.00  0.00    +0.000 A 
ENDROOT
BRANCH   1  12
ATOM     10  C4* UNL     1      -1.057  11.860  19.554  0.00  0.00    +0.000 C 
ATOM     11  O4* UNL     1      -0.847  10.493  19.123  0.00  0.00    +0.000 OA
ATOM     12  C1* UNL     1       0.127   9.869  19.998  0.00  0.00    +0.000 C 
ATOM     13  C2* UNL     1       0.732  10.963  20.877  0.00  0.00    +0.000 C 
ATOM     14  C3* UNL     1      -0.402  11.975  20.927  0.00  0.00    +0.000 C 
BRANCH  13  15
ATOM     15  O2* UNL     1       1.070  10.512  22.190  0.00  0.00    +0.000 OA
ATOM     16  H2* UNL     1       0.291  10.700  22.754  0.00  0.00    +0.000 HD
ENDBRANCH  13  15
BRANCH  14  17
ATOM     17  O3* UNL     1      -1.321  11.572  21.965  0.00  0.00    +0.000 OA
ATOM     18  H3* UNL     1      -1.732  10.724  21.712  0.00  0.00    +0.000 HD
ENDBRANCH  14  17
BRANCH  10  19
ATOM     19  C5* UNL     1      -0.496  12.829  18.508  0.00  0.00    +0.000 C 
BRANCH  19  20
ATOM     20  O5* UNL     1      -1.195  12.723  17.274  0.00  0.00    +0.000 OA
ATOM     21  H5* UNL     1      -2.134  12.907  17.459  0.00  0.00    +0.000 HD
ENDBRANCH  19  20
ENDBRANCH  10  19
ENDBRANCH   1  12
BRANCH   5  22
ATOM     22  C   UNL     1       4.059   5.927  17.510  0.00  0.00    +0.000 A 
ATOM     23  C   UNL     1       4.919   6.683  16.643  0.00  0.00    +0.000 A 
ATOM     24  C   UNL     1       5.597   5.899  15.736  0.00  0.00    +0.000 A 
ATOM     25  S   UNL     1       5.209   4.246  15.908  0.00  0.00    +0.000 S 
ATOM     26  C   UNL     1       4.134   4.580  17.198  0.00  0.00    +0.000 A 
ENDBRANCH   5  22
TORSDOF 6
ENDMDL
MODEL 7
REMARK VINA RESULT:      -6.7      4.749      7.485
REMARK  Name = 
REMARK  6 active torsions:
REMARK  status: ('A' for Active; 'I' for Inactive)
REMARK    1  A    between atoms: O5*_1  and  C5*_2
REMARK    2  A    between atoms: C5*_2  and  C4*_3
REMARK    3  A    between atoms: C1*_5  and  N_6
REMARK    4  A    between atoms: C_10  and  C_11
REMARK    5  A    between atoms: C2*_20  and  O2*_21
REMARK    6  A    between atoms: C3*_22  and  O3*_23
REMARK                            x       y       z     vdW  Elec       q    Type
REMARK                         _______ _______ _______ _____ _____    ______ ____
ROOT
ATOM      1  N   UNL     1       3.900   6.371  17.921  0.00  0.00    +0.000 N 
ATOM      2  C   UNL     1       3.745   7.631  17.414  0.00  0.00    +0.000 A 
ATOM      3  N   UNL     1       2.876   8.337  18.105  0.00  0.00    +0.000 NA
ATOM      4  C   UNL     1       2.444   7.496  19.113  0.00  0.00    +0.000 A 
ATOM      5  C   UNL     1       1.550   7.640  20.180  0.00  0.00    +0.000 A 
ATOM      6  N   UNL     1       1.336   6.582  21.015  0.00  0.00    +0.000 NA
ATOM      7  C   UNL     1       2.011   5.439  20.775  0.00  0.00    +0.000 A 
ATOM      8  N   UNL     1       2.908   5.193  19.805  0.00  0.00    +0.000 NA
ATOM      9  C   UNL     1       3.071   6.261  19.006  0.00  0.00    +0.000 A 
ENDROOT
BRANCH   1  12
ATOM     10  C4* UNL     1       6.961   4.724  18.121  0.00  0.00    +0.000 C 
ATOM     11  O4* UNL     1       5.577   4.820  18.536  0.00  0.00    +0.000 OA
ATOM     12  C1* UNL     1       4.791   5.339  17.434  0.00  0.00    +0.000 C 
ATOM     13  C2* UNL     1       5.761   5.810  16.351  0.00  0.00    +0.000 C 
ATOM     14  C3* UNL     1       6.962   4.914  16.607  0.00  0.00    +0.000 C 
BRANCH  13  15
ATOM     15  O2* UNL     1       5.261   5.626  15.025  0.00  0.00    +0.000 OA
ATOM     16  H2* UNL     1       5.624   6.363  14.490  0.00  0.00    +0.000 HD
ENDBRANCH  13  15
BRANCH  14  17
ATOM     17  O3* UNL     1       6.737   3.655  15.935  0.00  0.00    +0.000 OA
ATOM     18  H3* UNL     1       7.222   2.953  16.409  0.00  0.00    +0.000 HD
ENDBRANCH  14  17
BRANCH  10  19
ATOM     19  C5* UNL     1       7.808   5.750  18.882  0.00  0.00    +0.000 C 
BRANCH  19  20
ATOM     20  O5* UNL     1       7.813   5.485  20.279  0.00  0.00    +0.000 OA
ATOM     21  H5* UNL     1       7.102   4.840  20.452  0.00  0.00    +0.000 HD
ENDBRANCH  19  20
ENDBRANCH  10  19
ENDBRANCH   1  12
BRANCH   5  22
ATOM     22  C   UNL     1       0.849   8.893  20.438  0.00  0.00    +0.000 A 
ATOM     23  C   UNL     1       0.246   9.791  19.494  0.00  0.00    +0.000 A 
ATOM     24  C   UNL     1      -0.324  10.896  20.087  0.00  0.00    +0.000 A 
ATOM     25  S   UNL     1      -0.140  10.874  21.783  0.00  0.00    +0.000 S 
ATOM     26  C   UNL     1       0.702   9.384  21.724  0.00  0.00    +0.000 A 
ENDBRANCH   5  22
TORSDOF 6
ENDMDL
MODEL 8
REMARK VINA RESULT:      -6.6      5.562      7.794
REMARK  Name = 
REMARK  6 active torsions:
REMARK  status: ('A' for Active; 'I' for Inactive)
REMARK    1  A    between atoms: O5*_1  and  C5*_2
REMARK    2  A    between atoms: C5*_2  and  C4*_3
REMARK    3  A    between atoms: C1*_5  and  N_6
REMARK    4  A    between atoms: C_10  and  C_11
REMARK    5  A    between atoms: C2*_20  and  O2*_21
REMARK    6  A    between atoms: C3*_22  and  O3*_23
REMARK                            x       y       z     vdW  Elec       q    Type
REMARK                         _______ _______ _______ _____ _____    ______ ____
ROOT
ATOM      1  N   UNL     1       1.176   9.225  20.198  0.00  0.00    +0.000 N 
ATOM      2  C   UNL     1       0.860   8.441  21.273  0.00  0.00    +0.000 A 
ATOM      3  N   UNL     1       1.323   7.217  21.143  0.00  0.00    +0.000 NA
ATOM      4  C   UNL     1       1.974   7.202  19.924  0.00  0.00    +0.000 A 
ATOM      5  C   UNL     1       2.686   6.226  19.217  0.00  0.00    +0.000 A 
ATOM      6  N   UNL     1       3.214   6.542  17.998  0.00  0.00    +0.000 NA
ATOM      7  C   UNL     1       3.032   7.795  17.535  0.00  0.00    +0.000 A 
ATOM      8  N   UNL     1       2.395   8.818  18.132  0.00  0.00    +0.000 NA
ATOM      9  C   UNL     1       1.885   8.449  19.319  0.00  0.00    +0.000 A 
ENDROOT
BRANCH   1  12
ATOM     10  C4* UNL     1      -0.218  12.161  21.448  0.00  0.00    +0.000 C 
ATOM     11  O4* UNL     1       0.943  11.311  21.292  0.00  0.00    +0.000 OA
ATOM     12  C1* UNL     1       0.856  10.625  20.016  0.00  0.00    +0.000 C 
ATOM     13  C2* UNL     1      -0.539  10.879  19.446  0.00  0.00    +0.000 C 
ATOM     14  C3* UNL     1      -0.888  12.217  20.079  0.00  0.00    +0.000 C 
BRANCH  13  15
ATOM     15  O2* UNL     1      -0.560  10.968  18.020  0.00  0.00    +0.000 OA
ATOM     16  H2* UNL     1      -1.498  10.870  17.753  0.00  0.00    +0.000 HD
ENDBRANCH  13  15
BRANCH  14  17
ATOM     17  O3* UNL     1      -0.307  13.263  19.270  0.00  0.00    +0.000 OA
ATOM     18  H3* UNL     1      -0.743  13.266  18.397  0.00  0.00    +0.000 HD
ENDBRANCH  14  17
BRANCH  10  19
ATOM     19  C5* UNL     1      -1.117  11.618  22.564  0.00  0.00    +0.000 C 
BRANCH  19  20
ATOM     20  O5* UNL     1      -0.410  10.720  23.410  0.00  0.00    +0.000 OA
ATOM     21  H5* UNL     1       0.060  10.091  22.833  0.00  0.00    +0.000 HD
ENDBRANCH  19  20
ENDBRANCH  10  19
ENDBRANCH   1  12
BRANCH   5  22
ATOM     22  C   UNL     1       2.893   4.884  19.747  0.00  0.00    +0.000 A 
ATOM     23  C   UNL     1       2.154   4.203  20.772  0.00  0.00    +0.000 A 
ATOM     24  C   UNL     1       2.634   2.939  21.037  0.00  0.00    +0.000 A 
ATOM     25  S   UNL     1       3.980   2.552  20.061  0.00  0.00    +0.000 S 
ATOM     26  C   UNL     1       3.919   4.078  19.284  0.00  0.00    +0.000 A 
ENDBRANCH   5  22
TORSDOF 6
ENDMDL
MODEL 9
REMARK VINA RESULT:      -6.6      5.165      6.909
REMARK  Name = 
REMARK  6 active torsions:
REMARK  status: ('A' for Active; 'I' for Inactive)
REMARK    1  A    between atoms: O5*_1  and  C5*_2
REMARK    2  A    between atoms: C5*_2  and  C4*_3
REMARK    3  A    between atoms: C1*_5  and  N_6
REMARK    4  A    between atoms: C_10  and  C_11
REMARK    5  A    between atoms: C2*_20  and  O2*_21
REMARK    6  A    between atoms: C3*_22  and  O3*_23
REMARK                            x       y       z     vdW  Elec       q    Type
REMARK                         _______ _______ _______ _____ _____    ______ ____
ROOT
ATOM      1  N   UNL     1       2.940   6.782  18.266  0.00  0.00    +0.000 N 
ATOM      2  C   UNL     1       3.032   7.648  17.212  0.00  0.00    +0.000 A 
ATOM      3  N   UNL     1       2.416   8.785  17.452  0.00  0.00    +0.000 NA
ATOM      4  C   UNL     1       1.898   8.655  18.727  0.00  0.00    +0.000 A 
ATOM      5  C   UNL     1       1.162   9.501  19.566  0.00  0.00    +0.000 A 
ATOM      6  N   UNL     1       0.789   9.051  20.799  0.00  0.00    +0.000 NA
ATOM      7  C   UNL     1       1.158   7.805  21.158  0.00  0.00    +0.000 A 
ATOM      8  N   UNL     1       1.881   6.918  20.453  0.00  0.00    +0.000 NA
ATOM      9  C   UNL     1       2.211   7.405  19.245  0.00  0.00    +0.000 A 
ENDROOT
BRANCH   1  12
ATOM     10  C4* UNL     1       2.822   3.550  19.557  0.00  0.00    +0.000 C 
ATOM     11  O4* UNL     1       2.463   4.476  18.503  0.00  0.00    +0.000 OA
ATOM     12  C1* UNL     1       3.521   5.459  18.362  0.00  0.00    +0.000 C 
ATOM     13  C2* UNL     1       4.481   5.282  19.537  0.00  0.00    +0.000 C 
ATOM     14  C3* UNL     1       4.293   3.809  19.865  0.00  0.00    +0.000 C 
BRANCH  13  15
ATOM     15  O2* UNL     1       5.842   5.560  19.203  0.00  0.00    +0.000 OA
ATOM     16  H2* UNL     1       5.900   5.515  18.225  0.00  0.00    +0.000 HD
ENDBRANCH  13  15
BRANCH  14  17
ATOM     17  O3* UNL     1       5.141   3.039  18.985  0.00  0.00    +0.000 OA
ATOM     18  H3* UNL     1       5.218   2.131  19.334  0.00  0.00    +0.000 HD
ENDBRANCH  14  17
BRANCH  10  19
ATOM     19  C5* UNL     1       1.888   3.737  20.758  0.00  0.00    +0.000 C 
BRANCH  19  20
ATOM     20  O5* UNL     1       0.563   4.047  20.342  0.00  0.00    +0.000 OA
ATOM     21  H5* UNL     1      -0.041   3.689  21.018  0.00  0.00    +0.000 HD
ENDBRANCH  19  20
ENDBRANCH  10  19
ENDBRANCH   1  12
BRANCH   5  22
ATOM     22  C   UNL     1       0.795  10.855  19.169  0.00  0.00    +0.000 A 
ATOM     23  C   UNL     1       1.644  12.002  19.014  0.00  0.00    +0.000 A 
ATOM     24  C   UNL     1       0.958  13.136  18.636  0.00  0.00    +0.000 A 
ATOM     25  S   UNL     1      -0.714  12.840  18.465  0.00  0.00    +0.000 S 
ATOM     26  C   UNL     1      -0.519  11.194  18.897  0.00  0.00    +0.000 A 
ENDBRANCH   5  22
TORSDOF 6
ENDMDL
