MODEL 1
REMARK VINA RESULT:      -7.8      0.000      0.000
REMARK  Name = 
REMARK  9 active torsions:
REMARK  status: ('A' for Active; 'I' for Inactive)
REMARK    1  A    between atoms: C_1  and  C_2
REMARK    2  A    between atoms: C_2  and  O_3
REMARK    3  A    between atoms: O_3  and  C_4
REMARK    4  A    between atoms: C_4  and  C_6
REMARK    5  A    between atoms: C_10  and  C_11
REMARK    6  A    between atoms: N_14  and  C_15
REMARK    7  A    between atoms: N_14  and  C_22
REMARK    8  A    between atoms: C_15  and  C_16
REMARK    9  A    between atoms: C_29  and  C_30
REMARK                            x       y       z     vdW  Elec       q    Type
REMARK                         _______ _______ _______ _____ _____    ______ ____
ROOT
ATOM      1  C   UNL     1       2.674   5.196  18.318  0.00  0.00    +0.000 A 
ATOM      2  S   UNL     1       1.470   5.921  19.292  0.00  0.00    +0.000 S 
ATOM      3  C   UNL     1       2.034   7.501  18.844  0.00  0.00    +0.000 A 
ATOM      4  N   UNL     1       1.415   8.644  19.289  0.00  0.00    +0.000 N 
ATOM      5  N   UNL     1       3.082   7.472  18.044  0.00  0.00    +0.000 NA
ATOM      6  C   UNL     1       3.545   6.169  17.850  0.00  0.00    +0.000 A 
ENDROOT
BRANCH   1  11
ATOM      7  C   UNL     1       3.355   2.755  18.936  0.00  0.00    +0.000 A 
ATOM      8  C   UNL     1       3.001   1.537  18.385  0.00  0.00    +0.000 A 
ATOM      9  N   UNL     1       2.277   1.820  17.270  0.00  0.00    +0.000 N 
ATOM     10  N   UNL     1       2.137   3.135  17.041  0.00  0.00    +0.000 NA
ATOM     11  C   UNL     1       2.738   3.717  18.092  0.00  0.00    +0.000 A 
ATOM     12  H   UNL     1       1.851   1.171  16.616  0.00  0.00    +0.000 HD
BRANCH   7  13
ATOM     13  C   UNL     1       4.214   2.975  20.072  0.00  0.00    +0.000 C 
ATOM     14  O   UNL     1       5.366   3.390  19.975  0.00  0.00    +0.000 OA
BRANCH  13  15
ATOM     15  O   UNL     1       3.632   2.573  21.238  0.00  0.00    +0.000 OA
BRANCH  15  17
ATOM     16  C   UNL     1       1.333   2.444  21.805  0.00  0.00    +0.000 C 
ATOM     17  C   UNL     1       2.523   3.374  21.654  0.00  0.00    +0.000 C 
ENDBRANCH  15  17
ENDBRANCH  13  15
ENDBRANCH   7  13
ENDBRANCH   1  11
BRANCH   4  18
ATOM     18  C   UNL     1       1.061   8.860  20.641  0.00  0.00    +0.000 A 
ATOM     19  C   UNL     1      -0.273   8.705  21.065  0.00  0.00    +0.000 A 
ATOM     20  C   UNL     1      -0.657   8.931  22.389  0.00  0.00    +0.000 A 
ATOM     21  C   UNL     1       0.290   9.315  23.329  0.00  0.00    +0.000 A 
ATOM     22  C   UNL     1       1.616   9.475  22.942  0.00  0.00    +0.000 A 
ATOM     23  C   UNL     1       1.996   9.251  21.613  0.00  0.00    +0.000 A 
ENDBRANCH   4  18
BRANCH   6  24
ATOM     24  C   UNL     1       4.886   5.954  17.272  0.00  0.00    +0.000 A 
ATOM     25  C   UNL     1       5.082   5.387  16.000  0.00  0.00    +0.000 A 
ATOM     26  C   UNL     1       6.362   5.177  15.479  0.00  0.00    +0.000 A 
ATOM     27  C   UNL     1       7.479   5.455  16.255  0.00  0.00    +0.000 A 
ATOM     28  C   UNL     1       7.312   5.968  17.541  0.00  0.00    +0.000 A 
ATOM     29  C   UNL     1       6.028   6.229  18.039  0.00  0.00    +0.000 A 
ENDBRANCH   6  24
BRANCH   4  30
ATOM     30  C   UNL     1       1.238   9.747  18.331  0.00  0.00    +0.000 C 
BRANCH  30  31
ATOM     31  C   UNL     1      -0.156  10.351  18.264  0.00  0.00    +0.000 A 
ATOM     32  C   UNL     1      -0.442  11.624  18.778  0.00  0.00    +0.000 A 
ATOM     33  C   UNL     1      -1.681  12.230  18.555  0.00  0.00    +0.000 A 
ATOM     34  C   UNL     1      -2.659  11.570  17.818  0.00  0.00    +0.000 A 
ATOM     35  C   UNL     1      -2.406  10.294  17.321  0.00  0.00    +0.000 A 
ATOM     36  C   UNL     1      -1.166   9.689  17.540  0.00  0.00    +0.000 A 
ENDBRANCH  30  31
ENDBRANCH   4  30
TORSDOF 8
ENDMDL
MODEL 2
REMARK VINA RESULT:      -7.7      0.151      1.159
REMARK  Name = 
REMARK  9 active torsions:
REMARK  status: ('A' for Active; 'I' for Inactive)
REMARK    1  A    between atoms: C_1  and  C_2
REMARK    2  A    between atoms: C_2  and  O_3
REMARK    3  A    between atoms: O_3  and  C_4
REMARK    4  A    between atoms: C_4  and  C_6
REMARK    5  A    between atoms: C_10  and  C_11
REMARK    6  A    between atoms: N_14  and  C_15
REMARK    7  A    between atoms: N_14  and  C_22
REMARK    8  A    between atoms: C_15  and  C_16
REMARK    9  A    between atoms: C_29  and  C_30
REMARK                            x       y       z     vdW  Elec       q    Type
REMARK                         _______ _______ _______ _____ _____    ______ ____
ROOT
ATOM      1  C   UNL     1       2.673   5.242  18.309  0.00  0.00    +0.000 A 
ATOM      2  S   UNL     1       1.450   5.975  19.252  0.00  0.00    +0.000 S 
ATOM      3  C   UNL     1       2.041   7.551  18.827  0.00  0.00    +0.000 A 
ATOM      4  N   UNL     1       1.420   8.699  19.260  0.00  0.00    +0.000 N 
ATOM      5  N   UNL     1       3.110   7.515  18.056  0.00  0.00    +0.000 NA
ATOM      6  C   UNL     1       3.566   6.209  17.869  0.00  0.00    +0.000 A 
ENDROOT
BRANCH   1  11
ATOM      7  C   UNL     1       3.349   2.797  18.914  0.00  0.00    +0.000 A 
ATOM      8  C   UNL     1       2.986   1.582  18.362  0.00  0.00    +0.000 A 
ATOM      9  N   UNL     1       2.255   1.872  17.253  0.00  0.00    +0.000 N 
ATOM     10  N   UNL     1       2.119   3.188  17.030  0.00  0.00    +0.000 NA
ATOM     11  C   UNL     1       2.729   3.763  18.078  0.00  0.00    +0.000 A 
ATOM     12  H   UNL     1       1.821   1.226  16.600  0.00  0.00    +0.000 HD
BRANCH   7  13
ATOM     13  C   UNL     1       4.217   3.009  20.044  0.00  0.00    +0.000 C 
ATOM     14  O   UNL     1       5.369   3.422  19.940  0.00  0.00    +0.000 OA
BRANCH  13  15
ATOM     15  O   UNL     1       3.643   2.604  21.214  0.00  0.00    +0.000 OA
BRANCH  15  17
ATOM     16  C   UNL     1       1.312   2.592  21.648  0.00  0.00    +0.000 C 
ATOM     17  C   UNL     1       2.573   3.436  21.667  0.00  0.00    +0.000 C 
ENDBRANCH  15  17
ENDBRANCH  13  15
ENDBRANCH   7  13
ENDBRANCH   1  11
BRANCH   4  18
ATOM     18  C   UNL     1       1.032   8.912  20.602  0.00  0.00    +0.000 A 
ATOM     19  C   UNL     1       1.984   9.277  21.574  0.00  0.00    +0.000 A 
ATOM     20  C   UNL     1       1.635   9.474  22.912  0.00  0.00    +0.000 A 
ATOM     21  C   UNL     1       0.315   9.314  23.314  0.00  0.00    +0.000 A 
ATOM     22  C   UNL     1      -0.649   8.955  22.379  0.00  0.00    +0.000 A 
ATOM     23  C   UNL     1      -0.293   8.755  21.039  0.00  0.00    +0.000 A 
ENDBRANCH   4  18
BRANCH   6  24
ATOM     24  C   UNL     1       4.921   5.984  17.328  0.00  0.00    +0.000 A 
ATOM     25  C   UNL     1       5.147   5.516  16.020  0.00  0.00    +0.000 A 
ATOM     26  C   UNL     1       6.438   5.294  15.533  0.00  0.00    +0.000 A 
ATOM     27  C   UNL     1       7.532   5.457  16.373  0.00  0.00    +0.000 A 
ATOM     28  C   UNL     1       7.332   5.867  17.691  0.00  0.00    +0.000 A 
ATOM     29  C   UNL     1       6.039   6.142  18.158  0.00  0.00    +0.000 A 
ENDBRANCH   6  24
BRANCH   4  30
ATOM     30  C   UNL     1       1.281   9.807  18.302  0.00  0.00    +0.000 C 
BRANCH  30  31
ATOM     31  C   UNL     1      -0.106  10.423  18.198  0.00  0.00    +0.000 A 
ATOM     32  C   UNL     1      -1.178   9.748  17.596  0.00  0.00    +0.000 A 
ATOM     33  C   UNL     1      -2.478  10.256  17.664  0.00  0.00    +0.000 A 
ATOM     34  C   UNL     1      -2.728  11.452  18.329  0.00  0.00    +0.000 A 
ATOM     35  C   UNL     1      -1.674  12.152  18.911  0.00  0.00    +0.000 A 
ATOM     36  C   UNL     1      -0.374  11.642  18.847  0.00  0.00    +0.000 A 
ENDBRANCH  30  31
ENDBRANCH   4  30
TORSDOF 8
ENDMDL
MODEL 3
REMARK VINA RESULT:      -7.6      3.028      8.502
REMARK  Name = 
REMARK  9 active torsions:
REMARK  status: ('A' for Active; 'I' for Inactive)
REMARK    1  A    between atoms: C_1  and  C_2
REMARK    2  A    between atoms: C_2  and  O_3
REMARK    3  A    between atoms: O_3  and  C_4
REMARK    4  A    between atoms: C_4  and  C_6
REMARK    5  A    between atoms: C_10  and  C_11
REMARK    6  A    between atoms: N_14  and  C_15
REMARK    7  A    between atoms: N_14  and  C_22
REMARK    8  A    between atoms: C_15  and  C_16
REMARK    9  A    between atoms: C_29  and  C_30
REMARK                            x       y       z     vdW  Elec       q    Type
REMARK                         _______ _______ _______ _____ _____    ______ ____
ROOT
ATOM      1  C   UNL     1       0.736   9.030  20.432  0.00  0.00    +0.000 A 
ATOM      2  S   UNL     1       1.804   7.704  20.588  0.00  0.00    +0.000 S 
ATOM      3  C   UNL     1       2.172   7.778  18.893  0.00  0.00    +0.000 A 
ATOM      4  N   UNL     1       3.087   6.932  18.313  0.00  0.00    +0.000 N 
ATOM      5  N   UNL     1       1.502   8.717  18.256  0.00  0.00    +0.000 NA
ATOM      6  C   UNL     1       0.575   9.344  19.091  0.00  0.00    +0.000 A 
ENDROOT
BRANCH   1  11
ATOM      7  C   UNL     1      -0.019  11.061  21.883  0.00  0.00    +0.000 A 
ATOM      8  C   UNL     1      -0.852  11.142  22.985  0.00  0.00    +0.000 A 
ATOM      9  N   UNL     1      -1.148   9.862  23.332  0.00  0.00    +0.000 N 
ATOM     10  N   UNL     1      -0.565   8.944  22.545  0.00  0.00    +0.000 NA
ATOM     11  C   UNL     1       0.075   9.670  21.614  0.00  0.00    +0.000 A 
ATOM     12  H   UNL     1      -1.737   9.538  24.093  0.00  0.00    +0.000 HD
BRANCH   7  13
ATOM     13  C   UNL     1       0.644  12.153  21.217  0.00  0.00    +0.000 C 
ATOM     14  O   UNL     1       1.852  12.175  20.999  0.00  0.00    +0.000 OA
BRANCH  13  15
ATOM     15  O   UNL     1      -0.209  13.186  20.956  0.00  0.00    +0.000 OA
BRANCH  15  17
ATOM     16  C   UNL     1      -0.458  15.245  19.808  0.00  0.00    +0.000 C 
ATOM     17  C   UNL     1       0.434  14.444  20.738  0.00  0.00    +0.000 C 
ENDBRANCH  15  17
ENDBRANCH  13  15
ENDBRANCH   7  13
ENDBRANCH   1  11
BRANCH   4  18
ATOM     18  C   UNL     1       3.099   5.535  18.529  0.00  0.00    +0.000 A 
ATOM     19  C   UNL     1       2.214   4.695  17.826  0.00  0.00    +0.000 A 
ATOM     20  C   UNL     1       2.187   3.313  18.032  0.00  0.00    +0.000 A 
ATOM     21  C   UNL     1       3.053   2.733  18.950  0.00  0.00    +0.000 A 
ATOM     22  C   UNL     1       3.939   3.536  19.660  0.00  0.00    +0.000 A 
ATOM     23  C   UNL     1       3.960   4.920  19.451  0.00  0.00    +0.000 A 
ENDBRANCH   4  18
BRANCH   6  24
ATOM     24  C   UNL     1      -0.491  10.175  18.496  0.00  0.00    +0.000 A 
ATOM     25  C   UNL     1      -0.313  11.539  18.202  0.00  0.00    +0.000 A 
ATOM     26  C   UNL     1      -1.342  12.312  17.655  0.00  0.00    +0.000 A 
ATOM     27  C   UNL     1      -2.600  11.755  17.466  0.00  0.00    +0.000 A 
ATOM     28  C   UNL     1      -2.818  10.420  17.801  0.00  0.00    +0.000 A 
ATOM     29  C   UNL     1      -1.769   9.633  18.298  0.00  0.00    +0.000 A 
ENDBRANCH   6  24
BRANCH   4  30
ATOM     30  C   UNL     1       4.009   7.498  17.316  0.00  0.00    +0.000 C 
BRANCH  30  31
ATOM     31  C   UNL     1       5.190   6.620  16.930  0.00  0.00    +0.000 A 
ATOM     32  C   UNL     1       6.363   6.569  17.696  0.00  0.00    +0.000 A 
ATOM     33  C   UNL     1       7.362   5.632  17.421  0.00  0.00    +0.000 A 
ATOM     34  C   UNL     1       7.209   4.733  16.371  0.00  0.00    +0.000 A 
ATOM     35  C   UNL     1       6.063   4.783  15.580  0.00  0.00    +0.000 A 
ATOM     36  C   UNL     1       5.062   5.718  15.857  0.00  0.00    +0.000 A 
ENDBRANCH  30  31
ENDBRANCH   4  30
TORSDOF 8
ENDMDL
MODEL 4
REMARK VINA RESULT:      -7.6      0.090      1.150
REMARK  Name = 
REMARK  9 active torsions:
REMARK  status: ('A' for Active; 'I' for Inactive)
REMARK    1  A    between atoms: C_1  and  C_2
REMARK    2  A    between atoms: C_2  and  O_3
REMARK    3  A    between atoms: O_3  and  C_4
REMARK    4  A    between atoms: C_4  and  C_6
REMARK    5  A    between atoms: C_10  and  C_11
REMARK    6  A    between atoms: N_14  and  C_15
REMARK    7  A    between atoms: N_14  and  C_22
REMARK    8  A    between atoms: C_15  and  C_16
REMARK    9  A    between atoms: C_29  and  C_30
REMARK                            x       y       z     vdW  Elec       q    Type
REMARK                         _______ _______ _______ _____ _____    ______ ____
ROOT
ATOM      1  C   UNL     1       2.654   5.230  18.362  0.00  0.00    +0.000 A 
ATOM      2  S   UNL     1       1.437   5.965  19.312  0.00  0.00    +0.000 S 
ATOM      3  C   UNL     1       2.029   7.540  18.883  0.00  0.00    +0.000 A 
ATOM      4  N   UNL     1       1.412   8.688  19.320  0.00  0.00    +0.000 N 
ATOM      5  N   UNL     1       3.094   7.502  18.107  0.00  0.00    +0.000 NA
ATOM      6  C   UNL     1       3.546   6.195  17.918  0.00  0.00    +0.000 A 
ENDROOT
BRANCH   1  11
ATOM      7  C   UNL     1       3.333   2.784  18.961  0.00  0.00    +0.000 A 
ATOM      8  C   UNL     1       2.963   1.569  18.413  0.00  0.00    +0.000 A 
ATOM      9  N   UNL     1       2.222   1.860  17.311  0.00  0.00    +0.000 N 
ATOM     10  N   UNL     1       2.085   3.176  17.089  0.00  0.00    +0.000 NA
ATOM     11  C   UNL     1       2.706   3.751  18.131  0.00  0.00    +0.000 A 
ATOM     12  H   UNL     1       1.782   1.214  16.662  0.00  0.00    +0.000 HD
BRANCH   7  13
ATOM     13  C   UNL     1       4.212   2.996  20.083  0.00  0.00    +0.000 C 
ATOM     14  O   UNL     1       5.368   3.395  19.967  0.00  0.00    +0.000 OA
BRANCH  13  15
ATOM     15  O   UNL     1       3.643   2.605  21.260  0.00  0.00    +0.000 OA
BRANCH  15  17
ATOM     16  C   UNL     1       1.348   2.471  21.838  0.00  0.00    +0.000 C 
ATOM     17  C   UNL     1       2.533   3.404  21.674  0.00  0.00    +0.000 C 
ENDBRANCH  15  17
ENDBRANCH  13  15
ENDBRANCH   7  13
ENDBRANCH   1  11
BRANCH   4  18
ATOM     18  C   UNL     1       1.031   8.902  20.664  0.00  0.00    +0.000 A 
ATOM     19  C   UNL     1       1.999   9.189  21.646  0.00  0.00    +0.000 A 
ATOM     20  C   UNL     1       1.656   9.384  22.986  0.00  0.00    +0.000 A 
ATOM     21  C   UNL     1       0.327   9.301  23.380  0.00  0.00    +0.000 A 
ATOM     22  C   UNL     1      -0.653   9.020  22.434  0.00  0.00    +0.000 A 
ATOM     23  C   UNL     1      -0.304   8.822  21.093  0.00  0.00    +0.000 A 
ENDBRANCH   4  18
BRANCH   6  24
ATOM     24  C   UNL     1       4.898   5.968  17.370  0.00  0.00    +0.000 A 
ATOM     25  C   UNL     1       6.068   6.300  18.076  0.00  0.00    +0.000 A 
ATOM     26  C   UNL     1       7.339   6.092  17.531  0.00  0.00    +0.000 A 
ATOM     27  C   UNL     1       7.465   5.622  16.230  0.00  0.00    +0.000 A 
ATOM     28  C   UNL     1       6.320   5.337  15.488  0.00  0.00    +0.000 A 
ATOM     29  C   UNL     1       5.048   5.495  16.058  0.00  0.00    +0.000 A 
ENDBRANCH   6  24
BRANCH   4  30
ATOM     30  C   UNL     1       1.270   9.797  18.363  0.00  0.00    +0.000 C 
BRANCH  30  31
ATOM     31  C   UNL     1      -0.126  10.388  18.236  0.00  0.00    +0.000 A 
ATOM     32  C   UNL     1      -0.433  11.678  18.693  0.00  0.00    +0.000 A 
ATOM     33  C   UNL     1      -1.669  12.266  18.413  0.00  0.00    +0.000 A 
ATOM     34  C   UNL     1      -2.623  11.572  17.675  0.00  0.00    +0.000 A 
ATOM     35  C   UNL     1      -2.349  10.279  17.234  0.00  0.00    +0.000 A 
ATOM     36  C   UNL     1      -1.111   9.692  17.510  0.00  0.00    +0.000 A 
ENDBRANCH  30  31
ENDBRANCH   4  30
TORSDOF 8
ENDMDL
MODEL 5
REMARK VINA RESULT:      -7.5      2.786      8.440
REMARK  Name = 
REMARK  9 active torsions:
REMARK  status: ('A' for Active; 'I' for Inactive)
REMARK    1  A    between atoms: C_1  and  C_2
REMARK    2  A    between atoms: C_2  and  O_3
REMARK    3  A    between atoms: O_3  and  C_4
REMARK    4  A    between atoms: C_4  and  C_6
REMARK    5  A    between atoms: C_10  and  C_11
REMARK    6  A    between atoms: N_14  and  C_15
REMARK    7  A    between atoms: N_14  and  C_22
REMARK    8  A    between atoms: C_15  and  C_16
REMARK    9  A    between atoms: C_29  and  C_30
REMARK                            x       y       z     vdW  Elec       q    Type
REMARK                         _______ _______ _______ _____ _____    ______ ____
ROOT
ATOM      1  C   UNL     1       1.756   9.326  18.681  0.00  0.00    +0.000 A 
ATOM      2  S   UNL     1       2.753   8.569  17.516  0.00  0.00    +0.000 S 
ATOM      3  C   UNL     1       2.527   7.034  18.296  0.00  0.00    +0.000 A 
ATOM      4  N   UNL     1       3.078   5.878  17.794  0.00  0.00    +0.000 N 
ATOM      5  N   UNL     1       1.780   7.106  19.380  0.00  0.00    +0.000 NA
ATOM      6  C   UNL     1       1.452   8.426  19.692  0.00  0.00    +0.000 A 
ENDROOT
BRANCH   1  11
ATOM      7  C   UNL     1       0.037  11.271  18.423  0.00  0.00    +0.000 A 
ATOM      8  C   UNL     1       0.178  12.642  18.545  0.00  0.00    +0.000 A 
ATOM      9  N   UNL     1       1.508  12.874  18.702  0.00  0.00    +0.000 N 
ATOM     10  N   UNL     1       2.254  11.759  18.682  0.00  0.00    +0.000 NA
ATOM     11  C   UNL     1       1.356  10.766  18.578  0.00  0.00    +0.000 A 
ATOM     12  H   UNL     1       1.979  13.766  18.824  0.00  0.00    +0.000 HD
BRANCH   7  13
ATOM     13  C   UNL     1      -1.175  10.547  18.135  0.00  0.00    +0.000 C 
ATOM     14  O   UNL     1      -1.234   9.630  17.321  0.00  0.00    +0.000 OA
BRANCH  13  15
ATOM     15  O   UNL     1      -2.250  11.069  18.794  0.00  0.00    +0.000 OA
BRANCH  15  17
ATOM     16  C   UNL     1      -4.471  11.895  18.851  0.00  0.00    +0.000 C 
ATOM     17  C   UNL     1      -3.335  11.452  17.947  0.00  0.00    +0.000 C 
ENDBRANCH  15  17
ENDBRANCH  13  15
ENDBRANCH   7  13
ENDBRANCH   1  11
BRANCH   4  18
ATOM     18  C   UNL     1       4.427   5.776  17.386  0.00  0.00    +0.000 A 
ATOM     19  C   UNL     1       5.471   6.051  18.289  0.00  0.00    +0.000 A 
ATOM     20  C   UNL     1       6.814   5.979  17.910  0.00  0.00    +0.000 A 
ATOM     21  C   UNL     1       7.148   5.622  16.610  0.00  0.00    +0.000 A 
ATOM     22  C   UNL     1       6.140   5.343  15.694  0.00  0.00    +0.000 A 
ATOM     23  C   UNL     1       4.795   5.420  16.078  0.00  0.00    +0.000 A 
ENDBRANCH   4  18
BRANCH   6  24
ATOM     24  C   UNL     1       0.917   8.744  21.030  0.00  0.00    +0.000 A 
ATOM     25  C   UNL     1      -0.460   8.879  21.284  0.00  0.00    +0.000 A 
ATOM     26  C   UNL     1      -0.944   9.197  22.557  0.00  0.00    +0.000 A 
ATOM     27  C   UNL     1      -0.055   9.468  23.587  0.00  0.00    +0.000 A 
ATOM     28  C   UNL     1       1.317   9.395  23.349  0.00  0.00    +0.000 A 
ATOM     29  C   UNL     1       1.798   9.021  22.086  0.00  0.00    +0.000 A 
ENDBRANCH   6  24
BRANCH   4  30
ATOM     30  C   UNL     1       2.252   4.660  17.813  0.00  0.00    +0.000 C 
BRANCH  30  31
ATOM     31  C   UNL     1       2.325   3.830  19.085  0.00  0.00    +0.000 A 
ATOM     32  C   UNL     1       3.514   3.221  19.512  0.00  0.00    +0.000 A 
ATOM     33  C   UNL     1       3.602   2.611  20.765  0.00  0.00    +0.000 A 
ATOM     34  C   UNL     1       2.499   2.592  21.613  0.00  0.00    +0.000 A 
ATOM     35  C   UNL     1       1.300   3.167  21.199  0.00  0.00    +0.000 A 
ATOM     36  C   UNL     1       1.213   3.782  19.947  0.00  0.00    +0.000 A 
ENDBRANCH  30  31
ENDBRANCH   4  30
TORSDOF 8
ENDMDL
MODEL 6
REMARK VINA RESULT:      -7.5      2.927      8.485
REMARK  Name = 
REMARK  9 active torsions:
REMARK  status: ('A' for Active; 'I' for Inactive)
REMARK    1  A    between atoms: C_1  and  C_2
REMARK    2  A    between atoms: C_2  and  O_3
REMARK    3  A    between atoms: O_3  and  C_4
REMARK    4  A    between atoms: C_4  and  C_6
REMARK    5  A    between atoms: C_10  and  C_11
REMARK    6  A    between atoms: N_14  and  C_15
REMARK    7  A    between atoms: N_14  and  C_22
REMARK    8  A    between atoms: C_15  and  C_16
REMARK    9  A    between atoms: C_29  and  C_30
REMARK                            x       y       z     vdW  Elec       q    Type
REMARK                         _______ _______ _______ _____ _____    ______ ____
ROOT
ATOM      1  C   UNL     1       1.619   9.702  18.600  0.00  0.00    +0.000 A 
ATOM      2  S   UNL     1       2.706   8.872  17.574  0.00  0.00    +0.000 S 
ATOM      3  C   UNL     1       2.427   7.396  18.445  0.00  0.00    +0.000 A 
ATOM      4  N   UNL     1       3.021   6.213  18.073  0.00  0.00    +0.000 N 
ATOM      5  N   UNL     1       1.599   7.539  19.460  0.00  0.00    +0.000 NA
ATOM      6  C   UNL     1       1.241   8.875  19.647  0.00  0.00    +0.000 A 
ENDROOT
BRANCH   1  11
ATOM      7  C   UNL     1      -0.103  11.631  18.255  0.00  0.00    +0.000 A 
ATOM      8  C   UNL     1       0.058  13.005  18.202  0.00  0.00    +0.000 A 
ATOM      9  N   UNL     1       1.397  13.232  18.221  0.00  0.00    +0.000 N 
ATOM     10  N   UNL     1       2.131  12.110  18.272  0.00  0.00    +0.000 NA
ATOM     11  C   UNL     1       1.221  11.126  18.360  0.00  0.00    +0.000 A 
ATOM     12  H   UNL     1       1.883  14.124  18.198  0.00  0.00    +0.000 HD
BRANCH   7  13
ATOM     13  C   UNL     1      -1.339  10.899  18.156  0.00  0.00    +0.000 C 
ATOM     14  O   UNL     1      -2.122  10.770  19.093  0.00  0.00    +0.000 OA
BRANCH  13  15
ATOM     15  O   UNL     1      -1.478  10.293  16.941  0.00  0.00    +0.000 OA
BRANCH  15  17
ATOM     16  C   UNL     1      -2.889   9.974  15.063  0.00  0.00    +0.000 C 
ATOM     17  C   UNL     1      -2.828   9.994  16.579  0.00  0.00    +0.000 C 
ENDBRANCH  15  17
ENDBRANCH  13  15
ENDBRANCH   7  13
ENDBRANCH   1  11
BRANCH   4  18
ATOM     18  C   UNL     1       4.398   6.094  17.779  0.00  0.00    +0.000 A 
ATOM     19  C   UNL     1       4.843   6.047  16.443  0.00  0.00    +0.000 A 
ATOM     20  C   UNL     1       6.195   5.909  16.120  0.00  0.00    +0.000 A 
ATOM     21  C   UNL     1       7.143   5.819  17.131  0.00  0.00    +0.000 A 
ATOM     22  C   UNL     1       6.736   5.863  18.460  0.00  0.00    +0.000 A 
ATOM     23  C   UNL     1       5.379   5.998  18.779  0.00  0.00    +0.000 A 
ENDBRANCH   4  18
BRANCH   6  24
ATOM     24  C   UNL     1       0.602   9.284  20.914  0.00  0.00    +0.000 A 
ATOM     25  C   UNL     1      -0.096   8.382  21.737  0.00  0.00    +0.000 A 
ATOM     26  C   UNL     1      -0.708   8.794  22.924  0.00  0.00    +0.000 A 
ATOM     27  C   UNL     1      -0.705  10.138  23.274  0.00  0.00    +0.000 A 
ATOM     28  C   UNL     1      -0.067  11.062  22.447  0.00  0.00    +0.000 A 
ATOM     29  C   UNL     1       0.593  10.636  21.286  0.00  0.00    +0.000 A 
ENDBRANCH   6  24
BRANCH   4  30
ATOM     30  C   UNL     1       2.202   4.991  18.119  0.00  0.00    +0.000 C 
BRANCH  30  31
ATOM     31  C   UNL     1       2.300   4.174  19.398  0.00  0.00    +0.000 A 
ATOM     32  C   UNL     1       1.260   4.134  20.338  0.00  0.00    +0.000 A 
ATOM     33  C   UNL     1       1.297   3.247  21.416  0.00  0.00    +0.000 A 
ATOM     34  C   UNL     1       2.379   2.387  21.578  0.00  0.00    +0.000 A 
ATOM     35  C   UNL     1       3.436   2.429  20.672  0.00  0.00    +0.000 A 
ATOM     36  C   UNL     1       3.397   3.313  19.590  0.00  0.00    +0.000 A 
ENDBRANCH  30  31
ENDBRANCH   4  30
TORSDOF 8
ENDMDL
MODEL 7
REMARK VINA RESULT:      -7.5      2.203      4.667
REMARK  Name = 
REMARK  9 active torsions:
REMARK  status: ('A' for Active; 'I' for Inactive)
REMARK    1  A    between atoms: C_1  and  C_2
REMARK    2  A    between atoms: C_2  and  O_3
REMARK    3  A    between atoms: O_3  and  C_4
REMARK    4  A    between atoms: C_4  and  C_6
REMARK    5  A    between atoms: C_10  and  C_11
REMARK    6  A    between atoms: N_14  and  C_15
REMARK    7  A    between atoms: N_14  and  C_22
REMARK    8  A    between atoms: C_15  and  C_16
REMARK    9  A    between atoms: C_29  and  C_30
REMARK                            x       y       z     vdW  Elec       q    Type
REMARK                         _______ _______ _______ _____ _____    ______ ____
ROOT
ATOM      1  C   UNL     1       2.831   6.756  18.785  0.00  0.00    +0.000 A 
ATOM      2  S   UNL     1       2.319   8.322  18.328  0.00  0.00    +0.000 S 
ATOM      3  C   UNL     1       1.485   8.509  19.839  0.00  0.00    +0.000 A 
ATOM      4  N   UNL     1       0.831   9.674  20.165  0.00  0.00    +0.000 N 
ATOM      5  N   UNL     1       1.563   7.444  20.612  0.00  0.00    +0.000 NA
ATOM      6  C   UNL     1       2.205   6.386  19.967  0.00  0.00    +0.000 A 
ENDROOT
BRANCH   1  11
ATOM      7  C   UNL     1       3.459   4.820  17.153  0.00  0.00    +0.000 A 
ATOM      8  C   UNL     1       4.627   4.541  16.468  0.00  0.00    +0.000 A 
ATOM      9  N   UNL     1       5.551   5.434  16.913  0.00  0.00    +0.000 N 
ATOM     10  N   UNL     1       5.079   6.273  17.848  0.00  0.00    +0.000 NA
ATOM     11  C   UNL     1       3.780   5.948  17.954  0.00  0.00    +0.000 A 
ATOM     12  H   UNL     1       6.521   5.527  16.628  0.00  0.00    +0.000 HD
BRANCH   7  13
ATOM     13  C   UNL     1       2.225   4.077  17.100  0.00  0.00    +0.000 C 
ATOM     14  O   UNL     1       1.127   4.580  17.320  0.00  0.00    +0.000 OA
BRANCH  13  15
ATOM     15  O   UNL     1       2.439   2.747  16.880  0.00  0.00    +0.000 OA
BRANCH  15  17
ATOM     16  C   UNL     1       3.718   1.381  18.336  0.00  0.00    +0.000 C 
ATOM     17  C   UNL     1       2.332   1.929  18.047  0.00  0.00    +0.000 C 
ENDBRANCH  15  17
ENDBRANCH  13  15
ENDBRANCH   7  13
ENDBRANCH   1  11
BRANCH   4  18
ATOM     18  C   UNL     1      -0.053  10.340  19.286  0.00  0.00    +0.000 A 
ATOM     19  C   UNL     1      -1.247   9.721  18.868  0.00  0.00    +0.000 A 
ATOM     20  C   UNL     1      -2.131  10.345  17.984  0.00  0.00    +0.000 A 
ATOM     21  C   UNL     1      -1.843  11.613  17.496  0.00  0.00    +0.000 A 
ATOM     22  C   UNL     1      -0.672  12.251  17.891  0.00  0.00    +0.000 A 
ATOM     23  C   UNL     1       0.212  11.620  18.775  0.00  0.00    +0.000 A 
ENDBRANCH   4  18
BRANCH   6  24
ATOM     24  C   UNL     1       2.097   5.024  20.524  0.00  0.00    +0.000 A 
ATOM     25  C   UNL     1       3.214   4.297  20.973  0.00  0.00    +0.000 A 
ATOM     26  C   UNL     1       3.090   3.000  21.482  0.00  0.00    +0.000 A 
ATOM     27  C   UNL     1       1.853   2.371  21.477  0.00  0.00    +0.000 A 
ATOM     28  C   UNL     1       0.738   3.049  20.987  0.00  0.00    +0.000 A 
ATOM     29  C   UNL     1       0.857   4.369  20.529  0.00  0.00    +0.000 A 
ENDBRANCH   6  24
BRANCH   4  30
ATOM     30  C   UNL     1       0.959  10.169  21.545  0.00  0.00    +0.000 C 
BRANCH  30  31
ATOM     31  C   UNL     1      -0.125  11.130  22.008  0.00  0.00    +0.000 A 
ATOM     32  C   UNL     1      -1.241  10.699  22.739  0.00  0.00    +0.000 A 
ATOM     33  C   UNL     1      -2.132  11.616  23.301  0.00  0.00    +0.000 A 
ATOM     34  C   UNL     1      -1.927  12.982  23.137  0.00  0.00    +0.000 A 
ATOM     35  C   UNL     1      -0.839  13.432  22.392  0.00  0.00    +0.000 A 
ATOM     36  C   UNL     1       0.055  12.515  21.833  0.00  0.00    +0.000 A 
ENDBRANCH  30  31
ENDBRANCH   4  30
TORSDOF 8
ENDMDL
MODEL 8
REMARK VINA RESULT:      -7.4      2.779      8.427
REMARK  Name = 
REMARK  9 active torsions:
REMARK  status: ('A' for Active; 'I' for Inactive)
REMARK    1  A    between atoms: C_1  and  C_2
REMARK    2  A    between atoms: C_2  and  O_3
REMARK    3  A    between atoms: O_3  and  C_4
REMARK    4  A    between atoms: C_4  and  C_6
REMARK    5  A    between atoms: C_10  and  C_11
REMARK    6  A    between atoms: N_14  and  C_15
REMARK    7  A    between atoms: N_14  and  C_22
REMARK    8  A    between atoms: C_15  and  C_16
REMARK    9  A    between atoms: C_29  and  C_30
REMARK                            x       y       z     vdW  Elec       q    Type
REMARK                         _______ _______ _______ _____ _____    ______ ____
ROOT
ATOM      1  C   UNL     1       1.700   9.369  18.639  0.00  0.00    +0.000 A 
ATOM      2  S   UNL     1       2.626   8.573  17.442  0.00  0.00    +0.000 S 
ATOM      3  C   UNL     1       2.459   7.067  18.290  0.00  0.00    +0.000 A 
ATOM      4  N   UNL     1       2.985   5.896  17.796  0.00  0.00    +0.000 N 
ATOM      5  N   UNL     1       1.781   7.175  19.415  0.00  0.00    +0.000 NA
ATOM      6  C   UNL     1       1.465   8.505  19.699  0.00  0.00    +0.000 A 
ENDROOT
BRANCH   1  11
ATOM      7  C   UNL     1      -0.045  11.296  18.426  0.00  0.00    +0.000 A 
ATOM      8  C   UNL     1       0.095  12.671  18.486  0.00  0.00    +0.000 A 
ATOM      9  N   UNL     1       1.432  12.914  18.541  0.00  0.00    +0.000 N 
ATOM     10  N   UNL     1       2.181  11.801  18.513  0.00  0.00    +0.000 NA
ATOM     11  C   UNL     1       1.284  10.802  18.509  0.00  0.00    +0.000 A 
ATOM     12  H   UNL     1       1.905  13.811  18.597  0.00  0.00    +0.000 HD
BRANCH   7  13
ATOM     13  C   UNL     1      -1.270  10.557  18.250  0.00  0.00    +0.000 C 
ATOM     14  O   UNL     1      -2.097  10.404  19.145  0.00  0.00    +0.000 OA
BRANCH  13  15
ATOM     15  O   UNL     1      -1.343   9.975  17.019  0.00  0.00    +0.000 OA
BRANCH  15  17
ATOM     16  C   UNL     1      -2.794  10.385  15.190  0.00  0.00    +0.000 C 
ATOM     17  C   UNL     1      -2.674   9.735  16.555  0.00  0.00    +0.000 C 
ENDBRANCH  15  17
ENDBRANCH  13  15
ENDBRANCH   7  13
ENDBRANCH   1  11
BRANCH   4  18
ATOM     18  C   UNL     1       4.307   5.784  17.308  0.00  0.00    +0.000 A 
ATOM     19  C   UNL     1       5.308   6.674  17.743  0.00  0.00    +0.000 A 
ATOM     20  C   UNL     1       6.619   6.603  17.263  0.00  0.00    +0.000 A 
ATOM     21  C   UNL     1       6.964   5.629  16.334  0.00  0.00    +0.000 A 
ATOM     22  C   UNL     1       5.998   4.734  15.887  0.00  0.00    +0.000 A 
ATOM     23  C   UNL     1       4.685   4.813  16.368  0.00  0.00    +0.000 A 
ENDBRANCH   4  18
BRANCH   6  24
ATOM     24  C   UNL     1       1.012   8.869  21.056  0.00  0.00    +0.000 A 
ATOM     25  C   UNL     1       1.905   9.064  22.126  0.00  0.00    +0.000 A 
ATOM     26  C   UNL     1       1.453   9.392  23.407  0.00  0.00    +0.000 A 
ATOM     27  C   UNL     1       0.091   9.451  23.667  0.00  0.00    +0.000 A 
ATOM     28  C   UNL     1      -0.817   9.208  22.637  0.00  0.00    +0.000 A 
ATOM     29  C   UNL     1      -0.359   8.934  21.340  0.00  0.00    +0.000 A 
ENDBRANCH   6  24
BRANCH   4  30
ATOM     30  C   UNL     1       2.171   4.676  17.911  0.00  0.00    +0.000 C 
BRANCH  30  31
ATOM     31  C   UNL     1       2.226   3.966  19.255  0.00  0.00    +0.000 A 
ATOM     32  C   UNL     1       1.082   3.767  20.041  0.00  0.00    +0.000 A 
ATOM     33  C   UNL     1       1.124   2.965  21.184  0.00  0.00    +0.000 A 
ATOM     34  C   UNL     1       2.313   2.352  21.566  0.00  0.00    +0.000 A 
ATOM     35  C   UNL     1       3.468   2.558  20.815  0.00  0.00    +0.000 A 
ATOM     36  C   UNL     1       3.426   3.357  19.669  0.00  0.00    +0.000 A 
ENDBRANCH  30  31
ENDBRANCH   4  30
TORSDOF 8
ENDMDL
MODEL 9
REMARK VINA RESULT:      -7.4      3.126      8.508
REMARK  Name = 
REMARK  9 active torsions:
REMARK  status: ('A' for Active; 'I' for Inactive)
REMARK    1  A    between atoms: C_1  and  C_2
REMARK    2  A    between atoms: C_2  and  O_3
REMARK    3  A    between atoms: O_3  and  C_4
REMARK    4  A    between atoms: C_4  and  C_6
REMARK    5  A    between atoms: C_10  and  C_11
REMARK    6  A    between atoms: N_14  and  C_15
REMARK    7  A    between atoms: N_14  and  C_22
REMARK    8  A    between atoms: C_15  and  C_16
REMARK    9  A    between atoms: C_29  and  C_30
REMARK                            x       y       z     vdW  Elec       q    Type
REMARK                         _______ _______ _______ _____ _____    ______ ____
ROOT
ATOM      1  C   UNL     1       0.695   9.047  20.461  0.00  0.00    +0.000 A 
ATOM      2  S   UNL     1       1.761   7.719  20.615  0.00  0.00    +0.000 S 
ATOM      3  C   UNL     1       2.132   7.798  18.921  0.00  0.00    +0.000 A 
ATOM      4  N   UNL     1       3.047   6.952  18.340  0.00  0.00    +0.000 N 
ATOM      5  N   UNL     1       1.464   8.740  18.285  0.00  0.00    +0.000 NA
ATOM      6  C   UNL     1       0.537   9.366  19.120  0.00  0.00    +0.000 A 
ENDROOT
BRANCH   1  11
ATOM      7  C   UNL     1      -0.020  11.073  21.940  0.00  0.00    +0.000 A 
ATOM      8  C   UNL     1      -0.870  11.159  23.028  0.00  0.00    +0.000 A 
ATOM      9  N   UNL     1      -1.215   9.882  23.343  0.00  0.00    +0.000 N 
ATOM     10  N   UNL     1      -0.647   8.962  22.548  0.00  0.00    +0.000 NA
ATOM     11  C   UNL     1       0.034   9.685  21.644  0.00  0.00    +0.000 A 
ATOM     12  H   UNL     1      -1.829   9.563  24.087  0.00  0.00    +0.000 HD
BRANCH   7  13
ATOM     13  C   UNL     1       0.691  12.155  21.309  0.00  0.00    +0.000 C 
ATOM     14  O   UNL     1       1.872  12.084  20.981  0.00  0.00    +0.000 OA
BRANCH  13  15
ATOM     15  O   UNL     1      -0.072  13.283  21.217  0.00  0.00    +0.000 OA
BRANCH  15  17
ATOM     16  C   UNL     1      -0.569  14.906  22.872  0.00  0.00    +0.000 C 
ATOM     17  C   UNL     1       0.475  14.424  21.881  0.00  0.00    +0.000 C 
ENDBRANCH  15  17
ENDBRANCH  13  15
ENDBRANCH   7  13
ENDBRANCH   1  11
BRANCH   4  18
ATOM     18  C   UNL     1       3.055   5.554  18.551  0.00  0.00    +0.000 A 
ATOM     19  C   UNL     1       2.160   4.719  17.855  0.00  0.00    +0.000 A 
ATOM     20  C   UNL     1       2.130   3.337  18.058  0.00  0.00    +0.000 A 
ATOM     21  C   UNL     1       3.004   2.751  18.965  0.00  0.00    +0.000 A 
ATOM     22  C   UNL     1       3.901   3.549  19.668  0.00  0.00    +0.000 A 
ATOM     23  C   UNL     1       3.924   4.934  19.463  0.00  0.00    +0.000 A 
ENDBRANCH   4  18
BRANCH   6  24
ATOM     24  C   UNL     1      -0.526  10.201  18.527  0.00  0.00    +0.000 A 
ATOM     25  C   UNL     1      -0.371  11.581  18.303  0.00  0.00    +0.000 A 
ATOM     26  C   UNL     1      -1.397  12.356  17.756  0.00  0.00    +0.000 A 
ATOM     27  C   UNL     1      -2.634  11.781  17.494  0.00  0.00    +0.000 A 
ATOM     28  C   UNL     1      -2.832  10.426  17.758  0.00  0.00    +0.000 A 
ATOM     29  C   UNL     1      -1.783   9.641  18.256  0.00  0.00    +0.000 A 
ENDBRANCH   6  24
BRANCH   4  30
ATOM     30  C   UNL     1       3.971   7.520  17.346  0.00  0.00    +0.000 C 
BRANCH  30  31
ATOM     31  C   UNL     1       5.080   6.595  16.867  0.00  0.00    +0.000 A 
ATOM     32  C   UNL     1       4.970   5.850  15.684  0.00  0.00    +0.000 A 
ATOM     33  C   UNL     1       6.062   5.143  15.174  0.00  0.00    +0.000 A 
ATOM     34  C   UNL     1       7.283   5.165  15.840  0.00  0.00    +0.000 A 
ATOM     35  C   UNL     1       7.407   5.877  17.031  0.00  0.00    +0.000 A 
ATOM     36  C   UNL     1       6.316   6.587  17.540  0.00  0.00    +0.000 A 
ENDBRANCH  30  31
ENDBRANCH   4  30
TORSDOF 8
ENDMDL
