MODEL 1
REMARK VINA RESULT:      -7.9      0.000      0.000
REMARK  Name = 
REMARK  4 active torsions:
REMARK  status: ('A' for Active; 'I' for Inactive)
REMARK    1  A    between atoms: C_1  and  C_2
REMARK    2  A    between atoms: C_5  and  C_6
REMARK    3  A    between atoms: C_6  and  N_7
REMARK    4  A    between atoms: N_7  and  C_8
REMARK                            x       y       z     vdW  Elec       q    Type
REMARK                         _______ _______ _______ _____ _____    ______ ____
ROOT
ATOM      1  C   UNL     1       5.296   5.536  17.214  0.00  0.00    +0.000 C 
ATOM      2  C   UNL     1       5.465   5.360  15.676  0.00  0.00    +0.000 C 
ATOM      3  C   UNL     1       5.394   4.409  14.487  0.00  0.00    +0.000 C 
ATOM      4  C   UNL     1       6.797   4.599  13.852  0.00  0.00    +0.000 C 
ATOM      5  O   UNL     1       7.694   4.654  14.976  0.00  0.00    +0.000 OA
ATOM      6  C   UNL     1       6.859   4.732  16.142  0.00  0.00    +0.000 C 
ATOM      7  C   UNL     1       6.895   5.850  17.193  0.00  0.00    +0.000 C 
ATOM      8  C   UNL     1       7.529   7.131  16.612  0.00  0.00    +0.000 C 
ATOM      9  C   UNL     1       7.755   8.004  17.825  0.00  0.00    +0.000 C 
ATOM     10  C   UNL     1       8.239   7.016  18.875  0.00  0.00    +0.000 C 
ATOM     11  C   UNL     1       7.512   5.689  18.588  0.00  0.00    +0.000 C 
ENDROOT
BRANCH   1  12
ATOM     12  N   UNL     1       4.701   6.795  17.632  0.00  0.00    +0.000 NA
ATOM     13  H   UNL     1       5.020   7.074  18.563  0.00  0.00    +0.000 HD
BRANCH  12  14
ATOM     14  C   UNL     1       3.244   6.826  17.626  0.00  0.00    +0.000 C 
BRANCH  14  19
ATOM     15  C   UNL     1       1.177   2.777  21.172  0.00  0.00    +0.000 C 
ATOM     16  C   UNL     1       1.730   3.785  20.210  0.00  0.00    +0.000 A 
ATOM     17  C   UNL     1       1.471   3.683  18.848  0.00  0.00    +0.000 A 
ATOM     18  C   UNL     1       1.996   4.652  17.999  0.00  0.00    +0.000 A 
ATOM     19  C   UNL     1       2.751   5.714  18.517  0.00  0.00    +0.000 A 
ATOM     20  C   UNL     1       2.969   5.719  19.888  0.00  0.00    +0.000 A 
ATOM     21  N   UNL     1       2.479   4.783  20.734  0.00  0.00    +0.000 NA
ENDBRANCH  14  19
ENDBRANCH  12  14
ENDBRANCH   1  12
TORSDOF 3
ENDMDL
MODEL 2
REMARK VINA RESULT:      -7.8      0.625      1.076
REMARK  Name = 
REMARK  4 active torsions:
REMARK  status: ('A' for Active; 'I' for Inactive)
REMARK    1  A    between atoms: C_1  and  C_2
REMARK    2  A    between atoms: C_5  and  C_6
REMARK    3  A    between atoms: C_6  and  N_7
REMARK    4  A    between atoms: N_7  and  C_8
REMARK                            x       y       z     vdW  Elec       q    Type
REMARK                         _______ _______ _______ _____ _____    ______ ____
ROOT
ATOM      1  C   UNL     1       5.336   5.567  17.260  0.00  0.00    +0.000 C 
ATOM      2  C   UNL     1       5.500   5.393  15.721  0.00  0.00    +0.000 C 
ATOM      3  C   UNL     1       5.435   4.440  14.534  0.00  0.00    +0.000 C 
ATOM      4  C   UNL     1       6.832   4.648  13.891  0.00  0.00    +0.000 C 
ATOM      5  O   UNL     1       7.734   4.717  15.009  0.00  0.00    +0.000 OA
ATOM      6  C   UNL     1       6.905   4.784  16.180  0.00  0.00    +0.000 C 
ATOM      7  C   UNL     1       6.931   5.903  17.231  0.00  0.00    +0.000 C 
ATOM      8  C   UNL     1       7.543   7.192  16.644  0.00  0.00    +0.000 C 
ATOM      9  C   UNL     1       7.764   8.070  17.855  0.00  0.00    +0.000 C 
ATOM     10  C   UNL     1       8.267   7.089  18.904  0.00  0.00    +0.000 C 
ATOM     11  C   UNL     1       7.558   5.752  18.622  0.00  0.00    +0.000 C 
ENDROOT
BRANCH   1  12
ATOM     12  N   UNL     1       4.726   6.818  17.681  0.00  0.00    +0.000 NA
ATOM     13  H   UNL     1       4.946   7.037  18.655  0.00  0.00    +0.000 HD
BRANCH  12  14
ATOM     14  C   UNL     1       3.280   6.890  17.516  0.00  0.00    +0.000 C 
BRANCH  14  19
ATOM     15  C   UNL     1       1.089   2.854  21.002  0.00  0.00    +0.000 C 
ATOM     16  C   UNL     1       1.634   3.947  20.133  0.00  0.00    +0.000 A 
ATOM     17  C   UNL     1       2.234   5.068  20.695  0.00  0.00    +0.000 A 
ATOM     18  C   UNL     1       2.738   6.047  19.844  0.00  0.00    +0.000 A 
ATOM     19  C   UNL     1       2.654   5.889  18.453  0.00  0.00    +0.000 A 
ATOM     20  C   UNL     1       2.022   4.743  17.990  0.00  0.00    +0.000 A 
ATOM     21  N   UNL     1       1.514   3.781  18.795  0.00  0.00    +0.000 NA
ENDBRANCH  14  19
ENDBRANCH  12  14
ENDBRANCH   1  12
TORSDOF 3
ENDMDL
MODEL 3
REMARK VINA RESULT:      -7.5      3.158      5.254
REMARK  Name = 
REMARK  4 active torsions:
REMARK  status: ('A' for Active; 'I' for Inactive)
REMARK    1  A    between atoms: C_1  and  C_2
REMARK    2  A    between atoms: C_5  and  C_6
REMARK    3  A    between atoms: C_6  and  N_7
REMARK    4  A    between atoms: N_7  and  C_8
REMARK                            x       y       z     vdW  Elec       q    Type
REMARK                         _______ _______ _______ _____ _____    ______ ____
ROOT
ATOM      1  C   UNL     1       3.041   5.608  17.701  0.00  0.00    +0.000 C 
ATOM      2  C   UNL     1       4.441   5.880  18.325  0.00  0.00    +0.000 C 
ATOM      3  C   UNL     1       5.950   5.903  18.108  0.00  0.00    +0.000 C 
ATOM      4  C   UNL     1       6.446   5.010  19.276  0.00  0.00    +0.000 C 
ATOM      5  O   UNL     1       5.506   3.921  19.319  0.00  0.00    +0.000 OA
ATOM      6  C   UNL     1       4.443   4.284  18.423  0.00  0.00    +0.000 C 
ATOM      7  C   UNL     1       2.960   4.408  18.802  0.00  0.00    +0.000 C 
ATOM      8  C   UNL     1       2.797   4.622  20.321  0.00  0.00    +0.000 C 
ATOM      9  C   UNL     1       1.316   4.427  20.555  0.00  0.00    +0.000 C 
ATOM     10  C   UNL     1       0.976   3.252  19.651  0.00  0.00    +0.000 C 
ATOM     11  C   UNL     1       1.894   3.373  18.421  0.00  0.00    +0.000 C 
ENDROOT
BRANCH   1  12
ATOM     12  N   UNL     1       1.990   6.525  18.112  0.00  0.00    +0.000 NA
ATOM     13  H   UNL     1       1.151   6.423  17.536  0.00  0.00    +0.000 HD
BRANCH  12  14
ATOM     14  C   UNL     1       2.364   7.933  18.119  0.00  0.00    +0.000 C 
BRANCH  14  19
ATOM     15  C   UNL     1      -0.548  10.405  22.437  0.00  0.00    +0.000 C 
ATOM     16  C   UNL     1       0.257   9.752  21.354  0.00  0.00    +0.000 A 
ATOM     17  C   UNL     1       0.964   8.582  21.602  0.00  0.00    +0.000 A 
ATOM     18  C   UNL     1       1.683   8.008  20.559  0.00  0.00    +0.000 A 
ATOM     19  C   UNL     1       1.672   8.593  19.285  0.00  0.00    +0.000 A 
ATOM     20  C   UNL     1       0.950   9.770  19.141  0.00  0.00    +0.000 A 
ATOM     21  N   UNL     1       0.251  10.355  20.142  0.00  0.00    +0.000 NA
ENDBRANCH  14  19
ENDBRANCH  12  14
ENDBRANCH   1  12
TORSDOF 3
ENDMDL
MODEL 4
REMARK VINA RESULT:      -7.5      1.959      2.966
REMARK  Name = 
REMARK  4 active torsions:
REMARK  status: ('A' for Active; 'I' for Inactive)
REMARK    1  A    between atoms: C_1  and  C_2
REMARK    2  A    between atoms: C_5  and  C_6
REMARK    3  A    between atoms: C_6  and  N_7
REMARK    4  A    between atoms: N_7  and  C_8
REMARK                            x       y       z     vdW  Elec       q    Type
REMARK                         _______ _______ _______ _____ _____    ______ ____
ROOT
ATOM      1  C   UNL     1       5.332   5.177  17.273  0.00  0.00    +0.000 C 
ATOM      2  C   UNL     1       5.440   5.109  15.721  0.00  0.00    +0.000 C 
ATOM      3  C   UNL     1       5.403   4.226  14.479  0.00  0.00    +0.000 C 
ATOM      4  C   UNL     1       6.745   4.595  13.795  0.00  0.00    +0.000 C 
ATOM      5  O   UNL     1       7.689   4.676  14.878  0.00  0.00    +0.000 OA
ATOM      6  C   UNL     1       6.911   4.601  16.084  0.00  0.00    +0.000 C 
ATOM      7  C   UNL     1       6.889   5.654  17.200  0.00  0.00    +0.000 C 
ATOM      8  C   UNL     1       7.362   7.024  16.672  0.00  0.00    +0.000 C 
ATOM      9  C   UNL     1       7.562   7.845  17.926  0.00  0.00    +0.000 C 
ATOM     10  C   UNL     1       8.195   6.852  18.889  0.00  0.00    +0.000 C 
ATOM     11  C   UNL     1       7.590   5.477  18.553  0.00  0.00    +0.000 C 
ENDROOT
BRANCH   1  12
ATOM     12  N   UNL     1       4.638   6.343  17.796  0.00  0.00    +0.000 NA
ATOM     13  H   UNL     1       5.284   7.007  18.228  0.00  0.00    +0.000 HD
BRANCH  12  14
ATOM     14  C   UNL     1       3.578   6.056  18.754  0.00  0.00    +0.000 C 
BRANCH  14  19
ATOM     15  C   UNL     1       0.342  10.799  19.277  0.00  0.00    +0.000 C 
ATOM     16  C   UNL     1       1.160   9.557  19.084  0.00  0.00    +0.000 A 
ATOM     17  C   UNL     1       1.803   9.311  17.877  0.00  0.00    +0.000 A 
ATOM     18  C   UNL     1       2.561   8.151  17.754  0.00  0.00    +0.000 A 
ATOM     19  C   UNL     1       2.683   7.266  18.835  0.00  0.00    +0.000 A 
ATOM     20  C   UNL     1       1.989   7.591  19.992  0.00  0.00    +0.000 A 
ATOM     21  N   UNL     1       1.236   8.707  20.134  0.00  0.00    +0.000 NA
ENDBRANCH  14  19
ENDBRANCH  12  14
ENDBRANCH   1  12
TORSDOF 3
ENDMDL
MODEL 5
REMARK VINA RESULT:      -7.4      1.601      1.693
REMARK  Name = 
REMARK  4 active torsions:
REMARK  status: ('A' for Active; 'I' for Inactive)
REMARK    1  A    between atoms: C_1  and  C_2
REMARK    2  A    between atoms: C_5  and  C_6
REMARK    3  A    between atoms: C_6  and  N_7
REMARK    4  A    between atoms: N_7  and  C_8
REMARK                            x       y       z     vdW  Elec       q    Type
REMARK                         _______ _______ _______ _____ _____    ______ ____
ROOT
ATOM      1  C   UNL     1       5.662   3.923  16.359  0.00  0.00    +0.000 C 
ATOM      2  C   UNL     1       5.734   4.332  14.858  0.00  0.00    +0.000 C 
ATOM      3  C   UNL     1       6.045   3.893  13.432  0.00  0.00    +0.000 C 
ATOM      4  C   UNL     1       7.067   4.974  12.989  0.00  0.00    +0.000 C 
ATOM      5  O   UNL     1       7.916   5.156  14.136  0.00  0.00    +0.000 OA
ATOM      6  C   UNL     1       7.292   4.428  15.206  0.00  0.00    +0.000 C 
ATOM      7  C   UNL     1       6.849   5.023  16.551  0.00  0.00    +0.000 C 
ATOM      8  C   UNL     1       6.656   6.549  16.440  0.00  0.00    +0.000 C 
ATOM      9  C   UNL     1       6.519   7.002  17.876  0.00  0.00    +0.000 C 
ATOM     10  C   UNL     1       7.556   6.157  18.602  0.00  0.00    +0.000 C 
ATOM     11  C   UNL     1       7.603   4.804  17.869  0.00  0.00    +0.000 C 
ENDROOT
BRANCH   1  12
ATOM     12  N   UNL     1       4.545   4.486  17.101  0.00  0.00    +0.000 NA
ATOM     13  H   UNL     1       4.727   4.497  18.107  0.00  0.00    +0.000 HD
BRANCH  12  14
ATOM     14  C   UNL     1       3.262   3.833  16.881  0.00  0.00    +0.000 C 
BRANCH  14  19
ATOM     15  C   UNL     1       1.335   2.454  22.138  0.00  0.00    +0.000 C 
ATOM     16  C   UNL     1       1.787   2.784  20.746  0.00  0.00    +0.000 A 
ATOM     17  C   UNL     1       0.879   3.223  19.791  0.00  0.00    +0.000 A 
ATOM     18  C   UNL     1       1.351   3.529  18.518  0.00  0.00    +0.000 A 
ATOM     19  C   UNL     1       2.717   3.412  18.223  0.00  0.00    +0.000 A 
ATOM     20  C   UNL     1       3.541   2.949  19.239  0.00  0.00    +0.000 A 
ATOM     21  N   UNL     1       3.106   2.634  20.481  0.00  0.00    +0.000 NA
ENDBRANCH  14  19
ENDBRANCH  12  14
ENDBRANCH   1  12
TORSDOF 3
ENDMDL
MODEL 6
REMARK VINA RESULT:      -7.3      2.612      4.298
REMARK  Name = 
REMARK  4 active torsions:
REMARK  status: ('A' for Active; 'I' for Inactive)
REMARK    1  A    between atoms: C_1  and  C_2
REMARK    2  A    between atoms: C_5  and  C_6
REMARK    3  A    between atoms: C_6  and  N_7
REMARK    4  A    between atoms: N_7  and  C_8
REMARK                            x       y       z     vdW  Elec       q    Type
REMARK                         _______ _______ _______ _____ _____    ______ ____
ROOT
ATOM      1  C   UNL     1       4.400   5.771  17.088  0.00  0.00    +0.000 C 
ATOM      2  C   UNL     1       5.675   6.237  17.852  0.00  0.00    +0.000 C 
ATOM      3  C   UNL     1       7.128   6.686  17.749  0.00  0.00    +0.000 C 
ATOM      4  C   UNL     1       7.826   5.707  18.729  0.00  0.00    +0.000 C 
ATOM      5  O   UNL     1       7.201   4.436  18.472  0.00  0.00    +0.000 OA
ATOM      6  C   UNL     1       6.090   4.713  17.604  0.00  0.00    +0.000 C 
ATOM      7  C   UNL     1       4.622   4.373  17.897  0.00  0.00    +0.000 C 
ATOM      8  C   UNL     1       4.391   4.192  19.412  0.00  0.00    +0.000 C 
ATOM      9  C   UNL     1       3.010   3.584  19.497  0.00  0.00    +0.000 C 
ATOM     10  C   UNL     1       2.997   2.596  18.340  0.00  0.00    +0.000 C 
ATOM     11  C   UNL     1       3.865   3.217  17.231  0.00  0.00    +0.000 C 
ENDROOT
BRANCH   1  12
ATOM     12  N   UNL     1       3.143   6.279  17.613  0.00  0.00    +0.000 NA
ATOM     13  H   UNL     1       2.339   5.895  17.110  0.00  0.00    +0.000 HD
BRANCH  12  14
ATOM     14  C   UNL     1       3.016   7.730  17.625  0.00  0.00    +0.000 C 
BRANCH  14  19
ATOM     15  C   UNL     1      -0.283   9.188  22.123  0.00  0.00    +0.000 C 
ATOM     16  C   UNL     1       0.620   8.792  20.993  0.00  0.00    +0.000 A 
ATOM     17  C   UNL     1       1.355   7.613  21.052  0.00  0.00    +0.000 A 
ATOM     18  C   UNL     1       2.167   7.284  19.971  0.00  0.00    +0.000 A 
ATOM     19  C   UNL     1       2.220   8.118  18.845  0.00  0.00    +0.000 A 
ATOM     20  C   UNL     1       1.463   9.281  18.890  0.00  0.00    +0.000 A 
ATOM     21  N   UNL     1       0.674   9.630  19.932  0.00  0.00    +0.000 NA
ENDBRANCH  14  19
ENDBRANCH  12  14
ENDBRANCH   1  12
TORSDOF 3
ENDMDL
MODEL 7
REMARK VINA RESULT:      -7.3      3.454      5.194
REMARK  Name = 
REMARK  4 active torsions:
REMARK  status: ('A' for Active; 'I' for Inactive)
REMARK    1  A    between atoms: C_1  and  C_2
REMARK    2  A    between atoms: C_5  and  C_6
REMARK    3  A    between atoms: C_6  and  N_7
REMARK    4  A    between atoms: N_7  and  C_8
REMARK                            x       y       z     vdW  Elec       q    Type
REMARK                         _______ _______ _______ _____ _____    ______ ____
ROOT
ATOM      1  C   UNL     1       2.987   6.566  17.842  0.00  0.00    +0.000 C 
ATOM      2  C   UNL     1       4.526   6.330  17.774  0.00  0.00    +0.000 C 
ATOM      3  C   UNL     1       5.755   6.197  16.883  0.00  0.00    +0.000 C 
ATOM      4  C   UNL     1       6.336   4.838  17.355  0.00  0.00    +0.000 C 
ATOM      5  O   UNL     1       5.183   3.993  17.519  0.00  0.00    +0.000 OA
ATOM      6  C   UNL     1       4.042   4.856  17.387  0.00  0.00    +0.000 C 
ATOM      7  C   UNL     1       2.943   5.050  18.443  0.00  0.00    +0.000 C 
ATOM      8  C   UNL     1       3.450   4.648  19.843  0.00  0.00    +0.000 C 
ATOM      9  C   UNL     1       2.194   4.614  20.685  0.00  0.00    +0.000 C 
ATOM     10  C   UNL     1       1.172   3.983  19.752  0.00  0.00    +0.000 C 
ATOM     11  C   UNL     1       1.538   4.448  18.330  0.00  0.00    +0.000 C 
ENDROOT
BRANCH   1  12
ATOM     12  N   UNL     1       2.535   7.390  18.951  0.00  0.00    +0.000 NA
ATOM     13  H   UNL     1       1.909   6.876  19.574  0.00  0.00    +0.000 HD
BRANCH  12  14
ATOM     14  C   UNL     1       1.876   8.633  18.572  0.00  0.00    +0.000 C 
BRANCH  14  19
ATOM     15  C   UNL     1      -1.072  10.687  23.081  0.00  0.00    +0.000 C 
ATOM     16  C   UNL     1      -0.258  10.138  21.947  0.00  0.00    +0.000 A 
ATOM     17  C   UNL     1       0.436   8.942  22.085  0.00  0.00    +0.000 A 
ATOM     18  C   UNL     1       1.164   8.469  20.998  0.00  0.00    +0.000 A 
ATOM     19  C   UNL     1       1.175   9.179  19.790  0.00  0.00    +0.000 A 
ATOM     20  C   UNL     1       0.464  10.371  19.756  0.00  0.00    +0.000 A 
ATOM     21  N   UNL     1      -0.243  10.859  20.802  0.00  0.00    +0.000 NA
ENDBRANCH  14  19
ENDBRANCH  12  14
ENDBRANCH   1  12
TORSDOF 3
ENDMDL
MODEL 8
REMARK VINA RESULT:      -7.3      3.153      5.235
REMARK  Name = 
REMARK  4 active torsions:
REMARK  status: ('A' for Active; 'I' for Inactive)
REMARK    1  A    between atoms: C_1  and  C_2
REMARK    2  A    between atoms: C_5  and  C_6
REMARK    3  A    between atoms: C_6  and  N_7
REMARK    4  A    between atoms: N_7  and  C_8
REMARK                            x       y       z     vdW  Elec       q    Type
REMARK                         _______ _______ _______ _____ _____    ______ ____
ROOT
ATOM      1  C   UNL     1       3.055   5.698  17.718  0.00  0.00    +0.000 C 
ATOM      2  C   UNL     1       4.458   5.971  18.338  0.00  0.00    +0.000 C 
ATOM      3  C   UNL     1       5.964   6.011  18.110  0.00  0.00    +0.000 C 
ATOM      4  C   UNL     1       6.477   5.100  19.256  0.00  0.00    +0.000 C 
ATOM      5  O   UNL     1       5.547   4.003  19.285  0.00  0.00    +0.000 OA
ATOM      6  C   UNL     1       4.474   4.374  18.405  0.00  0.00    +0.000 C 
ATOM      7  C   UNL     1       2.993   4.477  18.797  0.00  0.00    +0.000 C 
ATOM      8  C   UNL     1       2.839   4.661  20.320  0.00  0.00    +0.000 C 
ATOM      9  C   UNL     1       1.362   4.448  20.562  0.00  0.00    +0.000 C 
ATOM     10  C   UNL     1       1.025   3.288  19.638  0.00  0.00    +0.000 C 
ATOM     11  C   UNL     1       1.933   3.441  18.404  0.00  0.00    +0.000 C 
ENDROOT
BRANCH   1  12
ATOM     12  N   UNL     1       1.999   6.599  18.155  0.00  0.00    +0.000 NA
ATOM     13  H   UNL     1       1.179   6.543  17.547  0.00  0.00    +0.000 HD
BRANCH  12  14
ATOM     14  C   UNL     1       2.385   7.999  18.266  0.00  0.00    +0.000 C 
BRANCH  14  19
ATOM     15  C   UNL     1      -0.467  10.438  22.643  0.00  0.00    +0.000 C 
ATOM     16  C   UNL     1       0.225   9.814  21.468  0.00  0.00    +0.000 A 
ATOM     17  C   UNL     1       0.150  10.396  20.209  0.00  0.00    +0.000 A 
ATOM     18  C   UNL     1       0.823   9.785  19.155  0.00  0.00    +0.000 A 
ATOM     19  C   UNL     1       1.571   8.620  19.373  0.00  0.00    +0.000 A 
ATOM     20  C   UNL     1       1.570   8.106  20.662  0.00  0.00    +0.000 A 
ATOM     21  N   UNL     1       0.917   8.674  21.702  0.00  0.00    +0.000 NA
ENDBRANCH  14  19
ENDBRANCH  12  14
ENDBRANCH   1  12
TORSDOF 3
ENDMDL
MODEL 9
REMARK VINA RESULT:      -7.2      2.527      4.244
REMARK  Name = 
REMARK  4 active torsions:
REMARK  status: ('A' for Active; 'I' for Inactive)
REMARK    1  A    between atoms: C_1  and  C_2
REMARK    2  A    between atoms: C_5  and  C_6
REMARK    3  A    between atoms: C_6  and  N_7
REMARK    4  A    between atoms: N_7  and  C_8
REMARK                            x       y       z     vdW  Elec       q    Type
REMARK                         _______ _______ _______ _____ _____    ______ ____
ROOT
ATOM      1  C   UNL     1       4.675   5.793  17.065  0.00  0.00    +0.000 C 
ATOM      2  C   UNL     1       5.884   6.243  17.937  0.00  0.00    +0.000 C 
ATOM      3  C   UNL     1       7.331   6.719  17.958  0.00  0.00    +0.000 C 
ATOM      4  C   UNL     1       7.978   5.706  18.939  0.00  0.00    +0.000 C 
ATOM      5  O   UNL     1       7.397   4.439  18.580  0.00  0.00    +0.000 OA
ATOM      6  C   UNL     1       6.344   4.740  17.650  0.00  0.00    +0.000 C 
ATOM      7  C   UNL     1       4.866   4.362  17.822  0.00  0.00    +0.000 C 
ATOM      8  C   UNL     1       4.534   4.105  19.307  0.00  0.00    +0.000 C 
ATOM      9  C   UNL     1       3.162   3.472  19.265  0.00  0.00    +0.000 C 
ATOM     10  C   UNL     1       3.249   2.541  18.066  0.00  0.00    +0.000 C 
ATOM     11  C   UNL     1       4.181   3.228  17.051  0.00  0.00    +0.000 C 
ENDROOT
BRANCH   1  12
ATOM     12  N   UNL     1       3.374   6.255  17.523  0.00  0.00    +0.000 NA
ATOM     13  H   UNL     1       2.612   5.835  16.985  0.00  0.00    +0.000 HD
BRANCH  12  14
ATOM     14  C   UNL     1       3.191   7.701  17.513  0.00  0.00    +0.000 C 
BRANCH  14  19
ATOM     15  C   UNL     1      -0.024   9.121  22.083  0.00  0.00    +0.000 C 
ATOM     16  C   UNL     1       0.765   8.768  20.858  0.00  0.00    +0.000 A 
ATOM     17  C   UNL     1       0.766   9.607  19.749  0.00  0.00    +0.000 A 
ATOM     18  C   UNL     1       1.526   9.242  18.642  0.00  0.00    +0.000 A 
ATOM     19  C   UNL     1       2.285   8.063  18.662  0.00  0.00    +0.000 A 
ATOM     20  C   UNL     1       2.204   7.284  19.808  0.00  0.00    +0.000 A 
ATOM     21  N   UNL     1       1.465   7.611  20.894  0.00  0.00    +0.000 NA
ENDBRANCH  14  19
ENDBRANCH  12  14
ENDBRANCH   1  12
TORSDOF 3
ENDMDL
