MODEL 1
REMARK VINA RESULT:      -7.7      0.000      0.000
REMARK  Name = 
REMARK  1 active torsions:
REMARK  status: ('A' for Active; 'I' for Inactive)
REMARK    1  A    between atoms: C_7  and  N_8
REMARK                            x       y       z     vdW  Elec       q    Type
REMARK                         _______ _______ _______ _____ _____    ______ ____
ROOT
ATOM      1  N   UNL     1       6.274   4.123  18.594  0.00  0.00    +0.000 N 
ATOM      2  C   UNL     1       5.014   3.972  19.045  0.00  0.00    +0.000 A 
ATOM      3  N   UNL     1       3.959   4.742  18.881  0.00  0.00    +0.000 NA
ATOM      4  C   UNL     1       2.991   4.159  19.639  0.00  0.00    +0.000 A 
ATOM      5  C   UNL     1       1.670   4.548  19.880  0.00  0.00    +0.000 A 
ATOM      6  C   UNL     1       0.900   3.749  20.734  0.00  0.00    +0.000 A 
ATOM      7  C   UNL     1       1.437   2.598  21.327  0.00  0.00    +0.000 A 
ATOM      8  C   UNL     1       2.761   2.199  21.090  0.00  0.00    +0.000 A 
ATOM      9  C   UNL     1       3.491   3.016  20.237  0.00  0.00    +0.000 A 
ATOM     10  O   UNL     1       4.794   2.878  19.845  0.00  0.00    +0.000 OA
ATOM     11  H   UNL     1       6.962   3.452  18.919  0.00  0.00    +0.000 HD
ENDROOT
BRANCH   1  18
ATOM     12  F   UNL     1       8.059   5.470  20.204  0.00  0.00    +0.000 F 
ATOM     13  C   UNL     1       7.732   6.025  19.025  0.00  0.00    +0.000 A 
ATOM     14  C   UNL     1       8.261   7.272  18.699  0.00  0.00    +0.000 A 
ATOM     15  C   UNL     1       7.919   7.874  17.492  0.00  0.00    +0.000 A 
ATOM     16  C   UNL     1       7.078   7.204  16.605  0.00  0.00    +0.000 A 
ATOM     17  C   UNL     1       6.562   5.951  16.938  0.00  0.00    +0.000 A 
ATOM     18  C   UNL     1       6.843   5.348  18.172  0.00  0.00    +0.000 A 
ENDBRANCH   1  18
TORSDOF 1
ENDMDL
MODEL 2
REMARK VINA RESULT:      -7.2      1.134      1.623
REMARK  Name = 
REMARK  1 active torsions:
REMARK  status: ('A' for Active; 'I' for Inactive)
REMARK    1  A    between atoms: C_7  and  N_8
REMARK                            x       y       z     vdW  Elec       q    Type
REMARK                         _______ _______ _______ _____ _____    ______ ____
ROOT
ATOM      1  N   UNL     1       6.243   4.250  18.637  0.00  0.00    +0.000 N 
ATOM      2  C   UNL     1       4.995   4.066  19.108  0.00  0.00    +0.000 A 
ATOM      3  N   UNL     1       3.945   4.859  19.053  0.00  0.00    +0.000 NA
ATOM      4  C   UNL     1       2.992   4.212  19.779  0.00  0.00    +0.000 A 
ATOM      5  C   UNL     1       1.683   4.587  20.096  0.00  0.00    +0.000 A 
ATOM      6  C   UNL     1       0.928   3.715  20.890  0.00  0.00    +0.000 A 
ATOM      7  C   UNL     1       1.468   2.507  21.350  0.00  0.00    +0.000 A 
ATOM      8  C   UNL     1       2.780   2.120  21.036  0.00  0.00    +0.000 A 
ATOM      9  C   UNL     1       3.495   3.011  20.246  0.00  0.00    +0.000 A 
ATOM     10  O   UNL     1       4.784   2.901  19.803  0.00  0.00    +0.000 OA
ATOM     11  H   UNL     1       6.931   3.544  18.874  0.00  0.00    +0.000 HD
ENDROOT
BRANCH   1  18
ATOM     12  F   UNL     1       5.498   5.598  16.352  0.00  0.00    +0.000 F 
ATOM     13  C   UNL     1       6.433   6.158  17.137  0.00  0.00    +0.000 A 
ATOM     14  C   UNL     1       7.020   7.356  16.733  0.00  0.00    +0.000 A 
ATOM     15  C   UNL     1       8.005   7.943  17.522  0.00  0.00    +0.000 A 
ATOM     16  C   UNL     1       8.368   7.343  18.726  0.00  0.00    +0.000 A 
ATOM     17  C   UNL     1       7.767   6.149  19.124  0.00  0.00    +0.000 A 
ATOM     18  C   UNL     1       6.814   5.505  18.321  0.00  0.00    +0.000 A 
ENDBRANCH   1  18
TORSDOF 1
ENDMDL
MODEL 3
REMARK VINA RESULT:      -7.2      1.528      1.760
REMARK  Name = 
REMARK  1 active torsions:
REMARK  status: ('A' for Active; 'I' for Inactive)
REMARK    1  A    between atoms: C_7  and  N_8
REMARK                            x       y       z     vdW  Elec       q    Type
REMARK                         _______ _______ _______ _____ _____    ______ ____
ROOT
ATOM      1  N   UNL     1       5.150   5.224  16.925  0.00  0.00    +0.000 N 
ATOM      2  C   UNL     1       4.080   4.861  17.657  0.00  0.00    +0.000 A 
ATOM      3  N   UNL     1       3.584   5.396  18.753  0.00  0.00    +0.000 NA
ATOM      4  C   UNL     1       2.571   4.561  19.111  0.00  0.00    +0.000 A 
ATOM      5  C   UNL     1       1.706   4.601  20.209  0.00  0.00    +0.000 A 
ATOM      6  C   UNL     1       0.757   3.579  20.330  0.00  0.00    +0.000 A 
ATOM      7  C   UNL     1       0.677   2.551  19.383  0.00  0.00    +0.000 A 
ATOM      8  C   UNL     1       1.539   2.501  18.276  0.00  0.00    +0.000 A 
ATOM      9  C   UNL     1       2.465   3.533  18.190  0.00  0.00    +0.000 A 
ATOM     10  O   UNL     1       3.426   3.728  17.237  0.00  0.00    +0.000 OA
ATOM     11  H   UNL     1       5.415   4.609  16.162  0.00  0.00    +0.000 HD
ENDROOT
BRANCH   1  18
ATOM     12  F   UNL     1       6.954   4.234  18.759  0.00  0.00    +0.000 F 
ATOM     13  C   UNL     1       7.108   5.503  18.345  0.00  0.00    +0.000 A 
ATOM     14  C   UNL     1       8.129   6.272  18.902  0.00  0.00    +0.000 A 
ATOM     15  C   UNL     1       8.293   7.595  18.502  0.00  0.00    +0.000 A 
ATOM     16  C   UNL     1       7.456   8.125  17.523  0.00  0.00    +0.000 A 
ATOM     17  C   UNL     1       6.443   7.343  16.966  0.00  0.00    +0.000 A 
ATOM     18  C   UNL     1       6.218   6.026  17.392  0.00  0.00    +0.000 A 
ENDBRANCH   1  18
TORSDOF 1
ENDMDL
MODEL 4
REMARK VINA RESULT:      -7.1      1.715      2.033
REMARK  Name = 
REMARK  1 active torsions:
REMARK  status: ('A' for Active; 'I' for Inactive)
REMARK    1  A    between atoms: C_7  and  N_8
REMARK                            x       y       z     vdW  Elec       q    Type
REMARK                         _______ _______ _______ _____ _____    ______ ____
ROOT
ATOM      1  N   UNL     1       5.598   4.568  17.359  0.00  0.00    +0.000 N 
ATOM      2  C   UNL     1       4.426   4.289  17.960  0.00  0.00    +0.000 A 
ATOM      3  N   UNL     1       3.645   5.059  18.689  0.00  0.00    +0.000 NA
ATOM      4  C   UNL     1       2.656   4.228  19.122  0.00  0.00    +0.000 A 
ATOM      5  C   UNL     1       1.563   4.477  19.957  0.00  0.00    +0.000 A 
ATOM      6  C   UNL     1       0.708   3.407  20.250  0.00  0.00    +0.000 A 
ATOM      7  C   UNL     1       0.943   2.131  19.724  0.00  0.00    +0.000 A 
ATOM      8  C   UNL     1       2.037   1.870  18.884  0.00  0.00    +0.000 A 
ATOM      9  C   UNL     1       2.860   2.957  18.616  0.00  0.00    +0.000 A 
ATOM     10  O   UNL     1       3.991   2.990  17.850  0.00  0.00    +0.000 OA
ATOM     11  H   UNL     1       6.085   3.793  16.922  0.00  0.00    +0.000 HD
ENDROOT
BRANCH   1  18
ATOM     12  F   UNL     1       5.396   6.995  16.071  0.00  0.00    +0.000 F 
ATOM     13  C   UNL     1       6.342   6.860  17.015  0.00  0.00    +0.000 A 
ATOM     14  C   UNL     1       7.208   7.925  17.256  0.00  0.00    +0.000 A 
ATOM     15  C   UNL     1       8.208   7.799  18.215  0.00  0.00    +0.000 A 
ATOM     16  C   UNL     1       8.309   6.620  18.950  0.00  0.00    +0.000 A 
ATOM     17  C   UNL     1       7.431   5.563  18.706  0.00  0.00    +0.000 A 
ATOM     18  C   UNL     1       6.452   5.641  17.706  0.00  0.00    +0.000 A 
ENDBRANCH   1  18
TORSDOF 1
ENDMDL
MODEL 5
REMARK VINA RESULT:      -7.1      2.220      6.304
REMARK  Name = 
REMARK  1 active torsions:
REMARK  status: ('A' for Active; 'I' for Inactive)
REMARK    1  A    between atoms: C_7  and  N_8
REMARK                            x       y       z     vdW  Elec       q    Type
REMARK                         _______ _______ _______ _____ _____    ______ ____
ROOT
ATOM      1  N   UNL     1       3.044   4.880  17.446  0.00  0.00    +0.000 N 
ATOM      2  C   UNL     1       4.297   5.294  17.713  0.00  0.00    +0.000 A 
ATOM      3  N   UNL     1       5.161   4.854  18.604  0.00  0.00    +0.000 NA
ATOM      4  C   UNL     1       6.218   5.705  18.502  0.00  0.00    +0.000 A 
ATOM      5  C   UNL     1       7.417   5.753  19.219  0.00  0.00    +0.000 A 
ATOM      6  C   UNL     1       8.327   6.769  18.903  0.00  0.00    +0.000 A 
ATOM      7  C   UNL     1       8.043   7.707  17.902  0.00  0.00    +0.000 A 
ATOM      8  C   UNL     1       6.844   7.667  17.175  0.00  0.00    +0.000 A 
ATOM      9  C   UNL     1       5.969   6.643  17.517  0.00  0.00    +0.000 A 
ATOM     10  O   UNL     1       4.736   6.375  16.990  0.00  0.00    +0.000 OA
ATOM     11  H   UNL     1       2.513   5.427  16.776  0.00  0.00    +0.000 HD
ENDROOT
BRANCH   1  18
ATOM     12  F   UNL     1       2.031   6.041  19.731  0.00  0.00    +0.000 F 
ATOM     13  C   UNL     1       1.746   4.748  19.502  0.00  0.00    +0.000 A 
ATOM     14  C   UNL     1       1.007   4.045  20.451  0.00  0.00    +0.000 A 
ATOM     15  C   UNL     1       0.718   2.699  20.243  0.00  0.00    +0.000 A 
ATOM     16  C   UNL     1       1.141   2.080  19.069  0.00  0.00    +0.000 A 
ATOM     17  C   UNL     1       1.873   2.798  18.122  0.00  0.00    +0.000 A 
ATOM     18  C   UNL     1       2.228   4.138  18.332  0.00  0.00    +0.000 A 
ENDBRANCH   1  18
TORSDOF 1
ENDMDL
MODEL 6
REMARK VINA RESULT:      -7.1      3.264      4.216
REMARK  Name = 
REMARK  1 active torsions:
REMARK  status: ('A' for Active; 'I' for Inactive)
REMARK    1  A    between atoms: C_7  and  N_8
REMARK                            x       y       z     vdW  Elec       q    Type
REMARK                         _______ _______ _______ _____ _____    ______ ____
ROOT
ATOM      1  N   UNL     1       3.861   5.076  18.851  0.00  0.00    +0.000 N 
ATOM      2  C   UNL     1       3.143   6.215  18.842  0.00  0.00    +0.000 A 
ATOM      3  N   UNL     1       2.996   7.115  17.892  0.00  0.00    +0.000 NA
ATOM      4  C   UNL     1       2.252   8.099  18.467  0.00  0.00    +0.000 A 
ATOM      5  C   UNL     1       1.810   9.321  17.952  0.00  0.00    +0.000 A 
ATOM      6  C   UNL     1       1.066  10.155  18.795  0.00  0.00    +0.000 A 
ATOM      7  C   UNL     1       0.775   9.775  20.112  0.00  0.00    +0.000 A 
ATOM      8  C   UNL     1       1.213   8.551  20.639  0.00  0.00    +0.000 A 
ATOM      9  C   UNL     1       1.946   7.752  19.771  0.00  0.00    +0.000 A 
ATOM     10  O   UNL     1       2.504   6.528  20.017  0.00  0.00    +0.000 OA
ATOM     11  H   UNL     1       3.912   4.573  19.731  0.00  0.00    +0.000 HD
ENDROOT
BRANCH   1  18
ATOM     12  F   UNL     1       6.467   5.457  19.662  0.00  0.00    +0.000 F 
ATOM     13  C   UNL     1       6.255   5.016  18.410  0.00  0.00    +0.000 A 
ATOM     14  C   UNL     1       7.350   4.828  17.569  0.00  0.00    +0.000 A 
ATOM     15  C   UNL     1       7.150   4.390  16.263  0.00  0.00    +0.000 A 
ATOM     16  C   UNL     1       5.858   4.111  15.823  0.00  0.00    +0.000 A 
ATOM     17  C   UNL     1       4.770   4.294  16.677  0.00  0.00    +0.000 A 
ATOM     18  C   UNL     1       4.937   4.789  17.979  0.00  0.00    +0.000 A 
ENDBRANCH   1  18
TORSDOF 1
ENDMDL
MODEL 7
REMARK VINA RESULT:      -7.1      2.412      6.456
REMARK  Name = 
REMARK  1 active torsions:
REMARK  status: ('A' for Active; 'I' for Inactive)
REMARK    1  A    between atoms: C_7  and  N_8
REMARK                            x       y       z     vdW  Elec       q    Type
REMARK                         _______ _______ _______ _____ _____    ______ ____
ROOT
ATOM      1  N   UNL     1       3.111   4.839  17.500  0.00  0.00    +0.000 N 
ATOM      2  C   UNL     1       4.358   5.278  17.756  0.00  0.00    +0.000 A 
ATOM      3  N   UNL     1       5.219   4.893  18.675  0.00  0.00    +0.000 NA
ATOM      4  C   UNL     1       6.269   5.748  18.538  0.00  0.00    +0.000 A 
ATOM      5  C   UNL     1       7.461   5.844  19.261  0.00  0.00    +0.000 A 
ATOM      6  C   UNL     1       8.364   6.853  18.902  0.00  0.00    +0.000 A 
ATOM      7  C   UNL     1       8.079   7.736  17.853  0.00  0.00    +0.000 A 
ATOM      8  C   UNL     1       6.886   7.648  17.120  0.00  0.00    +0.000 A 
ATOM      9  C   UNL     1       6.018   6.634  17.505  0.00  0.00    +0.000 A 
ATOM     10  O   UNL     1       4.792   6.327  16.983  0.00  0.00    +0.000 OA
ATOM     11  H   UNL     1       2.581   5.346  16.800  0.00  0.00    +0.000 HD
ENDROOT
BRANCH   1  18
ATOM     12  F   UNL     1       2.411   2.217  17.025  0.00  0.00    +0.000 F 
ATOM     13  C   UNL     1       1.935   2.805  18.135  0.00  0.00    +0.000 A 
ATOM     14  C   UNL     1       1.070   2.085  18.959  0.00  0.00    +0.000 A 
ATOM     15  C   UNL     1       0.550   2.682  20.103  0.00  0.00    +0.000 A 
ATOM     16  C   UNL     1       0.929   3.982  20.432  0.00  0.00    +0.000 A 
ATOM     17  C   UNL     1       1.803   4.689  19.605  0.00  0.00    +0.000 A 
ATOM     18  C   UNL     1       2.296   4.133  18.416  0.00  0.00    +0.000 A 
ENDBRANCH   1  18
TORSDOF 1
ENDMDL
MODEL 8
REMARK VINA RESULT:      -6.9      1.048      1.063
REMARK  Name = 
REMARK  1 active torsions:
REMARK  status: ('A' for Active; 'I' for Inactive)
REMARK    1  A    between atoms: C_7  and  N_8
REMARK                            x       y       z     vdW  Elec       q    Type
REMARK                         _______ _______ _______ _____ _____    ______ ____
ROOT
ATOM      1  N   UNL     1       6.352   4.164  18.521  0.00  0.00    +0.000 N 
ATOM      2  C   UNL     1       5.034   3.891  18.501  0.00  0.00    +0.000 A 
ATOM      3  N   UNL     1       4.054   4.500  17.866  0.00  0.00    +0.000 NA
ATOM      4  C   UNL     1       2.927   3.866  18.292  0.00  0.00    +0.000 A 
ATOM      5  C   UNL     1       1.583   4.099  17.984  0.00  0.00    +0.000 A 
ATOM      6  C   UNL     1       0.622   3.287  18.598  0.00  0.00    +0.000 A 
ATOM      7  C   UNL     1       0.996   2.275  19.491  0.00  0.00    +0.000 A 
ATOM      8  C   UNL     1       2.342   2.032  19.806  0.00  0.00    +0.000 A 
ATOM      9  C   UNL     1       3.265   2.857  19.176  0.00  0.00    +0.000 A 
ATOM     10  O   UNL     1       4.626   2.855  19.304  0.00  0.00    +0.000 OA
ATOM     11  H   UNL     1       6.924   3.621  19.160  0.00  0.00    +0.000 HD
ENDROOT
BRANCH   1  18
ATOM     12  F   UNL     1       8.030   5.469  20.276  0.00  0.00    +0.000 F 
ATOM     13  C   UNL     1       7.760   6.064  19.101  0.00  0.00    +0.000 A 
ATOM     14  C   UNL     1       8.291   7.328  18.851  0.00  0.00    +0.000 A 
ATOM     15  C   UNL     1       8.008   7.970  17.649  0.00  0.00    +0.000 A 
ATOM     16  C   UNL     1       7.226   7.325  16.694  0.00  0.00    +0.000 A 
ATOM     17  C   UNL     1       6.708   6.055  16.952  0.00  0.00    +0.000 A 
ATOM     18  C   UNL     1       6.928   5.409  18.177  0.00  0.00    +0.000 A 
ENDBRANCH   1  18
TORSDOF 1
ENDMDL
MODEL 9
REMARK VINA RESULT:      -6.9      2.247      6.083
REMARK  Name = 
REMARK  1 active torsions:
REMARK  status: ('A' for Active; 'I' for Inactive)
REMARK    1  A    between atoms: C_7  and  N_8
REMARK                            x       y       z     vdW  Elec       q    Type
REMARK                         _______ _______ _______ _____ _____    ______ ____
ROOT
ATOM      1  N   UNL     1       4.376   5.200  19.278  0.00  0.00    +0.000 N 
ATOM      2  C   UNL     1       4.792   5.045  18.007  0.00  0.00    +0.000 A 
ATOM      3  N   UNL     1       4.156   4.558  16.962  0.00  0.00    +0.000 NA
ATOM      4  C   UNL     1       5.089   4.543  15.972  0.00  0.00    +0.000 A 
ATOM      5  C   UNL     1       5.001   4.101  14.649  0.00  0.00    +0.000 A 
ATOM      6  C   UNL     1       6.149   4.192  13.852  0.00  0.00    +0.000 A 
ATOM      7  C   UNL     1       7.346   4.709  14.365  0.00  0.00    +0.000 A 
ATOM      8  C   UNL     1       7.444   5.157  15.691  0.00  0.00    +0.000 A 
ATOM      9  C   UNL     1       6.284   5.052  16.449  0.00  0.00    +0.000 A 
ATOM     10  O   UNL     1       6.097   5.395  17.759  0.00  0.00    +0.000 OA
ATOM     11  H   UNL     1       5.067   5.511  19.953  0.00  0.00    +0.000 HD
ENDROOT
BRANCH   1  18
ATOM     12  F   UNL     1       4.683   2.613  20.174  0.00  0.00    +0.000 F 
ATOM     13  C   UNL     1       3.471   3.181  20.292  0.00  0.00    +0.000 A 
ATOM     14  C   UNL     1       2.420   2.422  20.805  0.00  0.00    +0.000 A 
ATOM     15  C   UNL     1       1.152   2.986  20.918  0.00  0.00    +0.000 A 
ATOM     16  C   UNL     1       0.956   4.315  20.549  0.00  0.00    +0.000 A 
ATOM     17  C   UNL     1       2.019   5.067  20.046  0.00  0.00    +0.000 A 
ATOM     18  C   UNL     1       3.292   4.508  19.867  0.00  0.00    +0.000 A 
ENDBRANCH   1  18
TORSDOF 1
ENDMDL
