MODEL 1
REMARK VINA RESULT:      -8.6      0.000      0.000
REMARK  Name = 
REMARK  6 active torsions:
REMARK  status: ('A' for Active; 'I' for Inactive)
REMARK    1  A    between atoms: C_2  and  C_3
REMARK    2  A    between atoms: C_2  and  O_7
REMARK    3  A    between atoms: C_3  and  C_4
REMARK    4  A    between atoms: C_4  and  C_5
REMARK    5  A    between atoms: O_7  and  C_8
REMARK    6  A    between atoms: C_13  and  C_14
REMARK                            x       y       z     vdW  Elec       q    Type
REMARK                         _______ _______ _______ _____ _____    ______ ____
ROOT
ATOM      1  C   UNL     1       5.203   4.903  16.197  0.00  0.00    +0.000 A 
ATOM      2  C   UNL     1       5.112   6.215  15.719  0.00  0.00    +0.000 A 
ATOM      3  C   UNL     1       4.376   7.173  16.435  0.00  0.00    +0.000 A 
ATOM      4  C   UNL     1       3.722   6.812  17.616  0.00  0.00    +0.000 A 
ATOM      5  C   UNL     1       2.940   7.749  18.412  0.00  0.00    +0.000 A 
ATOM      6  C   UNL     1       2.247   7.337  19.489  0.00  0.00    +0.000 A 
ATOM      7  C   UNL     1       2.234   5.889  19.847  0.00  0.00    +0.000 A 
ATOM      8  O   UNL     1       1.474   5.414  20.684  0.00  0.00    +0.000 OA
ATOM      9  O   UNL     1       3.161   5.073  19.216  0.00  0.00    +0.000 OA
ATOM     10  C   UNL     1       3.842   5.504  18.070  0.00  0.00    +0.000 A 
ATOM     11  C   UNL     1       4.599   4.550  17.396  0.00  0.00    +0.000 A 
ENDROOT
BRANCH   6  12
ATOM     12  C   UNL     1       1.482   8.316  20.304  0.00  0.00    +0.000 A 
ATOM     13  C   UNL     1       1.573   8.344  21.693  0.00  0.00    +0.000 A 
ATOM     14  C   UNL     1       0.823   9.271  22.407  0.00  0.00    +0.000 A 
ATOM     15  C   UNL     1       0.006  10.171  21.722  0.00  0.00    +0.000 A 
ATOM     16  C   UNL     1      -0.769  11.122  22.407  0.00  0.00    +0.000 A 
ATOM     17  C   UNL     1      -1.569  12.014  21.699  0.00  0.00    +0.000 A 
ATOM     18  C   UNL     1      -1.595  11.958  20.311  0.00  0.00    +0.000 A 
ATOM     19  C   UNL     1      -0.824  11.005  19.636  0.00  0.00    +0.000 A 
ATOM     20  C   UNL     1      -0.017  10.102  20.316  0.00  0.00    +0.000 A 
ATOM     21  N   UNL     1       0.708   9.200  19.623  0.00  0.00    +0.000 NA
ENDBRANCH   6  12
BRANCH   1  22
ATOM     22  O   UNL     1       5.963   3.998  15.427  0.00  0.00    +0.000 OA
BRANCH  22  24
ATOM     23  O   UNL     1       7.640   5.371  14.529  0.00  0.00    +0.000 OA
ATOM     24  C   UNL     1       6.819   4.467  14.427  0.00  0.00    +0.000 C 
BRANCH  24  25
ATOM     25  C   UNL     1       6.585   3.690  13.154  0.00  0.00    +0.000 C 
BRANCH  25  26
ATOM     26  C   UNL     1       5.162   3.901  12.622  0.00  0.00    +0.000 C 
BRANCH  26  27
ATOM     27  C   UNL     1       4.769   2.972  11.472  0.00  0.00    +0.000 C 
ATOM     28 CL   UNL     1       3.352   3.582  10.587  0.00  0.00    +0.000 Cl
ENDBRANCH  26  27
ENDBRANCH  25  26
ENDBRANCH  24  25
ENDBRANCH  22  24
ENDBRANCH   1  22
TORSDOF 6
ENDMDL
MODEL 2
REMARK VINA RESULT:      -8.3      4.366     10.085
REMARK  Name = 
REMARK  6 active torsions:
REMARK  status: ('A' for Active; 'I' for Inactive)
REMARK    1  A    between atoms: C_2  and  C_3
REMARK    2  A    between atoms: C_2  and  O_7
REMARK    3  A    between atoms: C_3  and  C_4
REMARK    4  A    between atoms: C_4  and  C_5
REMARK    5  A    between atoms: O_7  and  C_8
REMARK    6  A    between atoms: C_13  and  C_14
REMARK                            x       y       z     vdW  Elec       q    Type
REMARK                         _______ _______ _______ _____ _____    ______ ____
ROOT
ATOM      1  C   UNL     1      -0.544  11.102  22.346  0.00  0.00    +0.000 A 
ATOM      2  C   UNL     1      -0.511   9.872  23.013  0.00  0.00    +0.000 A 
ATOM      3  C   UNL     1       0.139   8.773  22.428  0.00  0.00    +0.000 A 
ATOM      4  C   UNL     1       0.737   8.903  21.172  0.00  0.00    +0.000 A 
ATOM      5  C   UNL     1       1.427   7.809  20.501  0.00  0.00    +0.000 A 
ATOM      6  C   UNL     1       1.904   7.951  19.251  0.00  0.00    +0.000 A 
ATOM      7  C   UNL     1       1.679   9.230  18.516  0.00  0.00    +0.000 A 
ATOM      8  O   UNL     1       1.905   9.361  17.318  0.00  0.00    +0.000 OA
ATOM      9  O   UNL     1       1.230  10.314  19.257  0.00  0.00    +0.000 OA
ATOM     10  C   UNL     1       0.697  10.142  20.541  0.00  0.00    +0.000 A 
ATOM     11  C   UNL     1       0.094  11.252  21.122  0.00  0.00    +0.000 A 
ENDROOT
BRANCH   6  12
ATOM     12  C   UNL     1       2.632   6.832  18.598  0.00  0.00    +0.000 A 
ATOM     13  C   UNL     1       2.256   5.505  18.782  0.00  0.00    +0.000 A 
ATOM     14  C   UNL     1       2.982   4.497  18.159  0.00  0.00    +0.000 A 
ATOM     15  C   UNL     1       4.065   4.830  17.345  0.00  0.00    +0.000 A 
ATOM     16  C   UNL     1       4.826   3.840  16.700  0.00  0.00    +0.000 A 
ATOM     17  C   UNL     1       5.896   4.200  15.886  0.00  0.00    +0.000 A 
ATOM     18  C   UNL     1       6.206   5.544  15.716  0.00  0.00    +0.000 A 
ATOM     19  C   UNL     1       5.446   6.524  16.365  0.00  0.00    +0.000 A 
ATOM     20  C   UNL     1       4.374   6.194  17.184  0.00  0.00    +0.000 A 
ATOM     21  N   UNL     1       3.671   7.173  17.790  0.00  0.00    +0.000 NA
ENDBRANCH   6  12
BRANCH   1  22
ATOM     22  O   UNL     1      -1.209  12.160  22.999  0.00  0.00    +0.000 OA
BRANCH  22  24
ATOM     23  O   UNL     1      -3.351  11.863  23.908  0.00  0.00    +0.000 OA
ATOM     24  C   UNL     1      -2.605  12.220  23.004  0.00  0.00    +0.000 C 
BRANCH  24  25
ATOM     25  C   UNL     1      -3.092  12.798  21.697  0.00  0.00    +0.000 C 
BRANCH  25  26
ATOM     26  C   UNL     1      -4.624  12.815  21.628  0.00  0.00    +0.000 C 
BRANCH  26  27
ATOM     27  C   UNL     1      -5.199  12.593  20.228  0.00  0.00    +0.000 C 
ATOM     28 CL   UNL     1      -6.367  13.860  19.787  0.00  0.00    +0.000 Cl
ENDBRANCH  26  27
ENDBRANCH  25  26
ENDBRANCH  24  25
ENDBRANCH  22  24
ENDBRANCH   1  22
TORSDOF 6
ENDMDL
MODEL 3
REMARK VINA RESULT:      -8.3      4.755     10.493
REMARK  Name = 
REMARK  6 active torsions:
REMARK  status: ('A' for Active; 'I' for Inactive)
REMARK    1  A    between atoms: C_2  and  C_3
REMARK    2  A    between atoms: C_2  and  O_7
REMARK    3  A    between atoms: C_3  and  C_4
REMARK    4  A    between atoms: C_4  and  C_5
REMARK    5  A    between atoms: O_7  and  C_8
REMARK    6  A    between atoms: C_13  and  C_14
REMARK                            x       y       z     vdW  Elec       q    Type
REMARK                         _______ _______ _______ _____ _____    ______ ____
ROOT
ATOM      1  C   UNL     1      -0.483  11.054  22.286  0.00  0.00    +0.000 A 
ATOM      2  C   UNL     1      -0.463   9.814  22.935  0.00  0.00    +0.000 A 
ATOM      3  C   UNL     1       0.183   8.719  22.339  0.00  0.00    +0.000 A 
ATOM      4  C   UNL     1       0.792   8.864  21.089  0.00  0.00    +0.000 A 
ATOM      5  C   UNL     1       1.479   7.775  20.407  0.00  0.00    +0.000 A 
ATOM      6  C   UNL     1       1.967   7.932  19.163  0.00  0.00    +0.000 A 
ATOM      7  C   UNL     1       1.756   9.223  18.446  0.00  0.00    +0.000 A 
ATOM      8  O   UNL     1       1.991   9.370  17.251  0.00  0.00    +0.000 OA
ATOM      9  O   UNL     1       1.308  10.299  19.198  0.00  0.00    +0.000 OA
ATOM     10  C   UNL     1       0.764  10.111  20.476  0.00  0.00    +0.000 A 
ATOM     11  C   UNL     1       0.165  11.218  21.069  0.00  0.00    +0.000 A 
ENDROOT
BRANCH   6  12
ATOM     12  C   UNL     1       2.692   6.818  18.499  0.00  0.00    +0.000 A 
ATOM     13  C   UNL     1       2.199   5.516  18.501  0.00  0.00    +0.000 A 
ATOM     14  C   UNL     1       2.927   4.510  17.878  0.00  0.00    +0.000 A 
ATOM     15  C   UNL     1       4.130   4.820  17.244  0.00  0.00    +0.000 A 
ATOM     16  C   UNL     1       4.896   3.831  16.605  0.00  0.00    +0.000 A 
ATOM     17  C   UNL     1       6.088   4.169  15.972  0.00  0.00    +0.000 A 
ATOM     18  C   UNL     1       6.515   5.491  15.976  0.00  0.00    +0.000 A 
ATOM     19  C   UNL     1       5.749   6.471  16.619  0.00  0.00    +0.000 A 
ATOM     20  C   UNL     1       4.556   6.162  17.259  0.00  0.00    +0.000 A 
ATOM     21  N   UNL     1       3.851   7.139  17.867  0.00  0.00    +0.000 NA
ENDBRANCH   6  12
BRANCH   1  22
ATOM     22  O   UNL     1      -1.146  12.107  22.949  0.00  0.00    +0.000 OA
BRANCH  22  24
ATOM     23  O   UNL     1      -2.827  12.910  21.525  0.00  0.00    +0.000 OA
ATOM     24  C   UNL     1      -2.454  12.450  22.597  0.00  0.00    +0.000 C 
BRANCH  24  25
ATOM     25  C   UNL     1      -3.379  12.177  23.758  0.00  0.00    +0.000 C 
BRANCH  25  26
ATOM     26  C   UNL     1      -4.003  13.472  24.294  0.00  0.00    +0.000 C 
BRANCH  26  27
ATOM     27  C   UNL     1      -5.323  13.864  23.627  0.00  0.00    +0.000 C 
ATOM     28 CL   UNL     1      -6.640  12.754  24.071  0.00  0.00    +0.000 Cl
ENDBRANCH  26  27
ENDBRANCH  25  26
ENDBRANCH  24  25
ENDBRANCH  22  24
ENDBRANCH   1  22
TORSDOF 6
ENDMDL
MODEL 4
REMARK VINA RESULT:      -8.3      2.067      3.253
REMARK  Name = 
REMARK  6 active torsions:
REMARK  status: ('A' for Active; 'I' for Inactive)
REMARK    1  A    between atoms: C_2  and  C_3
REMARK    2  A    between atoms: C_2  and  O_7
REMARK    3  A    between atoms: C_3  and  C_4
REMARK    4  A    between atoms: C_4  and  C_5
REMARK    5  A    between atoms: O_7  and  C_8
REMARK    6  A    between atoms: C_13  and  C_14
REMARK                            x       y       z     vdW  Elec       q    Type
REMARK                         _______ _______ _______ _____ _____    ______ ____
ROOT
ATOM      1  C   UNL     1       4.430   5.181  18.374  0.00  0.00    +0.000 A 
ATOM      2  C   UNL     1       3.765   4.916  19.575  0.00  0.00    +0.000 A 
ATOM      3  C   UNL     1       2.785   5.805  20.046  0.00  0.00    +0.000 A 
ATOM      4  C   UNL     1       2.487   6.963  19.322  0.00  0.00    +0.000 A 
ATOM      5  C   UNL     1       1.486   7.933  19.747  0.00  0.00    +0.000 A 
ATOM      6  C   UNL     1       1.301   9.081  19.071  0.00  0.00    +0.000 A 
ATOM      7  C   UNL     1       2.167   9.396  17.899  0.00  0.00    +0.000 A 
ATOM      8  O   UNL     1       2.193  10.499  17.363  0.00  0.00    +0.000 OA
ATOM      9  O   UNL     1       2.942   8.363  17.390  0.00  0.00    +0.000 OA
ATOM     10  C   UNL     1       3.159   7.191  18.126  0.00  0.00    +0.000 A 
ATOM     11  C   UNL     1       4.103   6.302  17.624  0.00  0.00    +0.000 A 
ENDROOT
BRANCH   6  12
ATOM     12  C   UNL     1       0.251  10.041  19.504  0.00  0.00    +0.000 A 
ATOM     13  C   UNL     1      -0.658  10.590  18.604  0.00  0.00    +0.000 A 
ATOM     14  C   UNL     1      -1.608  11.494  19.061  0.00  0.00    +0.000 A 
ATOM     15  C   UNL     1      -1.651  11.825  20.416  0.00  0.00    +0.000 A 
ATOM     16  C   UNL     1      -2.595  12.737  20.917  0.00  0.00    +0.000 A 
ATOM     17  C   UNL     1      -2.621  13.043  22.274  0.00  0.00    +0.000 A 
ATOM     18  C   UNL     1      -1.707  12.440  23.130  0.00  0.00    +0.000 A 
ATOM     19  C   UNL     1      -0.766  11.536  22.623  0.00  0.00    +0.000 A 
ATOM     20  C   UNL     1      -0.716  11.212  21.273  0.00  0.00    +0.000 A 
ATOM     21  N   UNL     1       0.209  10.337  20.830  0.00  0.00    +0.000 NA
ENDBRANCH   6  12
BRANCH   1  22
ATOM     22  O   UNL     1       5.397   4.240  17.963  0.00  0.00    +0.000 OA
BRANCH  22  24
ATOM     23  O   UNL     1       7.531   4.890  18.689  0.00  0.00    +0.000 OA
ATOM     24  C   UNL     1       6.731   4.623  17.800  0.00  0.00    +0.000 C 
BRANCH  24  25
ATOM     25  C   UNL     1       7.067   4.673  16.329  0.00  0.00    +0.000 C 
BRANCH  25  26
ATOM     26  C   UNL     1       6.147   3.759  15.512  0.00  0.00    +0.000 C 
BRANCH  26  27
ATOM     27  C   UNL     1       5.625   4.378  14.215  0.00  0.00    +0.000 C 
ATOM     28 CL   UNL     1       6.361   3.624  12.782  0.00  0.00    +0.000 Cl
ENDBRANCH  26  27
ENDBRANCH  25  26
ENDBRANCH  24  25
ENDBRANCH  22  24
ENDBRANCH   1  22
TORSDOF 6
ENDMDL
MODEL 5
REMARK VINA RESULT:      -8.2      4.848     10.515
REMARK  Name = 
REMARK  6 active torsions:
REMARK  status: ('A' for Active; 'I' for Inactive)
REMARK    1  A    between atoms: C_2  and  C_3
REMARK    2  A    between atoms: C_2  and  O_7
REMARK    3  A    between atoms: C_3  and  C_4
REMARK    4  A    between atoms: C_4  and  C_5
REMARK    5  A    between atoms: O_7  and  C_8
REMARK    6  A    between atoms: C_13  and  C_14
REMARK                            x       y       z     vdW  Elec       q    Type
REMARK                         _______ _______ _______ _____ _____    ______ ____
ROOT
ATOM      1  C   UNL     1      -0.846  11.364  22.368  0.00  0.00    +0.000 A 
ATOM      2  C   UNL     1      -0.781  10.175  23.102  0.00  0.00    +0.000 A 
ATOM      3  C   UNL     1      -0.082   9.070  22.589  0.00  0.00    +0.000 A 
ATOM      4  C   UNL     1       0.533   9.153  21.337  0.00  0.00    +0.000 A 
ATOM      5  C   UNL     1       1.272   8.050  20.738  0.00  0.00    +0.000 A 
ATOM      6  C   UNL     1       1.765   8.141  19.489  0.00  0.00    +0.000 A 
ATOM      7  C   UNL     1       1.508   9.368  18.682  0.00  0.00    +0.000 A 
ATOM      8  O   UNL     1       1.749   9.441  17.481  0.00  0.00    +0.000 OA
ATOM      9  O   UNL     1       1.007  10.473  19.354  0.00  0.00    +0.000 OA
ATOM     10  C   UNL     1       0.459  10.352  20.637  0.00  0.00    +0.000 A 
ATOM     11  C   UNL     1      -0.194  11.470  21.147  0.00  0.00    +0.000 A 
ENDROOT
BRANCH   6  12
ATOM     12  C   UNL     1       2.544   7.015  18.910  0.00  0.00    +0.000 A 
ATOM     13  C   UNL     1       2.403   5.710  19.374  0.00  0.00    +0.000 A 
ATOM     14  C   UNL     1       3.168   4.698  18.807  0.00  0.00    +0.000 A 
ATOM     15  C   UNL     1       4.051   5.000  17.770  0.00  0.00    +0.000 A 
ATOM     16  C   UNL     1       4.844   4.006  17.172  0.00  0.00    +0.000 A 
ATOM     17  C   UNL     1       5.711   4.333  16.133  0.00  0.00    +0.000 A 
ATOM     18  C   UNL     1       5.787   5.648  15.692  0.00  0.00    +0.000 A 
ATOM     19  C   UNL     1       4.997   6.634  16.296  0.00  0.00    +0.000 A 
ATOM     20  C   UNL     1       4.124   6.337  17.334  0.00  0.00    +0.000 A 
ATOM     21  N   UNL     1       3.384   7.320  17.887  0.00  0.00    +0.000 NA
ENDBRANCH   6  12
BRANCH   1  22
ATOM     22  O   UNL     1      -1.560  12.432  22.950  0.00  0.00    +0.000 OA
BRANCH  22  24
ATOM     23  O   UNL     1      -3.600  11.966  24.009  0.00  0.00    +0.000 OA
ATOM     24  C   UNL     1      -2.952  12.377  23.054  0.00  0.00    +0.000 C 
BRANCH  24  25
ATOM     25  C   UNL     1      -3.576  12.904  21.784  0.00  0.00    +0.000 C 
BRANCH  25  26
ATOM     26  C   UNL     1      -4.481  14.110  22.062  0.00  0.00    +0.000 C 
BRANCH  26  27
ATOM     27  C   UNL     1      -3.776  15.292  22.730  0.00  0.00    +0.000 C 
ATOM     28 CL   UNL     1      -4.412  15.601  24.362  0.00  0.00    +0.000 Cl
ENDBRANCH  26  27
ENDBRANCH  25  26
ENDBRANCH  24  25
ENDBRANCH  22  24
ENDBRANCH   1  22
TORSDOF 6
ENDMDL
MODEL 6
REMARK VINA RESULT:      -8.1      0.792      1.494
REMARK  Name = 
REMARK  6 active torsions:
REMARK  status: ('A' for Active; 'I' for Inactive)
REMARK    1  A    between atoms: C_2  and  C_3
REMARK    2  A    between atoms: C_2  and  O_7
REMARK    3  A    between atoms: C_3  and  C_4
REMARK    4  A    between atoms: C_4  and  C_5
REMARK    5  A    between atoms: O_7  and  C_8
REMARK    6  A    between atoms: C_13  and  C_14
REMARK                            x       y       z     vdW  Elec       q    Type
REMARK                         _______ _______ _______ _____ _____    ______ ____
ROOT
ATOM      1  C   UNL     1       5.470   5.007  15.966  0.00  0.00    +0.000 A 
ATOM      2  C   UNL     1       5.310   6.226  15.300  0.00  0.00    +0.000 A 
ATOM      3  C   UNL     1       4.512   7.236  15.863  0.00  0.00    +0.000 A 
ATOM      4  C   UNL     1       3.864   7.014  17.081  0.00  0.00    +0.000 A 
ATOM      5  C   UNL     1       3.019   8.011  17.726  0.00  0.00    +0.000 A 
ATOM      6  C   UNL     1       2.336   7.722  18.849  0.00  0.00    +0.000 A 
ATOM      7  C   UNL     1       2.400   6.344  19.416  0.00  0.00    +0.000 A 
ATOM      8  O   UNL     1       1.657   5.954  20.311  0.00  0.00    +0.000 OA
ATOM      9  O   UNL     1       3.381   5.499  18.917  0.00  0.00    +0.000 OA
ATOM     10  C   UNL     1       4.052   5.796  17.723  0.00  0.00    +0.000 A 
ATOM     11  C   UNL     1       4.871   4.800  17.201  0.00  0.00    +0.000 A 
ENDROOT
BRANCH   6  12
ATOM     12  C   UNL     1       1.506   8.764  19.507  0.00  0.00    +0.000 A 
ATOM     13  C   UNL     1       1.124   9.926  18.843  0.00  0.00    +0.000 A 
ATOM     14  C   UNL     1       0.360  10.874  19.512  0.00  0.00    +0.000 A 
ATOM     15  C   UNL     1      -0.029  10.640  20.831  0.00  0.00    +0.000 A 
ATOM     16  C   UNL     1      -0.799  11.576  21.543  0.00  0.00    +0.000 A 
ATOM     17  C   UNL     1      -1.181  11.313  22.855  0.00  0.00    +0.000 A 
ATOM     18  C   UNL     1      -0.796  10.122  23.456  0.00  0.00    +0.000 A 
ATOM     19  C   UNL     1      -0.024   9.197  22.743  0.00  0.00    +0.000 A 
ATOM     20  C   UNL     1       0.372   9.432  21.432  0.00  0.00    +0.000 A 
ATOM     21  N   UNL     1       1.116   8.513  20.785  0.00  0.00    +0.000 NA
ENDBRANCH   6  12
BRANCH   1  22
ATOM     22  O   UNL     1       6.290   4.045  15.342  0.00  0.00    +0.000 OA
BRANCH  22  24
ATOM     23  O   UNL     1       7.877   5.239  14.095  0.00  0.00    +0.000 OA
ATOM     24  C   UNL     1       7.016   4.373  14.194  0.00  0.00    +0.000 C 
BRANCH  24  25
ATOM     25  C   UNL     1       6.579   3.493  13.048  0.00  0.00    +0.000 C 
BRANCH  25  26
ATOM     26  C   UNL     1       5.134   3.793  12.631  0.00  0.00    +0.000 C 
BRANCH  26  27
ATOM     27  C   UNL     1       4.607   2.919  11.492  0.00  0.00    +0.000 C 
ATOM     28 CL   UNL     1       3.394   3.775  10.512  0.00  0.00    +0.000 Cl
ENDBRANCH  26  27
ENDBRANCH  25  26
ENDBRANCH  24  25
ENDBRANCH  22  24
ENDBRANCH   1  22
TORSDOF 6
ENDMDL
MODEL 7
REMARK VINA RESULT:      -8.1      3.389      4.418
REMARK  Name = 
REMARK  6 active torsions:
REMARK  status: ('A' for Active; 'I' for Inactive)
REMARK    1  A    between atoms: C_2  and  C_3
REMARK    2  A    between atoms: C_2  and  O_7
REMARK    3  A    between atoms: C_3  and  C_4
REMARK    4  A    between atoms: C_4  and  C_5
REMARK    5  A    between atoms: O_7  and  C_8
REMARK    6  A    between atoms: C_13  and  C_14
REMARK                            x       y       z     vdW  Elec       q    Type
REMARK                         _______ _______ _______ _____ _____    ______ ____
ROOT
ATOM      1  C   UNL     1       4.024   5.426  18.504  0.00  0.00    +0.000 A 
ATOM      2  C   UNL     1       4.045   6.294  17.408  0.00  0.00    +0.000 A 
ATOM      3  C   UNL     1       3.299   7.484  17.440  0.00  0.00    +0.000 A 
ATOM      4  C   UNL     1       2.522   7.791  18.560  0.00  0.00    +0.000 A 
ATOM      5  C   UNL     1       1.721   9.003  18.666  0.00  0.00    +0.000 A 
ATOM      6  C   UNL     1       0.913   9.213  19.721  0.00  0.00    +0.000 A 
ATOM      7  C   UNL     1       0.791   8.165  20.776  0.00  0.00    +0.000 A 
ATOM      8  O   UNL     1      -0.066   8.196  21.652  0.00  0.00    +0.000 OA
ATOM      9  O   UNL     1       1.728   7.142  20.762  0.00  0.00    +0.000 OA
ATOM     10  C   UNL     1       2.532   6.912  19.637  0.00  0.00    +0.000 A 
ATOM     11  C   UNL     1       3.296   5.750  19.641  0.00  0.00    +0.000 A 
ENDROOT
BRANCH   6  12
ATOM     12  C   UNL     1       0.129  10.472  19.823  0.00  0.00    +0.000 A 
ATOM     13  C   UNL     1      -1.070  10.648  19.138  0.00  0.00    +0.000 A 
ATOM     14  C   UNL     1      -1.753  11.851  19.258  0.00  0.00    +0.000 A 
ATOM     15  C   UNL     1      -1.240  12.857  20.077  0.00  0.00    +0.000 A 
ATOM     16  C   UNL     1      -1.900  14.090  20.222  0.00  0.00    +0.000 A 
ATOM     17  C   UNL     1      -1.370  15.073  21.052  0.00  0.00    +0.000 A 
ATOM     18  C   UNL     1      -0.185  14.828  21.735  0.00  0.00    +0.000 A 
ATOM     19  C   UNL     1       0.470  13.600  21.581  0.00  0.00    +0.000 A 
ATOM     20  C   UNL     1      -0.035  12.601  20.760  0.00  0.00    +0.000 A 
ATOM     21  N   UNL     1       0.631  11.434  20.641  0.00  0.00    +0.000 NA
ENDBRANCH   6  12
BRANCH   1  22
ATOM     22  O   UNL     1       4.802   4.254  18.401  0.00  0.00    +0.000 OA
BRANCH  22  24
ATOM     23  O   UNL     1       4.678   2.475  19.925  0.00  0.00    +0.000 OA
ATOM     24  C   UNL     1       4.320   3.040  18.899  0.00  0.00    +0.000 C 
BRANCH  24  25
ATOM     25  C   UNL     1       3.266   2.493  17.966  0.00  0.00    +0.000 C 
BRANCH  25  26
ATOM     26  C   UNL     1       2.087   1.894  18.743  0.00  0.00    +0.000 C 
BRANCH  26  27
ATOM     27  C   UNL     1       1.041   2.914  19.196  0.00  0.00    +0.000 C 
ATOM     28 CL   UNL     1       1.122   3.206  20.949  0.00  0.00    +0.000 Cl
ENDBRANCH  26  27
ENDBRANCH  25  26
ENDBRANCH  24  25
ENDBRANCH  22  24
ENDBRANCH   1  22
TORSDOF 6
ENDMDL
MODEL 8
REMARK VINA RESULT:      -8.0      2.930      4.035
REMARK  Name = 
REMARK  6 active torsions:
REMARK  status: ('A' for Active; 'I' for Inactive)
REMARK    1  A    between atoms: C_2  and  C_3
REMARK    2  A    between atoms: C_2  and  O_7
REMARK    3  A    between atoms: C_3  and  C_4
REMARK    4  A    between atoms: C_4  and  C_5
REMARK    5  A    between atoms: O_7  and  C_8
REMARK    6  A    between atoms: C_13  and  C_14
REMARK                            x       y       z     vdW  Elec       q    Type
REMARK                         _______ _______ _______ _____ _____    ______ ____
ROOT
ATOM      1  C   UNL     1       4.290   5.077  18.388  0.00  0.00    +0.000 A 
ATOM      2  C   UNL     1       3.633   4.833  19.599  0.00  0.00    +0.000 A 
ATOM      3  C   UNL     1       2.681   5.748  20.077  0.00  0.00    +0.000 A 
ATOM      4  C   UNL     1       2.402   6.909  19.352  0.00  0.00    +0.000 A 
ATOM      5  C   UNL     1       1.430   7.905  19.785  0.00  0.00    +0.000 A 
ATOM      6  C   UNL     1       1.263   9.054  19.106  0.00  0.00    +0.000 A 
ATOM      7  C   UNL     1       2.122   9.343  17.921  0.00  0.00    +0.000 A 
ATOM      8  O   UNL     1       2.168  10.442  17.380  0.00  0.00    +0.000 OA
ATOM      9  O   UNL     1       2.866   8.290  17.408  0.00  0.00    +0.000 OA
ATOM     10  C   UNL     1       3.064   7.116  18.147  0.00  0.00    +0.000 A 
ATOM     11  C   UNL     1       3.980   6.202  17.636  0.00  0.00    +0.000 A 
ENDROOT
BRANCH   6  12
ATOM     12  C   UNL     1       0.243  10.041  19.547  0.00  0.00    +0.000 A 
ATOM     13  C   UNL     1      -0.616  10.662  18.645  0.00  0.00    +0.000 A 
ATOM     14  C   UNL     1      -1.541  11.588  19.111  0.00  0.00    +0.000 A 
ATOM     15  C   UNL     1      -1.609  11.868  20.476  0.00  0.00    +0.000 A 
ATOM     16  C   UNL     1      -2.528  12.800  20.986  0.00  0.00    +0.000 A 
ATOM     17  C   UNL     1      -2.580  13.055  22.354  0.00  0.00    +0.000 A 
ATOM     18  C   UNL     1      -1.718  12.382  23.210  0.00  0.00    +0.000 A 
ATOM     19  C   UNL     1      -0.801  11.458  22.693  0.00  0.00    +0.000 A 
ATOM     20  C   UNL     1      -0.726  11.184  21.334  0.00  0.00    +0.000 A 
ATOM     21  N   UNL     1       0.174  10.288  20.882  0.00  0.00    +0.000 NA
ENDBRANCH   6  12
BRANCH   1  22
ATOM     22  O   UNL     1       5.228   4.111  17.969  0.00  0.00    +0.000 OA
BRANCH  22  24
ATOM     23  O   UNL     1       5.382   3.996  15.631  0.00  0.00    +0.000 OA
ATOM     24  C   UNL     1       5.866   4.235  16.732  0.00  0.00    +0.000 C 
BRANCH  24  25
ATOM     25  C   UNL     1       7.283   4.713  16.937  0.00  0.00    +0.000 C 
BRANCH  25  26
ATOM     26  C   UNL     1       7.376   6.241  16.859  0.00  0.00    +0.000 C 
BRANCH  26  27
ATOM     27  C   UNL     1       7.755   6.923  18.174  0.00  0.00    +0.000 C 
ATOM     28 CL   UNL     1       7.810   5.766  19.524  0.00  0.00    +0.000 Cl
ENDBRANCH  26  27
ENDBRANCH  25  26
ENDBRANCH  24  25
ENDBRANCH  22  24
ENDBRANCH   1  22
TORSDOF 6
ENDMDL
MODEL 9
REMARK VINA RESULT:      -8.0      3.293      4.394
REMARK  Name = 
REMARK  6 active torsions:
REMARK  status: ('A' for Active; 'I' for Inactive)
REMARK    1  A    between atoms: C_2  and  C_3
REMARK    2  A    between atoms: C_2  and  O_7
REMARK    3  A    between atoms: C_3  and  C_4
REMARK    4  A    between atoms: C_4  and  C_5
REMARK    5  A    between atoms: O_7  and  C_8
REMARK    6  A    between atoms: C_13  and  C_14
REMARK                            x       y       z     vdW  Elec       q    Type
REMARK                         _______ _______ _______ _____ _____    ______ ____
ROOT
ATOM      1  C   UNL     1       3.634   6.120  18.380  0.00  0.00    +0.000 A 
ATOM      2  C   UNL     1       3.595   7.112  17.394  0.00  0.00    +0.000 A 
ATOM      3  C   UNL     1       2.798   8.254  17.578  0.00  0.00    +0.000 A 
ATOM      4  C   UNL     1       2.030   8.389  18.738  0.00  0.00    +0.000 A 
ATOM      5  C   UNL     1       1.178   9.542  18.999  0.00  0.00    +0.000 A 
ATOM      6  C   UNL     1       0.382   9.587  20.083  0.00  0.00    +0.000 A 
ATOM      7  C   UNL     1       0.328   8.418  21.007  0.00  0.00    +0.000 A 
ATOM      8  O   UNL     1      -0.513   8.304  21.893  0.00  0.00    +0.000 OA
ATOM      9  O   UNL     1       1.308   7.448  20.858  0.00  0.00    +0.000 OA
ATOM     10  C   UNL     1       2.100   7.391  19.703  0.00  0.00    +0.000 A 
ATOM     11  C   UNL     1       2.914   6.273  19.557  0.00  0.00    +0.000 A 
ENDROOT
BRANCH   6  12
ATOM     12  C   UNL     1      -0.455  10.787  20.345  0.00  0.00    +0.000 A 
ATOM     13  C   UNL     1      -1.407  11.233  19.433  0.00  0.00    +0.000 A 
ATOM     14  C   UNL     1      -2.150  12.370  19.723  0.00  0.00    +0.000 A 
ATOM     15  C   UNL     1      -1.947  13.037  20.931  0.00  0.00    +0.000 A 
ATOM     16  C   UNL     1      -2.677  14.192  21.261  0.00  0.00    +0.000 A 
ATOM     17  C   UNL     1      -2.460  14.833  22.477  0.00  0.00    +0.000 A 
ATOM     18  C   UNL     1      -1.518  14.324  23.362  0.00  0.00    +0.000 A 
ATOM     19  C   UNL     1      -0.791  13.176  23.024  0.00  0.00    +0.000 A 
ATOM     20  C   UNL     1      -0.985  12.516  21.818  0.00  0.00    +0.000 A 
ATOM     21  N   UNL     1      -0.261  11.414  21.535  0.00  0.00    +0.000 NA
ENDBRANCH   6  12
BRANCH   1  22
ATOM     22  O   UNL     1       4.461   5.006  18.127  0.00  0.00    +0.000 OA
BRANCH  22  24
ATOM     23  O   UNL     1       5.206   3.483  19.747  0.00  0.00    +0.000 OA
ATOM     24  C   UNL     1       5.323   4.527  19.117  0.00  0.00    +0.000 C 
BRANCH  24  25
ATOM     25  C   UNL     1       6.454   5.505  19.321  0.00  0.00    +0.000 C 
BRANCH  25  26
ATOM     26  C   UNL     1       7.447   5.465  18.153  0.00  0.00    +0.000 C 
BRANCH  26  27
ATOM     27  C   UNL     1       7.320   6.630  17.171  0.00  0.00    +0.000 C 
ATOM     28 CL   UNL     1       7.976   8.138  17.850  0.00  0.00    +0.000 Cl
ENDBRANCH  26  27
ENDBRANCH  25  26
ENDBRANCH  24  25
ENDBRANCH  22  24
ENDBRANCH   1  22
TORSDOF 6
ENDMDL
