MODEL 1
REMARK VINA RESULT:      -6.6      0.000      0.000
REMARK  Name = 
REMARK  7 active torsions:
REMARK  status: ('A' for Active; 'I' for Inactive)
REMARK    1  A    between atoms: C_1  and  O_2
REMARK    2  A    between atoms: O_2  and  C_3
REMARK    3  A    between atoms: C_3  and  C_4
REMARK    4  A    between atoms: C_4  and  N_5
REMARK    5  A    between atoms: N_5  and  N_6
REMARK    6  A    between atoms: C_11  and  O_12
REMARK    7  A    between atoms: O_12  and  C_13
REMARK                            x       y       z     vdW  Elec       q    Type
REMARK                         _______ _______ _______ _____ _____    ______ ____
ROOT
ATOM      1  N   UNL     1       3.102   2.244  19.254  0.00  0.00    +0.000 N 
ATOM      2  C   UNL     1       4.002   3.052  18.606  0.00  0.00    +0.000 A 
ATOM      3  N   UNL     1       4.786   3.994  19.100  0.00  0.00    +0.000 NA
ATOM      4  C   UNL     1       5.441   4.496  18.003  0.00  0.00    +0.000 A 
ATOM      5  C   UNL     1       6.376   5.532  17.873  0.00  0.00    +0.000 A 
ATOM      6  C   UNL     1       6.866   5.841  16.592  0.00  0.00    +0.000 A 
ATOM      7  C   UNL     1       6.433   5.117  15.470  0.00  0.00    +0.000 A 
ATOM      8  C   UNL     1       5.509   4.069  15.587  0.00  0.00    +0.000 A 
ATOM      9  C   UNL     1       5.048   3.809  16.870  0.00  0.00    +0.000 A 
ATOM     10  O   UNL     1       4.138   2.871  17.245  0.00  0.00    +0.000 OA
ENDROOT
BRANCH   1  11
ATOM     11  N   UNL     1       1.990   1.900  18.414  0.00  0.00    +0.000 NA
ATOM     12  H   UNL     1       1.172   2.444  18.692  0.00  0.00    +0.000 HD
ATOM     13  H   UNL     1       1.721   0.931  18.626  0.00  0.00    +0.000 HD
ENDBRANCH   1  11
BRANCH   6  14
ATOM     14  O   UNL     1       7.762   6.879  16.569  0.00  0.00    +0.000 OA
ATOM     15  C   UNL     1       7.658   7.845  17.608  0.00  0.00    +0.000 C 
ENDBRANCH   6  14
BRANCH   1  16
ATOM     16  C   UNL     1       2.856   2.586  20.669  0.00  0.00    +0.000 C 
BRANCH  16  17
ATOM     17  C   UNL     1       1.362   2.752  20.993  0.00  0.00    +0.000 C 
BRANCH  17  19
ATOM     18  C   UNL     1       1.677   5.088  20.826  0.00  0.00    +0.000 C 
ATOM     19  O   UNL     1       0.862   3.983  20.461  0.00  0.00    +0.000 OA
ENDBRANCH  17  19
ENDBRANCH  16  17
ENDBRANCH   1  16
TORSDOF 5
ENDMDL
MODEL 2
REMARK VINA RESULT:      -6.2      1.808      2.494
REMARK  Name = 
REMARK  7 active torsions:
REMARK  status: ('A' for Active; 'I' for Inactive)
REMARK    1  A    between atoms: C_1  and  O_2
REMARK    2  A    between atoms: O_2  and  C_3
REMARK    3  A    between atoms: C_3  and  C_4
REMARK    4  A    between atoms: C_4  and  N_5
REMARK    5  A    between atoms: N_5  and  N_6
REMARK    6  A    between atoms: C_11  and  O_12
REMARK    7  A    between atoms: O_12  and  C_13
REMARK                            x       y       z     vdW  Elec       q    Type
REMARK                         _______ _______ _______ _____ _____    ______ ____
ROOT
ATOM      1  N   UNL     1       3.787   2.983  18.733  0.00  0.00    +0.000 N 
ATOM      2  C   UNL     1       4.655   4.032  18.561  0.00  0.00    +0.000 A 
ATOM      3  N   UNL     1       4.553   5.080  17.763  0.00  0.00    +0.000 NA
ATOM      4  C   UNL     1       5.715   5.779  17.974  0.00  0.00    +0.000 A 
ATOM      5  C   UNL     1       6.207   6.959  17.398  0.00  0.00    +0.000 A 
ATOM      6  C   UNL     1       7.466   7.434  17.806  0.00  0.00    +0.000 A 
ATOM      7  C   UNL     1       8.207   6.743  18.777  0.00  0.00    +0.000 A 
ATOM      8  C   UNL     1       7.721   5.570  19.372  0.00  0.00    +0.000 A 
ATOM      9  C   UNL     1       6.479   5.136  18.929  0.00  0.00    +0.000 A 
ATOM     10  O   UNL     1       5.804   4.024  19.325  0.00  0.00    +0.000 OA
ENDROOT
BRANCH   1  11
ATOM     11  N   UNL     1       4.475   1.768  19.067  0.00  0.00    +0.000 NA
ATOM     12  H   UNL     1       4.033   0.984  18.586  0.00  0.00    +0.000 HD
ATOM     13  H   UNL     1       4.305   1.572  20.061  0.00  0.00    +0.000 HD
ENDBRANCH   1  11
BRANCH   6  14
ATOM     14  O   UNL     1       7.864   8.583  17.173  0.00  0.00    +0.000 OA
ATOM     15  C   UNL     1       8.323   9.649  17.996  0.00  0.00    +0.000 C 
ENDBRANCH   6  14
BRANCH   1  16
ATOM     16  C   UNL     1       2.663   2.935  17.777  0.00  0.00    +0.000 C 
BRANCH  16  17
ATOM     17  C   UNL     1       1.299   2.777  18.466  0.00  0.00    +0.000 C 
BRANCH  17  19
ATOM     18  C   UNL     1       1.228   3.098  20.806  0.00  0.00    +0.000 C 
ATOM     19  O   UNL     1       1.448   2.170  19.754  0.00  0.00    +0.000 OA
ENDBRANCH  17  19
ENDBRANCH  16  17
ENDBRANCH   1  16
TORSDOF 5
ENDMDL
MODEL 3
REMARK VINA RESULT:      -5.9      2.241      6.147
REMARK  Name = 
REMARK  7 active torsions:
REMARK  status: ('A' for Active; 'I' for Inactive)
REMARK    1  A    between atoms: C_1  and  O_2
REMARK    2  A    between atoms: O_2  and  C_3
REMARK    3  A    between atoms: C_3  and  C_4
REMARK    4  A    between atoms: C_4  and  N_5
REMARK    5  A    between atoms: N_5  and  N_6
REMARK    6  A    between atoms: C_11  and  O_12
REMARK    7  A    between atoms: O_12  and  C_13
REMARK                            x       y       z     vdW  Elec       q    Type
REMARK                         _______ _______ _______ _____ _____    ______ ____
ROOT
ATOM      1  N   UNL     1       6.621   6.265  16.991  0.00  0.00    +0.000 N 
ATOM      2  C   UNL     1       5.565   5.569  17.524  0.00  0.00    +0.000 A 
ATOM      3  N   UNL     1       5.181   5.469  18.785  0.00  0.00    +0.000 NA
ATOM      4  C   UNL     1       4.099   4.624  18.741  0.00  0.00    +0.000 A 
ATOM      5  C   UNL     1       3.281   4.109  19.756  0.00  0.00    +0.000 A 
ATOM      6  C   UNL     1       2.241   3.230  19.403  0.00  0.00    +0.000 A 
ATOM      7  C   UNL     1       2.024   2.888  18.060  0.00  0.00    +0.000 A 
ATOM      8  C   UNL     1       2.825   3.408  17.033  0.00  0.00    +0.000 A 
ATOM      9  C   UNL     1       3.844   4.261  17.432  0.00  0.00    +0.000 A 
ATOM     10  O   UNL     1       4.766   4.872  16.641  0.00  0.00    +0.000 OA
ENDROOT
BRANCH   1  11
ATOM     11  N   UNL     1       7.152   5.620  15.824  0.00  0.00    +0.000 NA
ATOM     12  H   UNL     1       7.504   4.696  16.077  0.00  0.00    +0.000 HD
ATOM     13  H   UNL     1       7.995   6.132  15.537  0.00  0.00    +0.000 HD
ENDBRANCH   1  11
BRANCH   6  14
ATOM     14  O   UNL     1       1.511   2.770  20.468  0.00  0.00    +0.000 OA
ATOM     15  C   UNL     1       1.985   3.100  21.768  0.00  0.00    +0.000 C 
ENDBRANCH   6  14
BRANCH   1  16
ATOM     16  C   UNL     1       7.551   6.848  17.979  0.00  0.00    +0.000 C 
BRANCH  16  17
ATOM     17  C   UNL     1       7.871   8.325  17.697  0.00  0.00    +0.000 C 
BRANCH  17  19
ATOM     18  C   UNL     1       8.927  10.259  18.548  0.00  0.00    +0.000 C 
ATOM     19  O   UNL     1       8.711   8.867  18.721  0.00  0.00    +0.000 OA
ENDBRANCH  17  19
ENDBRANCH  16  17
ENDBRANCH   1  16
TORSDOF 5
ENDMDL
MODEL 4
REMARK VINA RESULT:      -5.9      2.440      6.270
REMARK  Name = 
REMARK  7 active torsions:
REMARK  status: ('A' for Active; 'I' for Inactive)
REMARK    1  A    between atoms: C_1  and  O_2
REMARK    2  A    between atoms: O_2  and  C_3
REMARK    3  A    between atoms: C_3  and  C_4
REMARK    4  A    between atoms: C_4  and  N_5
REMARK    5  A    between atoms: N_5  and  N_6
REMARK    6  A    between atoms: C_11  and  O_12
REMARK    7  A    between atoms: O_12  and  C_13
REMARK                            x       y       z     vdW  Elec       q    Type
REMARK                         _______ _______ _______ _____ _____    ______ ____
ROOT
ATOM      1  N   UNL     1       6.054   5.814  16.372  0.00  0.00    +0.000 N 
ATOM      2  C   UNL     1       5.197   5.580  17.419  0.00  0.00    +0.000 A 
ATOM      3  N   UNL     1       5.100   4.517  18.198  0.00  0.00    +0.000 NA
ATOM      4  C   UNL     1       4.058   4.813  19.041  0.00  0.00    +0.000 A 
ATOM      5  C   UNL     1       3.453   4.072  20.067  0.00  0.00    +0.000 A 
ATOM      6  C   UNL     1       2.368   4.638  20.758  0.00  0.00    +0.000 A 
ATOM      7  C   UNL     1       1.908   5.923  20.431  0.00  0.00    +0.000 A 
ATOM      8  C   UNL     1       2.512   6.682  19.418  0.00  0.00    +0.000 A 
ATOM      9  C   UNL     1       3.572   6.076  18.759  0.00  0.00    +0.000 A 
ATOM     10  O   UNL     1       4.304   6.584  17.732  0.00  0.00    +0.000 OA
ENDROOT
BRANCH   1  11
ATOM     11  N   UNL     1       5.457   6.647  15.367  0.00  0.00    +0.000 NA
ATOM     12  H   UNL     1       5.033   7.463  15.810  0.00  0.00    +0.000 HD
ATOM     13  H   UNL     1       4.656   6.140  14.972  0.00  0.00    +0.000 HD
ENDBRANCH   1  11
BRANCH   6  14
ATOM     14  O   UNL     1       1.838   3.828  21.729  0.00  0.00    +0.000 OA
ATOM     15  C   UNL     1       1.742   2.440  21.432  0.00  0.00    +0.000 C 
ENDBRANCH   6  14
BRANCH   1  16
ATOM     16  C   UNL     1       6.868   4.654  15.956  0.00  0.00    +0.000 C 
BRANCH  16  17
ATOM     17  C   UNL     1       6.196   3.818  14.855  0.00  0.00    +0.000 C 
BRANCH  17  19
ATOM     18  C   UNL     1       6.039   3.478  12.523  0.00  0.00    +0.000 C 
ATOM     19  O   UNL     1       6.566   4.295  13.558  0.00  0.00    +0.000 OA
ENDBRANCH  17  19
ENDBRANCH  16  17
ENDBRANCH   1  16
TORSDOF 5
ENDMDL
MODEL 5
REMARK VINA RESULT:      -5.8      2.444      6.547
REMARK  Name = 
REMARK  7 active torsions:
REMARK  status: ('A' for Active; 'I' for Inactive)
REMARK    1  A    between atoms: C_1  and  O_2
REMARK    2  A    between atoms: O_2  and  C_3
REMARK    3  A    between atoms: C_3  and  C_4
REMARK    4  A    between atoms: C_4  and  N_5
REMARK    5  A    between atoms: N_5  and  N_6
REMARK    6  A    between atoms: C_11  and  O_12
REMARK    7  A    between atoms: O_12  and  C_13
REMARK                            x       y       z     vdW  Elec       q    Type
REMARK                         _______ _______ _______ _____ _____    ______ ____
ROOT
ATOM      1  N   UNL     1       5.360   5.562  15.650  0.00  0.00    +0.000 N 
ATOM      2  C   UNL     1       4.533   5.332  16.721  0.00  0.00    +0.000 A 
ATOM      3  N   UNL     1       3.955   4.207  17.104  0.00  0.00    +0.000 NA
ATOM      4  C   UNL     1       3.218   4.566  18.205  0.00  0.00    +0.000 A 
ATOM      5  C   UNL     1       2.363   3.824  19.033  0.00  0.00    +0.000 A 
ATOM      6  C   UNL     1       1.715   4.480  20.094  0.00  0.00    +0.000 A 
ATOM      7  C   UNL     1       1.930   5.848  20.322  0.00  0.00    +0.000 A 
ATOM      8  C   UNL     1       2.793   6.599  19.511  0.00  0.00    +0.000 A 
ATOM      9  C   UNL     1       3.401   5.909  18.472  0.00  0.00    +0.000 A 
ATOM     10  O   UNL     1       4.254   6.408  17.538  0.00  0.00    +0.000 OA
ENDROOT
BRANCH   1  11
ATOM     11  N   UNL     1       5.212   6.894  15.136  0.00  0.00    +0.000 NA
ATOM     12  H   UNL     1       6.047   7.438  15.356  0.00  0.00    +0.000 HD
ATOM     13  H   UNL     1       4.470   7.359  15.672  0.00  0.00    +0.000 HD
ENDBRANCH   1  11
BRANCH   6  14
ATOM     14  O   UNL     1       0.890   3.672  20.832  0.00  0.00    +0.000 OA
ATOM     15  C   UNL     1       1.493   2.570  21.500  0.00  0.00    +0.000 C 
ENDBRANCH   6  14
BRANCH   1  16
ATOM     16  C   UNL     1       5.491   4.436  14.704  0.00  0.00    +0.000 C 
BRANCH  16  17
ATOM     17  C   UNL     1       6.923   4.268  14.170  0.00  0.00    +0.000 C 
BRANCH  17  19
ATOM     18  C   UNL     1       8.277   5.694  12.862  0.00  0.00    +0.000 C 
ATOM     19  O   UNL     1       7.587   5.533  14.092  0.00  0.00    +0.000 OA
ENDBRANCH  17  19
ENDBRANCH  16  17
ENDBRANCH   1  16
TORSDOF 5
ENDMDL
MODEL 6
REMARK VINA RESULT:      -5.8      1.013      1.117
REMARK  Name = 
REMARK  7 active torsions:
REMARK  status: ('A' for Active; 'I' for Inactive)
REMARK    1  A    between atoms: C_1  and  O_2
REMARK    2  A    between atoms: O_2  and  C_3
REMARK    3  A    between atoms: C_3  and  C_4
REMARK    4  A    between atoms: C_4  and  N_5
REMARK    5  A    between atoms: N_5  and  N_6
REMARK    6  A    between atoms: C_11  and  O_12
REMARK    7  A    between atoms: O_12  and  C_13
REMARK                            x       y       z     vdW  Elec       q    Type
REMARK                         _______ _______ _______ _____ _____    ______ ____
ROOT
ATOM      1  N   UNL     1       2.642   2.627  18.574  0.00  0.00    +0.000 N 
ATOM      2  C   UNL     1       3.700   3.479  18.377  0.00  0.00    +0.000 A 
ATOM      3  N   UNL     1       4.579   3.938  19.252  0.00  0.00    +0.000 NA
ATOM      4  C   UNL     1       5.382   4.772  18.516  0.00  0.00    +0.000 A 
ATOM      5  C   UNL     1       6.470   5.576  18.883  0.00  0.00    +0.000 A 
ATOM      6  C   UNL     1       7.096   6.357  17.895  0.00  0.00    +0.000 A 
ATOM      7  C   UNL     1       6.643   6.320  16.567  0.00  0.00    +0.000 A 
ATOM      8  C   UNL     1       5.566   5.510  16.182  0.00  0.00    +0.000 A 
ATOM      9  C   UNL     1       4.976   4.767  17.195  0.00  0.00    +0.000 A 
ATOM     10  O   UNL     1       3.909   3.930  17.090  0.00  0.00    +0.000 OA
ENDROOT
BRANCH   1  11
ATOM     11  N   UNL     1       1.558   2.905  17.676  0.00  0.00    +0.000 NA
ATOM     12  H   UNL     1       0.971   3.642  18.069  0.00  0.00    +0.000 HD
ATOM     13  H   UNL     1       0.941   2.084  17.663  0.00  0.00    +0.000 HD
ENDBRANCH   1  11
BRANCH   6  14
ATOM     14  O   UNL     1       8.137   7.118  18.358  0.00  0.00    +0.000 OA
ATOM     15  C   UNL     1       8.149   8.491  17.986  0.00  0.00    +0.000 C 
ENDBRANCH   6  14
BRANCH   1  16
ATOM     16  C   UNL     1       2.346   2.310  19.986  0.00  0.00    +0.000 C 
BRANCH  16  17
ATOM     17  C   UNL     1       1.279   3.234  20.594  0.00  0.00    +0.000 C 
BRANCH  17  19
ATOM     18  C   UNL     1       1.657   5.565  20.674  0.00  0.00    +0.000 C 
ATOM     19  O   UNL     1       1.889   4.315  21.306  0.00  0.00    +0.000 OA
ENDBRANCH  17  19
ENDBRANCH  16  17
ENDBRANCH   1  16
TORSDOF 5
ENDMDL
MODEL 7
REMARK VINA RESULT:      -5.7      3.464      6.391
REMARK  Name = 
REMARK  7 active torsions:
REMARK  status: ('A' for Active; 'I' for Inactive)
REMARK    1  A    between atoms: C_1  and  O_2
REMARK    2  A    between atoms: O_2  and  C_3
REMARK    3  A    between atoms: C_3  and  C_4
REMARK    4  A    between atoms: C_4  and  N_5
REMARK    5  A    between atoms: N_5  and  N_6
REMARK    6  A    between atoms: C_11  and  O_12
REMARK    7  A    between atoms: O_12  and  C_13
REMARK                            x       y       z     vdW  Elec       q    Type
REMARK                         _______ _______ _______ _____ _____    ______ ____
ROOT
ATOM      1  N   UNL     1       7.234   4.533  13.573  0.00  0.00    +0.000 N 
ATOM      2  C   UNL     1       6.733   4.573  14.850  0.00  0.00    +0.000 A 
ATOM      3  N   UNL     1       5.546   4.199  15.295  0.00  0.00    +0.000 NA
ATOM      4  C   UNL     1       5.580   4.496  16.635  0.00  0.00    +0.000 A 
ATOM      5  C   UNL     1       4.613   4.362  17.641  0.00  0.00    +0.000 A 
ATOM      6  C   UNL     1       4.934   4.780  18.945  0.00  0.00    +0.000 A 
ATOM      7  C   UNL     1       6.202   5.309  19.230  0.00  0.00    +0.000 A 
ATOM      8  C   UNL     1       7.184   5.435  18.238  0.00  0.00    +0.000 A 
ATOM      9  C   UNL     1       6.816   5.019  16.966  0.00  0.00    +0.000 A 
ATOM     10  O   UNL     1       7.569   5.059  15.834  0.00  0.00    +0.000 OA
ENDROOT
BRANCH   1  11
ATOM     11  N   UNL     1       8.163   5.599  13.329  0.00  0.00    +0.000 NA
ATOM     12  H   UNL     1       9.107   5.285  13.556  0.00  0.00    +0.000 HD
ATOM     13  H   UNL     1       7.980   6.341  14.015  0.00  0.00    +0.000 HD
ENDBRANCH   1  11
BRANCH   6  14
ATOM     14  O   UNL     1       3.916   4.623  19.850  0.00  0.00    +0.000 OA
ATOM     15  C   UNL     1       2.833   5.541  19.771  0.00  0.00    +0.000 C 
ENDBRANCH   6  14
BRANCH   1  16
ATOM     16  C   UNL     1       6.255   4.177  12.526  0.00  0.00    +0.000 C 
BRANCH  16  17
ATOM     17  C   UNL     1       6.525   2.798  11.901  0.00  0.00    +0.000 C 
BRANCH  17  19
ATOM     18  C   UNL     1       4.251   3.118  11.348  0.00  0.00    +0.000 C 
ATOM     19  O   UNL     1       5.302   2.175  11.498  0.00  0.00    +0.000 OA
ENDBRANCH  17  19
ENDBRANCH  16  17
ENDBRANCH   1  16
TORSDOF 5
ENDMDL
MODEL 8
REMARK VINA RESULT:      -5.7      3.243      5.666
REMARK  Name = 
REMARK  7 active torsions:
REMARK  status: ('A' for Active; 'I' for Inactive)
REMARK    1  A    between atoms: C_1  and  O_2
REMARK    2  A    between atoms: O_2  and  C_3
REMARK    3  A    between atoms: C_3  and  C_4
REMARK    4  A    between atoms: C_4  and  N_5
REMARK    5  A    between atoms: N_5  and  N_6
REMARK    6  A    between atoms: C_11  and  O_12
REMARK    7  A    between atoms: O_12  and  C_13
REMARK                            x       y       z     vdW  Elec       q    Type
REMARK                         _______ _______ _______ _____ _____    ______ ____
ROOT
ATOM      1  N   UNL     1       4.947   4.210  17.752  0.00  0.00    +0.000 N 
ATOM      2  C   UNL     1       4.140   5.274  18.068  0.00  0.00    +0.000 A 
ATOM      3  N   UNL     1       3.858   6.350  17.355  0.00  0.00    +0.000 NA
ATOM      4  C   UNL     1       3.036   7.088  18.171  0.00  0.00    +0.000 A 
ATOM      5  C   UNL     1       2.433   8.341  17.994  0.00  0.00    +0.000 A 
ATOM      6  C   UNL     1       1.646   8.864  19.034  0.00  0.00    +0.000 A 
ATOM      7  C   UNL     1       1.461   8.137  20.220  0.00  0.00    +0.000 A 
ATOM      8  C   UNL     1       2.045   6.876  20.406  0.00  0.00    +0.000 A 
ATOM      9  C   UNL     1       2.821   6.409  19.354  0.00  0.00    +0.000 A 
ATOM     10  O   UNL     1       3.510   5.237  19.295  0.00  0.00    +0.000 OA
ENDROOT
BRANCH   1  11
ATOM     11  N   UNL     1       5.572   3.648  18.915  0.00  0.00    +0.000 NA
ATOM     12  H   UNL     1       4.893   3.084  19.427  0.00  0.00    +0.000 HD
ATOM     13  H   UNL     1       5.786   4.417  19.562  0.00  0.00    +0.000 HD
ENDBRANCH   1  11
BRANCH   6  14
ATOM     14  O   UNL     1       1.115  10.100  18.769  0.00  0.00    +0.000 OA
ATOM     15  C   UNL     1       1.985  11.067  18.194  0.00  0.00    +0.000 C 
ENDBRANCH   6  14
BRANCH   1  16
ATOM     16  C   UNL     1       5.739   4.368  16.515  0.00  0.00    +0.000 C 
BRANCH  16  17
ATOM     17  C   UNL     1       7.199   4.763  16.787  0.00  0.00    +0.000 C 
BRANCH  17  19
ATOM     18  C   UNL     1       7.416   7.015  17.467  0.00  0.00    +0.000 C 
ATOM     19  O   UNL     1       7.447   6.110  16.373  0.00  0.00    +0.000 OA
ENDBRANCH  17  19
ENDBRANCH  16  17
ENDBRANCH   1  16
TORSDOF 5
ENDMDL
MODEL 9
REMARK VINA RESULT:      -5.6      1.542      2.248
REMARK  Name = 
REMARK  7 active torsions:
REMARK  status: ('A' for Active; 'I' for Inactive)
REMARK    1  A    between atoms: C_1  and  O_2
REMARK    2  A    between atoms: O_2  and  C_3
REMARK    3  A    between atoms: C_3  and  C_4
REMARK    4  A    between atoms: C_4  and  N_5
REMARK    5  A    between atoms: N_5  and  N_6
REMARK    6  A    between atoms: C_11  and  O_12
REMARK    7  A    between atoms: O_12  and  C_13
REMARK                            x       y       z     vdW  Elec       q    Type
REMARK                         _______ _______ _______ _____ _____    ______ ____
ROOT
ATOM      1  N   UNL     1       3.771   2.735  20.223  0.00  0.00    +0.000 N 
ATOM      2  C   UNL     1       4.405   3.346  19.171  0.00  0.00    +0.000 A 
ATOM      3  N   UNL     1       3.944   3.622  17.963  0.00  0.00    +0.000 NA
ATOM      4  C   UNL     1       5.012   4.197  17.319  0.00  0.00    +0.000 A 
ATOM      5  C   UNL     1       5.160   4.672  16.008  0.00  0.00    +0.000 A 
ATOM      6  C   UNL     1       6.403   5.200  15.619  0.00  0.00    +0.000 A 
ATOM      7  C   UNL     1       7.469   5.257  16.530  0.00  0.00    +0.000 A 
ATOM      8  C   UNL     1       7.331   4.799  17.848  0.00  0.00    +0.000 A 
ATOM      9  C   UNL     1       6.088   4.278  18.181  0.00  0.00    +0.000 A 
ATOM     10  O   UNL     1       5.708   3.751  19.376  0.00  0.00    +0.000 OA
ENDROOT
BRANCH   1  11
ATOM     11  N   UNL     1       4.686   1.985  21.037  0.00  0.00    +0.000 NA
ATOM     12  H   UNL     1       5.639   2.305  20.860  0.00  0.00    +0.000 HD
ATOM     13  H   UNL     1       4.688   1.015  20.698  0.00  0.00    +0.000 HD
ENDBRANCH   1  11
BRANCH   6  14
ATOM     14  O   UNL     1       6.450   5.622  14.315  0.00  0.00    +0.000 OA
ATOM     15  C   UNL     1       7.086   4.760  13.379  0.00  0.00    +0.000 C 
ENDBRANCH   6  14
BRANCH   1  16
ATOM     16  C   UNL     1       2.448   2.159  19.910  0.00  0.00    +0.000 C 
BRANCH  16  17
ATOM     17  C   UNL     1       1.302   2.851  20.667  0.00  0.00    +0.000 C 
BRANCH  17  19
ATOM     18  C   UNL     1       1.469   5.207  20.641  0.00  0.00    +0.000 C 
ATOM     19  O   UNL     1       0.917   4.062  20.009  0.00  0.00    +0.000 OA
ENDBRANCH  17  19
ENDBRANCH  16  17
ENDBRANCH   1  16
TORSDOF 5
ENDMDL
