MODEL 1
REMARK VINA RESULT:      -5.3      0.000      0.000
REMARK  Name = 
REMARK  7 active torsions:
REMARK  status: ('A' for Active; 'I' for Inactive)
REMARK    1  A    between atoms: C_1  and  O_2
REMARK    2  A    between atoms: O_2  and  C_3
REMARK    3  A    between atoms: C_5  and  O_6
REMARK    4  A    between atoms: O_6  and  C_7
REMARK    5  A    between atoms: C_8  and  O_9
REMARK    6  A    between atoms: C_10  and  O_11
REMARK    7  A    between atoms: O_11  and  C_12
REMARK                            x       y       z     vdW  Elec       q    Type
REMARK                         _______ _______ _______ _____ _____    ______ ____
ROOT
ATOM      1  C   UNL     1       6.236   5.809  16.401  0.00  0.00    +0.000 A 
ATOM      2  C   UNL     1       5.782   4.810  17.263  0.00  0.00    +0.000 A 
ATOM      3  C   UNL     1       6.209   4.729  18.595  0.00  0.00    +0.000 A 
ATOM      4  C   UNL     1       7.142   5.668  19.046  0.00  0.00    +0.000 A 
ATOM      5  C   UNL     1       7.613   6.687  18.184  0.00  0.00    +0.000 A 
ATOM      6  C   UNL     1       7.153   6.748  16.862  0.00  0.00    +0.000 A 
ENDROOT
BRANCH   1   8
ATOM      7  C   UNL     1       5.688   4.436  14.548  0.00  0.00    +0.000 C 
ATOM      8  O   UNL     1       5.744   5.734  15.125  0.00  0.00    +0.000 OA
ENDBRANCH   1   8
BRANCH   3   9
ATOM      9  O   UNL     1       5.623   3.683  19.247  0.00  0.00    +0.000 OA
ATOM     10  C   UNL     1       4.294   3.293  18.960  0.00  0.00    +0.000 C 
ENDBRANCH   3   9
BRANCH   4  11
ATOM     11  O   UNL     1       7.671   5.638  20.309  0.00  0.00    +0.000 OA
ATOM     12  H   UNL     1       8.567   6.005  20.250  0.00  0.00    +0.000 HD
ENDBRANCH   4  11
BRANCH   5  13
ATOM     13  O   UNL     1       8.501   7.582  18.731  0.00  0.00    +0.000 OA
ATOM     14  C   UNL     1       8.439   8.931  18.288  0.00  0.00    +0.000 C 
ENDBRANCH   5  13
TORSDOF 4
ENDMDL
MODEL 2
REMARK VINA RESULT:      -5.3      2.655      4.045
REMARK  Name = 
REMARK  7 active torsions:
REMARK  status: ('A' for Active; 'I' for Inactive)
REMARK    1  A    between atoms: C_1  and  O_2
REMARK    2  A    between atoms: O_2  and  C_3
REMARK    3  A    between atoms: C_5  and  O_6
REMARK    4  A    between atoms: O_6  and  C_7
REMARK    5  A    between atoms: C_8  and  O_9
REMARK    6  A    between atoms: C_10  and  O_11
REMARK    7  A    between atoms: O_11  and  C_12
REMARK                            x       y       z     vdW  Elec       q    Type
REMARK                         _______ _______ _______ _____ _____    ______ ____
ROOT
ATOM      1  C   UNL     1       3.105   5.652  18.614  0.00  0.00    +0.000 A 
ATOM      2  C   UNL     1       2.432   4.582  19.204  0.00  0.00    +0.000 A 
ATOM      3  C   UNL     1       3.103   3.431  19.636  0.00  0.00    +0.000 A 
ATOM      4  C   UNL     1       4.485   3.357  19.432  0.00  0.00    +0.000 A 
ATOM      5  C   UNL     1       5.182   4.433  18.835  0.00  0.00    +0.000 A 
ATOM      6  C   UNL     1       4.482   5.576  18.428  0.00  0.00    +0.000 A 
ENDROOT
BRANCH   1   8
ATOM      7  C   UNL     1       2.954   7.931  17.982  0.00  0.00    +0.000 C 
ATOM      8  O   UNL     1       2.303   6.690  18.224  0.00  0.00    +0.000 OA
ENDBRANCH   1   8
BRANCH   3   9
ATOM      9  O   UNL     1       2.244   2.528  20.193  0.00  0.00    +0.000 OA
ATOM     10  C   UNL     1       1.348   2.906  21.220  0.00  0.00    +0.000 C 
ENDBRANCH   3   9
BRANCH   4  11
ATOM     11  O   UNL     1       5.224   2.251  19.759  0.00  0.00    +0.000 OA
ATOM     12  H   UNL     1       6.156   2.514  19.732  0.00  0.00    +0.000 HD
ENDBRANCH   4  11
BRANCH   5  13
ATOM     13  O   UNL     1       6.542   4.280  18.709  0.00  0.00    +0.000 OA
ATOM     14  C   UNL     1       7.125   4.552  17.442  0.00  0.00    +0.000 C 
ENDBRANCH   5  13
TORSDOF 4
ENDMDL
MODEL 3
REMARK VINA RESULT:      -5.2      2.023      4.218
REMARK  Name = 
REMARK  7 active torsions:
REMARK  status: ('A' for Active; 'I' for Inactive)
REMARK    1  A    between atoms: C_1  and  O_2
REMARK    2  A    between atoms: O_2  and  C_3
REMARK    3  A    between atoms: C_5  and  O_6
REMARK    4  A    between atoms: O_6  and  C_7
REMARK    5  A    between atoms: C_8  and  O_9
REMARK    6  A    between atoms: C_10  and  O_11
REMARK    7  A    between atoms: O_11  and  C_12
REMARK                            x       y       z     vdW  Elec       q    Type
REMARK                         _______ _______ _______ _____ _____    ______ ____
ROOT
ATOM      1  C   UNL     1       5.349   4.039  16.710  0.00  0.00    +0.000 A 
ATOM      2  C   UNL     1       6.162   4.514  17.739  0.00  0.00    +0.000 A 
ATOM      3  C   UNL     1       5.631   5.013  18.935  0.00  0.00    +0.000 A 
ATOM      4  C   UNL     1       4.239   5.056  19.070  0.00  0.00    +0.000 A 
ATOM      5  C   UNL     1       3.400   4.578  18.036  0.00  0.00    +0.000 A 
ATOM      6  C   UNL     1       3.966   4.072  16.859  0.00  0.00    +0.000 A 
ENDROOT
BRANCH   1   8
ATOM      7  C   UNL     1       6.879   4.559  14.976  0.00  0.00    +0.000 C 
ATOM      8  O   UNL     1       6.021   3.610  15.597  0.00  0.00    +0.000 OA
ENDBRANCH   1   8
BRANCH   3   9
ATOM      9  O   UNL     1       6.614   5.406  19.797  0.00  0.00    +0.000 OA
ATOM     10  C   UNL     1       7.891   5.790  19.324  0.00  0.00    +0.000 C 
ENDBRANCH   3   9
BRANCH   4  11
ATOM     11  O   UNL     1       3.619   5.583  20.172  0.00  0.00    +0.000 OA
ATOM     12  H   UNL     1       4.091   6.398  20.401  0.00  0.00    +0.000 HD
ENDBRANCH   4  11
BRANCH   5  13
ATOM     13  O   UNL     1       2.048   4.631  18.279  0.00  0.00    +0.000 OA
ATOM     14  C   UNL     1       1.344   3.401  18.375  0.00  0.00    +0.000 C 
ENDBRANCH   5  13
TORSDOF 4
ENDMDL
MODEL 4
REMARK VINA RESULT:      -5.2      2.443      4.923
REMARK  Name = 
REMARK  7 active torsions:
REMARK  status: ('A' for Active; 'I' for Inactive)
REMARK    1  A    between atoms: C_1  and  O_2
REMARK    2  A    between atoms: O_2  and  C_3
REMARK    3  A    between atoms: C_5  and  O_6
REMARK    4  A    between atoms: O_6  and  C_7
REMARK    5  A    between atoms: C_8  and  O_9
REMARK    6  A    between atoms: C_10  and  O_11
REMARK    7  A    between atoms: O_11  and  C_12
REMARK                            x       y       z     vdW  Elec       q    Type
REMARK                         _______ _______ _______ _____ _____    ______ ____
ROOT
ATOM      1  C   UNL     1       3.651   5.990  17.948  0.00  0.00    +0.000 A 
ATOM      2  C   UNL     1       4.885   5.990  18.599  0.00  0.00    +0.000 A 
ATOM      3  C   UNL     1       5.432   4.827  19.155  0.00  0.00    +0.000 A 
ATOM      4  C   UNL     1       4.688   3.645  19.074  0.00  0.00    +0.000 A 
ATOM      5  C   UNL     1       3.434   3.628  18.418  0.00  0.00    +0.000 A 
ATOM      6  C   UNL     1       2.925   4.807  17.859  0.00  0.00    +0.000 A 
ENDROOT
BRANCH   1   8
ATOM      7  C   UNL     1       2.397   7.962  18.341  0.00  0.00    +0.000 C 
ATOM      8  O   UNL     1       3.246   7.211  17.482  0.00  0.00    +0.000 OA
ENDBRANCH   1   8
BRANCH   3   9
ATOM      9  O   UNL     1       6.649   5.067  19.725  0.00  0.00    +0.000 OA
ATOM     10  C   UNL     1       7.644   5.807  19.044  0.00  0.00    +0.000 C 
ENDBRANCH   3   9
BRANCH   4  11
ATOM     11  O   UNL     1       5.102   2.470  19.642  0.00  0.00    +0.000 OA
ATOM     12  H   UNL     1       5.921   2.210  19.192  0.00  0.00    +0.000 HD
ENDBRANCH   4  11
BRANCH   5  13
ATOM     13  O   UNL     1       2.797   2.411  18.361  0.00  0.00    +0.000 OA
ATOM     14  C   UNL     1       1.401   2.382  18.625  0.00  0.00    +0.000 C 
ENDBRANCH   5  13
TORSDOF 4
ENDMDL
MODEL 5
REMARK VINA RESULT:      -5.1      2.581      5.114
REMARK  Name = 
REMARK  7 active torsions:
REMARK  status: ('A' for Active; 'I' for Inactive)
REMARK    1  A    between atoms: C_1  and  O_2
REMARK    2  A    between atoms: O_2  and  C_3
REMARK    3  A    between atoms: C_5  and  O_6
REMARK    4  A    between atoms: O_6  and  C_7
REMARK    5  A    between atoms: C_8  and  O_9
REMARK    6  A    between atoms: C_10  and  O_11
REMARK    7  A    between atoms: O_11  and  C_12
REMARK                            x       y       z     vdW  Elec       q    Type
REMARK                         _______ _______ _______ _____ _____    ______ ____
ROOT
ATOM      1  C   UNL     1       3.103   5.497  18.556  0.00  0.00    +0.000 A 
ATOM      2  C   UNL     1       4.485   5.371  18.409  0.00  0.00    +0.000 A 
ATOM      3  C   UNL     1       5.180   4.245  18.867  0.00  0.00    +0.000 A 
ATOM      4  C   UNL     1       4.455   3.241  19.517  0.00  0.00    +0.000 A 
ATOM      5  C   UNL     1       3.053   3.354  19.675  0.00  0.00    +0.000 A 
ATOM      6  C   UNL     1       2.387   4.487  19.191  0.00  0.00    +0.000 A 
ENDROOT
BRANCH   1   8
ATOM      7  C   UNL     1       3.513   7.632  17.613  0.00  0.00    +0.000 C 
ATOM      8  O   UNL     1       2.578   6.668  18.079  0.00  0.00    +0.000 OA
ENDBRANCH   1   8
BRANCH   3   9
ATOM      9  O   UNL     1       6.516   4.337  18.600  0.00  0.00    +0.000 OA
ATOM     10  C   UNL     1       6.984   4.688  17.313  0.00  0.00    +0.000 C 
ENDBRANCH   3   9
BRANCH   4  11
ATOM     11  O   UNL     1       5.048   2.132  20.058  0.00  0.00    +0.000 OA
ATOM     12  H   UNL     1       4.485   1.837  20.790  0.00  0.00    +0.000 HD
ENDBRANCH   4  11
BRANCH   5  13
ATOM     13  O   UNL     1       2.427   2.300  20.297  0.00  0.00    +0.000 OA
ATOM     14  C   UNL     1       1.701   2.571  21.488  0.00  0.00    +0.000 C 
ENDBRANCH   5  13
TORSDOF 4
ENDMDL
MODEL 6
REMARK VINA RESULT:      -5.1      2.997      4.324
REMARK  Name = 
REMARK  7 active torsions:
REMARK  status: ('A' for Active; 'I' for Inactive)
REMARK    1  A    between atoms: C_1  and  O_2
REMARK    2  A    between atoms: O_2  and  C_3
REMARK    3  A    between atoms: C_5  and  O_6
REMARK    4  A    between atoms: O_6  and  C_7
REMARK    5  A    between atoms: C_8  and  O_9
REMARK    6  A    between atoms: C_10  and  O_11
REMARK    7  A    between atoms: O_11  and  C_12
REMARK                            x       y       z     vdW  Elec       q    Type
REMARK                         _______ _______ _______ _____ _____    ______ ____
ROOT
ATOM      1  C   UNL     1       3.100   6.125  18.116  0.00  0.00    +0.000 A 
ATOM      2  C   UNL     1       2.200   5.078  17.916  0.00  0.00    +0.000 A 
ATOM      3  C   UNL     1       2.602   3.736  17.950  0.00  0.00    +0.000 A 
ATOM      4  C   UNL     1       3.957   3.460  18.161  0.00  0.00    +0.000 A 
ATOM      5  C   UNL     1       4.883   4.510  18.364  0.00  0.00    +0.000 A 
ATOM      6  C   UNL     1       4.443   5.840  18.339  0.00  0.00    +0.000 A 
ENDROOT
BRANCH   1   8
ATOM      7  C   UNL     1       2.080   7.945  19.240  0.00  0.00    +0.000 C 
ATOM      8  O   UNL     1       2.554   7.377  18.026  0.00  0.00    +0.000 OA
ENDBRANCH   1   8
BRANCH   3   9
ATOM      9  O   UNL     1       1.550   2.891  17.743  0.00  0.00    +0.000 OA
ATOM     10  C   UNL     1       0.808   2.366  18.826  0.00  0.00    +0.000 C 
ENDBRANCH   3   9
BRANCH   4  11
ATOM     11  O   UNL     1       4.463   2.187  18.148  0.00  0.00    +0.000 OA
ATOM     12  H   UNL     1       4.390   1.862  17.237  0.00  0.00    +0.000 HD
ENDBRANCH   4  11
BRANCH   5  13
ATOM     13  O   UNL     1       6.184   4.134  18.597  0.00  0.00    +0.000 OA
ATOM     14  C   UNL     1       7.207   4.805  17.873  0.00  0.00    +0.000 C 
ENDBRANCH   5  13
TORSDOF 4
ENDMDL
MODEL 7
REMARK VINA RESULT:      -5.0      1.723      2.335
REMARK  Name = 
REMARK  7 active torsions:
REMARK  status: ('A' for Active; 'I' for Inactive)
REMARK    1  A    between atoms: C_1  and  O_2
REMARK    2  A    between atoms: O_2  and  C_3
REMARK    3  A    between atoms: C_5  and  O_6
REMARK    4  A    between atoms: O_6  and  C_7
REMARK    5  A    between atoms: C_8  and  O_9
REMARK    6  A    between atoms: C_10  and  O_11
REMARK    7  A    between atoms: O_11  and  C_12
REMARK                            x       y       z     vdW  Elec       q    Type
REMARK                         _______ _______ _______ _____ _____    ______ ____
ROOT
ATOM      1  C   UNL     1       6.289   4.646  15.464  0.00  0.00    +0.000 A 
ATOM      2  C   UNL     1       4.999   4.233  15.801  0.00  0.00    +0.000 A 
ATOM      3  C   UNL     1       4.618   4.000  17.128  0.00  0.00    +0.000 A 
ATOM      4  C   UNL     1       5.581   4.162  18.129  0.00  0.00    +0.000 A 
ATOM      5  C   UNL     1       6.893   4.581  17.805  0.00  0.00    +0.000 A 
ATOM      6  C   UNL     1       7.236   4.819  16.468  0.00  0.00    +0.000 A 
ENDROOT
BRANCH   1   8
ATOM      7  C   UNL     1       6.192   3.692  13.297  0.00  0.00    +0.000 C 
ATOM      8  O   UNL     1       6.510   4.805  14.123  0.00  0.00    +0.000 OA
ENDBRANCH   1   8
BRANCH   3   9
ATOM      9  O   UNL     1       3.309   3.619  17.215  0.00  0.00    +0.000 OA
ATOM     10  C   UNL     1       2.951   2.333  17.681  0.00  0.00    +0.000 C 
ENDBRANCH   3   9
BRANCH   4  11
ATOM     11  O   UNL     1       5.328   3.898  19.449  0.00  0.00    +0.000 OA
ATOM     12  H   UNL     1       4.737   3.131  19.477  0.00  0.00    +0.000 HD
ENDBRANCH   4  11
BRANCH   5  13
ATOM     13  O   UNL     1       7.756   4.744  18.862  0.00  0.00    +0.000 OA
ATOM     14  C   UNL     1       8.067   6.071  19.264  0.00  0.00    +0.000 C 
ENDBRANCH   5  13
TORSDOF 4
ENDMDL
MODEL 8
REMARK VINA RESULT:      -5.0      2.026      4.159
REMARK  Name = 
REMARK  7 active torsions:
REMARK  status: ('A' for Active; 'I' for Inactive)
REMARK    1  A    between atoms: C_1  and  O_2
REMARK    2  A    between atoms: O_2  and  C_3
REMARK    3  A    between atoms: C_5  and  O_6
REMARK    4  A    between atoms: O_6  and  C_7
REMARK    5  A    between atoms: C_8  and  O_9
REMARK    6  A    between atoms: C_10  and  O_11
REMARK    7  A    between atoms: O_11  and  C_12
REMARK                            x       y       z     vdW  Elec       q    Type
REMARK                         _______ _______ _______ _____ _____    ______ ____
ROOT
ATOM      1  C   UNL     1       4.950   4.164  16.363  0.00  0.00    +0.000 A 
ATOM      2  C   UNL     1       5.177   3.620  15.099  0.00  0.00    +0.000 A 
ATOM      3  C   UNL     1       6.234   4.048  14.285  0.00  0.00    +0.000 A 
ATOM      4  C   UNL     1       7.057   5.075  14.759  0.00  0.00    +0.000 A 
ATOM      5  C   UNL     1       6.840   5.638  16.038  0.00  0.00    +0.000 A 
ATOM      6  C   UNL     1       5.783   5.175  16.832  0.00  0.00    +0.000 A 
ENDROOT
BRANCH   1   8
ATOM      7  C   UNL     1       4.041   3.370  18.402  0.00  0.00    +0.000 C 
ATOM      8  O   UNL     1       3.863   3.656  17.021  0.00  0.00    +0.000 OA
ENDBRANCH   1   8
BRANCH   3   9
ATOM      9  O   UNL     1       6.267   3.364  13.103  0.00  0.00    +0.000 OA
ATOM     10  C   UNL     1       5.184   3.420  12.195  0.00  0.00    +0.000 C 
ENDBRANCH   3   9
BRANCH   4  11
ATOM     11  O   UNL     1       8.076   5.609  14.016  0.00  0.00    +0.000 OA
ATOM     12  H   UNL     1       8.701   6.011  14.639  0.00  0.00    +0.000 HD
ENDBRANCH   4  11
BRANCH   5  13
ATOM     13  O   UNL     1       7.722   6.617  16.427  0.00  0.00    +0.000 OA
ATOM     14  C   UNL     1       7.419   7.353  17.605  0.00  0.00    +0.000 C 
ENDBRANCH   5  13
TORSDOF 4
ENDMDL
MODEL 9
REMARK VINA RESULT:      -5.0      2.982      5.394
REMARK  Name = 
REMARK  7 active torsions:
REMARK  status: ('A' for Active; 'I' for Inactive)
REMARK    1  A    between atoms: C_1  and  O_2
REMARK    2  A    between atoms: O_2  and  C_3
REMARK    3  A    between atoms: C_5  and  O_6
REMARK    4  A    between atoms: O_6  and  C_7
REMARK    5  A    between atoms: C_8  and  O_9
REMARK    6  A    between atoms: C_10  and  O_11
REMARK    7  A    between atoms: O_11  and  C_12
REMARK                            x       y       z     vdW  Elec       q    Type
REMARK                         _______ _______ _______ _____ _____    ______ ____
ROOT
ATOM      1  C   UNL     1       3.020   6.120  18.474  0.00  0.00    +0.000 A 
ATOM      2  C   UNL     1       4.390   5.872  18.380  0.00  0.00    +0.000 A 
ATOM      3  C   UNL     1       4.895   4.604  18.066  0.00  0.00    +0.000 A 
ATOM      4  C   UNL     1       3.984   3.560  17.876  0.00  0.00    +0.000 A 
ATOM      5  C   UNL     1       2.592   3.794  17.968  0.00  0.00    +0.000 A 
ATOM      6  C   UNL     1       2.121   5.079  18.269  0.00  0.00    +0.000 A 
ENDROOT
BRANCH   1   8
ATOM      7  C   UNL     1       2.523   8.317  17.736  0.00  0.00    +0.000 C 
ATOM      8  O   UNL     1       2.690   7.404  18.814  0.00  0.00    +0.000 OA
ENDBRANCH   1   8
BRANCH   3   9
ATOM      9  O   UNL     1       6.260   4.606  18.016  0.00  0.00    +0.000 OA
ATOM     10  C   UNL     1       6.947   4.551  16.782  0.00  0.00    +0.000 C 
ENDBRANCH   3   9
BRANCH   4  11
ATOM     11  O   UNL     1       4.376   2.271  17.629  0.00  0.00    +0.000 OA
ATOM     12  H   UNL     1       3.642   1.696  17.892  0.00  0.00    +0.000 HD
ENDBRANCH   4  11
BRANCH   5  13
ATOM     13  O   UNL     1       1.778   2.712  17.731  0.00  0.00    +0.000 OA
ATOM     14  C   UNL     1       0.825   2.369  18.728  0.00  0.00    +0.000 C 
ENDBRANCH   5  13
TORSDOF 4
ENDMDL
