MODEL 1
REMARK VINA RESULT:      -8.2      0.000      0.000
REMARK  Name = 
REMARK  12 active torsions:
REMARK  status: ('A' for Active; 'I' for Inactive)
REMARK    1  A    between atoms: C_1  and  C_2
REMARK    2  A    between atoms: C_2  and  N_3
REMARK    3  A    between atoms: C_2  and  C_17
REMARK    4  A    between atoms: N_6  and  C_7
REMARK    5  A    between atoms: C_20  and  C_21
REMARK    6  A    between atoms: C_21  and  C_22
REMARK    7  A    between atoms: C_21  and  C_23
REMARK    8  A    between atoms: C_21  and  C_24
REMARK    9  A    between atoms: C_26  and  C_27
REMARK   10  A    between atoms: C_27  and  C_28
REMARK   11  A    between atoms: C_27  and  C_29
REMARK   12  A    between atoms: C_27  and  C_30
REMARK                            x       y       z     vdW  Elec       q    Type
REMARK                         _______ _______ _______ _____ _____    ______ ____
ROOT
ATOM      1  C   UNL     1       1.861  11.650  18.450  0.00  0.00    +0.000 C 
ATOM      2  C   UNL     1       0.797  10.641  18.948  0.00  0.00    +0.000 C 
ENDROOT
BRANCH   2   3
ATOM      3  N   UNL     1       1.399   9.419  19.461  0.00  0.00    +0.000 N 
ATOM      4  C   UNL     1       1.894   8.514  18.573  0.00  0.00    +0.000 C 
ATOM      5  O   UNL     1       1.873   8.742  17.360  0.00  0.00    +0.000 OA
ATOM      6  N   UNL     1       2.413   7.383  19.129  0.00  0.00    +0.000 N 
ATOM      7  H   UNL     1       1.008   9.043  20.306  0.00  0.00    +0.000 HD
ATOM      8  H   UNL     1       2.123   7.164  20.066  0.00  0.00    +0.000 HD
BRANCH   6   9
ATOM      9  C   UNL     1       3.077   6.393  18.354  0.00  0.00    +0.000 A 
ATOM     10  C   UNL     1       4.172   6.749  17.546  0.00  0.00    +0.000 A 
ATOM     11  C   UNL     1       4.794   5.849  16.706  0.00  0.00    +0.000 A 
ATOM     12  C   UNL     1       4.358   4.537  16.685  0.00  0.00    +0.000 A 
ATOM     13  C   UNL     1       3.298   4.130  17.516  0.00  0.00    +0.000 A 
ATOM     14  C   UNL     1       2.856   2.810  17.502  0.00  0.00    +0.000 A 
ATOM     15  N   UNL     1       1.835   2.332  18.244  0.00  0.00    +0.000 NA
ATOM     16  C   UNL     1       1.212   3.215  19.046  0.00  0.00    +0.000 A 
ATOM     17  C   UNL     1       1.563   4.552  19.146  0.00  0.00    +0.000 A 
ATOM     18  C   UNL     1       2.633   5.047  18.366  0.00  0.00    +0.000 A 
ENDBRANCH   6   9
ENDBRANCH   2   3
BRANCH   2  19
ATOM     19  C   UNL     1      -0.226  11.280  19.898  0.00  0.00    +0.000 A 
ATOM     20  C   UNL     1       0.288  11.740  21.151  0.00  0.00    +0.000 A 
ATOM     21  C   UNL     1      -0.467  12.387  22.124  0.00  0.00    +0.000 A 
ATOM     22  C   UNL     1      -1.808  12.605  21.904  0.00  0.00    +0.000 A 
ATOM     23  C   UNL     1      -2.326  12.150  20.672  0.00  0.00    +0.000 A 
ATOM     24  C   UNL     1      -1.599  11.486  19.633  0.00  0.00    +0.000 A 
BRANCH  22  25
ATOM     25  C   UNL     1      -2.676  13.365  22.915  0.00  0.00    +0.000 C 
ATOM     26  C   UNL     1      -1.758  14.197  23.835  0.00  0.00    +0.000 C 
ATOM     27  C   UNL     1      -3.675  14.309  22.207  0.00  0.00    +0.000 C 
ATOM     28  C   UNL     1      -3.519  12.429  23.809  0.00  0.00    +0.000 C 
ENDBRANCH  22  25
BRANCH  24  29
ATOM     29  C   UNL     1      -2.358  11.184  18.297  0.00  0.00    +0.000 C 
ATOM     30  C   UNL     1      -3.851  11.631  18.392  0.00  0.00    +0.000 C 
ATOM     31  C   UNL     1      -1.741  11.982  17.123  0.00  0.00    +0.000 C 
ATOM     32  C   UNL     1      -2.442   9.702  17.865  0.00  0.00    +0.000 C 
ENDBRANCH  24  29
ENDBRANCH   2  19
TORSDOF 5
ENDMDL
MODEL 2
REMARK VINA RESULT:      -8.1      1.133      1.133
REMARK  Name = 
REMARK  12 active torsions:
REMARK  status: ('A' for Active; 'I' for Inactive)
REMARK    1  A    between atoms: C_1  and  C_2
REMARK    2  A    between atoms: C_2  and  N_3
REMARK    3  A    between atoms: C_2  and  C_17
REMARK    4  A    between atoms: N_6  and  C_7
REMARK    5  A    between atoms: C_20  and  C_21
REMARK    6  A    between atoms: C_21  and  C_22
REMARK    7  A    between atoms: C_21  and  C_23
REMARK    8  A    between atoms: C_21  and  C_24
REMARK    9  A    between atoms: C_26  and  C_27
REMARK   10  A    between atoms: C_27  and  C_28
REMARK   11  A    between atoms: C_27  and  C_29
REMARK   12  A    between atoms: C_27  and  C_30
REMARK                            x       y       z     vdW  Elec       q    Type
REMARK                         _______ _______ _______ _____ _____    ______ ____
ROOT
ATOM      1  C   UNL     1       1.787  10.585  18.454  0.00  0.00    +0.000 C 
ATOM      2  C   UNL     1       0.804   9.727  19.288  0.00  0.00    +0.000 C 
ENDROOT
BRANCH   2   3
ATOM      3  N   UNL     1       1.491   8.703  20.062  0.00  0.00    +0.000 N 
ATOM      4  C   UNL     1       2.014   7.632  19.406  0.00  0.00    +0.000 C 
ATOM      5  O   UNL     1       1.945   7.548  18.177  0.00  0.00    +0.000 OA
ATOM      6  N   UNL     1       2.613   6.703  20.203  0.00  0.00    +0.000 N 
ATOM      7  H   UNL     1       1.147   8.531  20.990  0.00  0.00    +0.000 HD
ATOM      8  H   UNL     1       2.364   6.711  21.177  0.00  0.00    +0.000 HD
BRANCH   6   9
ATOM      9  C   UNL     1       3.313   5.585  19.671  0.00  0.00    +0.000 A 
ATOM     10  C   UNL     1       4.671   5.704  19.326  0.00  0.00    +0.000 A 
ATOM     11  C   UNL     1       5.373   4.682  18.722  0.00  0.00    +0.000 A 
ATOM     12  C   UNL     1       4.736   3.478  18.485  0.00  0.00    +0.000 A 
ATOM     13  C   UNL     1       3.392   3.303  18.861  0.00  0.00    +0.000 A 
ATOM     14  C   UNL     1       2.744   2.093  18.627  0.00  0.00    +0.000 A 
ATOM     15  N   UNL     1       1.454   1.839  18.931  0.00  0.00    +0.000 NA
ATOM     16  C   UNL     1       0.762   2.844  19.498  0.00  0.00    +0.000 A 
ATOM     17  C   UNL     1       1.298   4.090  19.780  0.00  0.00    +0.000 A 
ATOM     18  C   UNL     1       2.650   4.350  19.459  0.00  0.00    +0.000 A 
ENDBRANCH   6   9
ENDBRANCH   2   3
BRANCH   2  19
ATOM     19  C   UNL     1      -0.175  10.578  20.108  0.00  0.00    +0.000 A 
ATOM     20  C   UNL     1       0.175  10.787  21.479  0.00  0.00    +0.000 A 
ATOM     21  C   UNL     1      -0.556  11.565  22.372  0.00  0.00    +0.000 A 
ATOM     22  C   UNL     1      -1.708  12.183  21.941  0.00  0.00    +0.000 A 
ATOM     23  C   UNL     1      -2.065  11.980  20.591  0.00  0.00    +0.000 A 
ATOM     24  C   UNL     1      -1.352  11.198  19.628  0.00  0.00    +0.000 A 
BRANCH  22  25
ATOM     25  C   UNL     1      -2.521  13.100  22.864  0.00  0.00    +0.000 C 
ATOM     26  C   UNL     1      -1.547  13.952  23.704  0.00  0.00    +0.000 C 
ATOM     27  C   UNL     1      -3.447  14.038  22.056  0.00  0.00    +0.000 C 
ATOM     28  C   UNL     1      -3.431  12.321  23.839  0.00  0.00    +0.000 C 
ENDBRANCH  22  25
BRANCH  24  29
ATOM     29  C   UNL     1      -1.871  11.218  18.150  0.00  0.00    +0.000 C 
ATOM     30  C   UNL     1      -3.403  11.514  18.104  0.00  0.00    +0.000 C 
ATOM     31  C   UNL     1      -1.186  12.347  17.343  0.00  0.00    +0.000 C 
ATOM     32  C   UNL     1      -1.723   9.907  17.343  0.00  0.00    +0.000 C 
ENDBRANCH  24  29
ENDBRANCH   2  19
TORSDOF 5
ENDMDL
MODEL 3
REMARK VINA RESULT:      -8.1      0.163      1.132
REMARK  Name = 
REMARK  12 active torsions:
REMARK  status: ('A' for Active; 'I' for Inactive)
REMARK    1  A    between atoms: C_1  and  C_2
REMARK    2  A    between atoms: C_2  and  N_3
REMARK    3  A    between atoms: C_2  and  C_17
REMARK    4  A    between atoms: N_6  and  C_7
REMARK    5  A    between atoms: C_20  and  C_21
REMARK    6  A    between atoms: C_21  and  C_22
REMARK    7  A    between atoms: C_21  and  C_23
REMARK    8  A    between atoms: C_21  and  C_24
REMARK    9  A    between atoms: C_26  and  C_27
REMARK   10  A    between atoms: C_27  and  C_28
REMARK   11  A    between atoms: C_27  and  C_29
REMARK   12  A    between atoms: C_27  and  C_30
REMARK                            x       y       z     vdW  Elec       q    Type
REMARK                         _______ _______ _______ _____ _____    ______ ____
ROOT
ATOM      1  C   UNL     1       1.833  11.653  18.528  0.00  0.00    +0.000 C 
ATOM      2  C   UNL     1       0.759  10.633  18.978  0.00  0.00    +0.000 C 
ENDROOT
BRANCH   2   3
ATOM      3  N   UNL     1       1.350   9.396  19.470  0.00  0.00    +0.000 N 
ATOM      4  C   UNL     1       1.897   8.533  18.572  0.00  0.00    +0.000 C 
ATOM      5  O   UNL     1       1.931   8.809  17.369  0.00  0.00    +0.000 OA
ATOM      6  N   UNL     1       2.402   7.386  19.107  0.00  0.00    +0.000 N 
ATOM      7  H   UNL     1       0.925   8.983  20.281  0.00  0.00    +0.000 HD
ATOM      8  H   UNL     1       2.071   7.127  20.020  0.00  0.00    +0.000 HD
BRANCH   6   9
ATOM      9  C   UNL     1       3.113   6.434  18.326  0.00  0.00    +0.000 A 
ATOM     10  C   UNL     1       4.258   6.826  17.609  0.00  0.00    +0.000 A 
ATOM     11  C   UNL     1       4.932   5.969  16.765  0.00  0.00    +0.000 A 
ATOM     12  C   UNL     1       4.498   4.660  16.649  0.00  0.00    +0.000 A 
ATOM     13  C   UNL     1       3.386   4.216  17.389  0.00  0.00    +0.000 A 
ATOM     14  C   UNL     1       2.945   2.901  17.278  0.00  0.00    +0.000 A 
ATOM     15  N   UNL     1       1.877   2.390  17.928  0.00  0.00    +0.000 NA
ATOM     16  C   UNL     1       1.205   3.233  18.733  0.00  0.00    +0.000 A 
ATOM     17  C   UNL     1       1.550   4.561  18.923  0.00  0.00    +0.000 A 
ATOM     18  C   UNL     1       2.669   5.091  18.240  0.00  0.00    +0.000 A 
ENDBRANCH   6   9
ENDBRANCH   2   3
BRANCH   2  19
ATOM     19  C   UNL     1      -0.282  11.247  19.924  0.00  0.00    +0.000 A 
ATOM     20  C   UNL     1       0.202  11.654  21.206  0.00  0.00    +0.000 A 
ATOM     21  C   UNL     1      -0.572  12.273  22.183  0.00  0.00    +0.000 A 
ATOM     22  C   UNL     1      -1.905  12.514  21.936  0.00  0.00    +0.000 A 
ATOM     23  C   UNL     1      -2.393  12.111  20.675  0.00  0.00    +0.000 A 
ATOM     24  C   UNL     1      -1.646  11.479  19.631  0.00  0.00    +0.000 A 
BRANCH  22  25
ATOM     25  C   UNL     1      -2.791  13.246  22.951  0.00  0.00    +0.000 C 
ATOM     26  C   UNL     1      -3.844  14.075  22.188  0.00  0.00    +0.000 C 
ATOM     27  C   UNL     1      -3.512  12.252  23.892  0.00  0.00    +0.000 C 
ATOM     28  C   UNL     1      -1.997  14.210  23.860  0.00  0.00    +0.000 C 
ENDBRANCH  22  25
BRANCH  24  29
ATOM     29  C   UNL     1      -2.371  11.235  18.265  0.00  0.00    +0.000 C 
ATOM     30  C   UNL     1      -2.378   9.716  17.901  0.00  0.00    +0.000 C 
ATOM     31  C   UNL     1      -3.855  11.668  18.346  0.00  0.00    +0.000 C 
ATOM     32  C   UNL     1      -1.752  11.911  17.018  0.00  0.00    +0.000 C 
ENDBRANCH  24  29
ENDBRANCH   2  19
TORSDOF 5
ENDMDL
MODEL 4
REMARK VINA RESULT:      -8.0      0.434      1.191
REMARK  Name = 
REMARK  12 active torsions:
REMARK  status: ('A' for Active; 'I' for Inactive)
REMARK    1  A    between atoms: C_1  and  C_2
REMARK    2  A    between atoms: C_2  and  N_3
REMARK    3  A    between atoms: C_2  and  C_17
REMARK    4  A    between atoms: N_6  and  C_7
REMARK    5  A    between atoms: C_20  and  C_21
REMARK    6  A    between atoms: C_21  and  C_22
REMARK    7  A    between atoms: C_21  and  C_23
REMARK    8  A    between atoms: C_21  and  C_24
REMARK    9  A    between atoms: C_26  and  C_27
REMARK   10  A    between atoms: C_27  and  C_28
REMARK   11  A    between atoms: C_27  and  C_29
REMARK   12  A    between atoms: C_27  and  C_30
REMARK                            x       y       z     vdW  Elec       q    Type
REMARK                         _______ _______ _______ _____ _____    ______ ____
ROOT
ATOM      1  C   UNL     1       1.801  11.466  18.475  0.00  0.00    +0.000 C 
ATOM      2  C   UNL     1       0.772  10.471  19.064  0.00  0.00    +0.000 C 
ENDROOT
BRANCH   2   3
ATOM      3  N   UNL     1       1.413   9.297  19.639  0.00  0.00    +0.000 N 
ATOM      4  C   UNL     1       1.787   8.286  18.808  0.00  0.00    +0.000 C 
ATOM      5  O   UNL     1       1.626   8.378  17.588  0.00  0.00    +0.000 OA
ATOM      6  N   UNL     1       2.351   7.210  19.426  0.00  0.00    +0.000 N 
ATOM      7  H   UNL     1       1.119   9.028  20.561  0.00  0.00    +0.000 HD
ATOM      8  H   UNL     1       2.171   7.105  20.409  0.00  0.00    +0.000 HD
BRANCH   6   9
ATOM      9  C   UNL     1       2.905   6.122  18.697  0.00  0.00    +0.000 A 
ATOM     10  C   UNL     1       3.969   6.342  17.803  0.00  0.00    +0.000 A 
ATOM     11  C   UNL     1       4.483   5.343  17.004  0.00  0.00    +0.000 A 
ATOM     12  C   UNL     1       3.967   4.063  17.113  0.00  0.00    +0.000 A 
ATOM     13  C   UNL     1       2.937   3.792  18.032  0.00  0.00    +0.000 A 
ATOM     14  C   UNL     1       2.415   2.507  18.149  0.00  0.00    +0.000 A 
ATOM     15  N   UNL     1       1.413   2.156  18.982  0.00  0.00    +0.000 NA
ATOM     16  C   UNL     1       0.895   3.136  19.745  0.00  0.00    +0.000 A 
ATOM     17  C   UNL     1       1.332   4.450  19.717  0.00  0.00    +0.000 A 
ATOM     18  C   UNL     1       2.381   4.813  18.841  0.00  0.00    +0.000 A 
ENDBRANCH   6   9
ENDBRANCH   2   3
BRANCH   2  19
ATOM     19  C   UNL     1      -0.242  11.149  19.996  0.00  0.00    +0.000 A 
ATOM     20  C   UNL     1       0.259  11.557  21.272  0.00  0.00    +0.000 A 
ATOM     21  C   UNL     1      -0.487  12.228  22.236  0.00  0.00    +0.000 A 
ATOM     22  C   UNL     1      -1.807  12.525  21.981  0.00  0.00    +0.000 A 
ATOM     23  C   UNL     1      -2.312  12.123  20.726  0.00  0.00    +0.000 A 
ATOM     24  C   UNL     1      -1.592  11.438  19.696  0.00  0.00    +0.000 A 
BRANCH  22  25
ATOM     25  C   UNL     1      -2.661  13.315  22.981  0.00  0.00    +0.000 C 
ATOM     26  C   UNL     1      -3.489  12.323  23.824  0.00  0.00    +0.000 C 
ATOM     27  C   UNL     1      -1.782  14.171  23.922  0.00  0.00    +0.000 C 
ATOM     28  C   UNL     1      -3.644  14.290  22.296  0.00  0.00    +0.000 C 
ENDBRANCH  22  25
BRANCH  24  29
ATOM     29  C   UNL     1      -2.326  11.204  18.332  0.00  0.00    +0.000 C 
ATOM     30  C   UNL     1      -1.652  12.027  17.189  0.00  0.00    +0.000 C 
ATOM     31  C   UNL     1      -2.236   9.719  17.908  0.00  0.00    +0.000 C 
ATOM     32  C   UNL     1      -3.813  11.624  18.262  0.00  0.00    +0.000 C 
ENDBRANCH  24  29
ENDBRANCH   2  19
TORSDOF 5
ENDMDL
MODEL 5
REMARK VINA RESULT:      -7.9      0.905      1.324
REMARK  Name = 
REMARK  12 active torsions:
REMARK  status: ('A' for Active; 'I' for Inactive)
REMARK    1  A    between atoms: C_1  and  C_2
REMARK    2  A    between atoms: C_2  and  N_3
REMARK    3  A    between atoms: C_2  and  C_17
REMARK    4  A    between atoms: N_6  and  C_7
REMARK    5  A    between atoms: C_20  and  C_21
REMARK    6  A    between atoms: C_21  and  C_22
REMARK    7  A    between atoms: C_21  and  C_23
REMARK    8  A    between atoms: C_21  and  C_24
REMARK    9  A    between atoms: C_26  and  C_27
REMARK   10  A    between atoms: C_27  and  C_28
REMARK   11  A    between atoms: C_27  and  C_29
REMARK   12  A    between atoms: C_27  and  C_30
REMARK                            x       y       z     vdW  Elec       q    Type
REMARK                         _______ _______ _______ _____ _____    ______ ____
ROOT
ATOM      1  C   UNL     1       1.530  12.042  18.957  0.00  0.00    +0.000 C 
ATOM      2  C   UNL     1       0.513  10.926  19.297  0.00  0.00    +0.000 C 
ENDROOT
BRANCH   2   3
ATOM      3  N   UNL     1       1.155   9.768  19.903  0.00  0.00    +0.000 N 
ATOM      4  C   UNL     1       1.543   8.742  19.098  0.00  0.00    +0.000 C 
ATOM      5  O   UNL     1       1.395   8.807  17.874  0.00  0.00    +0.000 OA
ATOM      6  N   UNL     1       2.107   7.683  19.743  0.00  0.00    +0.000 N 
ATOM      7  H   UNL     1       0.853   9.516  20.828  0.00  0.00    +0.000 HD
ATOM      8  H   UNL     1       1.917   7.597  20.726  0.00  0.00    +0.000 HD
BRANCH   6   9
ATOM      9  C   UNL     1       2.674   6.583  19.043  0.00  0.00    +0.000 A 
ATOM     10  C   UNL     1       3.591   6.809  18.000  0.00  0.00    +0.000 A 
ATOM     11  C   UNL     1       4.101   5.786  17.229  0.00  0.00    +0.000 A 
ATOM     12  C   UNL     1       3.736   4.483  17.514  0.00  0.00    +0.000 A 
ATOM     13  C   UNL     1       2.861   4.211  18.581  0.00  0.00    +0.000 A 
ATOM     14  C   UNL     1       2.491   2.902  18.876  0.00  0.00    +0.000 A 
ATOM     15  N   UNL     1       1.641   2.545  19.862  0.00  0.00    +0.000 NA
ATOM     16  C   UNL     1       1.125   3.544  20.599  0.00  0.00    +0.000 A 
ATOM     17  C   UNL     1       1.418   4.884  20.402  0.00  0.00    +0.000 A 
ATOM     18  C   UNL     1       2.309   5.252  19.367  0.00  0.00    +0.000 A 
ENDBRANCH   6   9
ENDBRANCH   2   3
BRANCH   2  19
ATOM     19  C   UNL     1      -0.700  11.448  20.078  0.00  0.00    +0.000 A 
ATOM     20  C   UNL     1      -0.441  11.890  21.413  0.00  0.00    +0.000 A 
ATOM     21  C   UNL     1      -1.396  12.439  22.263  0.00  0.00    +0.000 A 
ATOM     22  C   UNL     1      -2.694  12.569  21.825  0.00  0.00    +0.000 A 
ATOM     23  C   UNL     1      -2.961  12.132  20.510  0.00  0.00    +0.000 A 
ATOM     24  C   UNL     1      -2.022  11.567  19.591  0.00  0.00    +0.000 A 
BRANCH  22  25
ATOM     25  C   UNL     1      -3.775  13.221  22.697  0.00  0.00    +0.000 C 
ATOM     26  C   UNL     1      -3.715  12.606  24.110  0.00  0.00    +0.000 C 
ATOM     27  C   UNL     1      -3.572  14.750  22.800  0.00  0.00    +0.000 C 
ATOM     28  C   UNL     1      -5.203  13.006  22.147  0.00  0.00    +0.000 C 
ENDBRANCH  22  25
BRANCH  24  29
ATOM     29  C   UNL     1      -2.521  11.268  18.136  0.00  0.00    +0.000 C 
ATOM     30  C   UNL     1      -2.460   9.738  17.830  0.00  0.00    +0.000 C 
ATOM     31  C   UNL     1      -4.001  11.686  17.967  0.00  0.00    +0.000 C 
ATOM     32  C   UNL     1      -1.717  11.909  16.980  0.00  0.00    +0.000 C 
ENDBRANCH  24  29
ENDBRANCH   2  19
TORSDOF 5
ENDMDL
MODEL 6
REMARK VINA RESULT:      -7.9      2.147      3.891
REMARK  Name = 
REMARK  12 active torsions:
REMARK  status: ('A' for Active; 'I' for Inactive)
REMARK    1  A    between atoms: C_1  and  C_2
REMARK    2  A    between atoms: C_2  and  N_3
REMARK    3  A    between atoms: C_2  and  C_17
REMARK    4  A    between atoms: N_6  and  C_7
REMARK    5  A    between atoms: C_20  and  C_21
REMARK    6  A    between atoms: C_21  and  C_22
REMARK    7  A    between atoms: C_21  and  C_23
REMARK    8  A    between atoms: C_21  and  C_24
REMARK    9  A    between atoms: C_26  and  C_27
REMARK   10  A    between atoms: C_27  and  C_28
REMARK   11  A    between atoms: C_27  and  C_29
REMARK   12  A    between atoms: C_27  and  C_30
REMARK                            x       y       z     vdW  Elec       q    Type
REMARK                         _______ _______ _______ _____ _____    ______ ____
ROOT
ATOM      1  C   UNL     1      -0.727   9.910  17.903  0.00  0.00    +0.000 C 
ATOM      2  C   UNL     1       0.679   9.854  18.550  0.00  0.00    +0.000 C 
ENDROOT
BRANCH   2   3
ATOM      3  N   UNL     1       1.591   8.999  17.803  0.00  0.00    +0.000 N 
ATOM      4  C   UNL     1       2.250   8.012  18.467  0.00  0.00    +0.000 C 
ATOM      5  O   UNL     1       2.049   7.814  19.669  0.00  0.00    +0.000 OA
ATOM      6  N   UNL     1       3.108   7.277  17.705  0.00  0.00    +0.000 N 
ATOM      7  H   UNL     1       2.083   9.425  17.037  0.00  0.00    +0.000 HD
ATOM      8  H   UNL     1       3.417   7.689  16.842  0.00  0.00    +0.000 HD
BRANCH   6   9
ATOM      9  C   UNL     1       3.784   6.134  18.213  0.00  0.00    +0.000 A 
ATOM     10  C   UNL     1       5.131   6.230  18.608  0.00  0.00    +0.000 A 
ATOM     11  C   UNL     1       5.862   5.136  19.021  0.00  0.00    +0.000 A 
ATOM     12  C   UNL     1       5.240   3.902  19.094  0.00  0.00    +0.000 A 
ATOM     13  C   UNL     1       3.881   3.774  18.755  0.00  0.00    +0.000 A 
ATOM     14  C   UNL     1       3.248   2.536  18.828  0.00  0.00    +0.000 A 
ATOM     15  N   UNL     1       1.958   2.310  18.503  0.00  0.00    +0.000 NA
ATOM     16  C   UNL     1       1.252   3.373  18.078  0.00  0.00    +0.000 A 
ATOM     17  C   UNL     1       1.772   4.652  17.964  0.00  0.00    +0.000 A 
ATOM     18  C   UNL     1       3.124   4.883  18.306  0.00  0.00    +0.000 A 
ENDBRANCH   6   9
ENDBRANCH   2   3
BRANCH   2  19
ATOM     19  C   UNL     1       1.242  11.246  18.863  0.00  0.00    +0.000 A 
ATOM     20  C   UNL     1       2.258  11.724  17.977  0.00  0.00    +0.000 A 
ATOM     21  C   UNL     1       2.858  12.976  18.064  0.00  0.00    +0.000 A 
ATOM     22  C   UNL     1       2.481  13.836  19.070  0.00  0.00    +0.000 A 
ATOM     23  C   UNL     1       1.483  13.373  19.953  0.00  0.00    +0.000 A 
ATOM     24  C   UNL     1       0.826  12.102  19.909  0.00  0.00    +0.000 A 
BRANCH  22  25
ATOM     25  C   UNL     1       3.065  15.251  19.180  0.00  0.00    +0.000 C 
ATOM     26  C   UNL     1       3.339  15.789  17.760  0.00  0.00    +0.000 C 
ATOM     27  C   UNL     1       2.095  16.209  19.908  0.00  0.00    +0.000 C 
ATOM     28  C   UNL     1       4.394  15.294  19.967  0.00  0.00    +0.000 C 
ENDBRANCH  22  25
BRANCH  24  29
ATOM     29  C   UNL     1      -0.343  11.854  20.921  0.00  0.00    +0.000 C 
ATOM     30  C   UNL     1      -0.301  12.896  22.084  0.00  0.00    +0.000 C 
ATOM     31  C   UNL     1      -1.715  12.032  20.229  0.00  0.00    +0.000 C 
ATOM     32  C   UNL     1      -0.357  10.489  21.647  0.00  0.00    +0.000 C 
ENDBRANCH  24  29
ENDBRANCH   2  19
TORSDOF 5
ENDMDL
MODEL 7
REMARK VINA RESULT:      -7.7      2.155      4.009
REMARK  Name = 
REMARK  12 active torsions:
REMARK  status: ('A' for Active; 'I' for Inactive)
REMARK    1  A    between atoms: C_1  and  C_2
REMARK    2  A    between atoms: C_2  and  N_3
REMARK    3  A    between atoms: C_2  and  C_17
REMARK    4  A    between atoms: N_6  and  C_7
REMARK    5  A    between atoms: C_20  and  C_21
REMARK    6  A    between atoms: C_21  and  C_22
REMARK    7  A    between atoms: C_21  and  C_23
REMARK    8  A    between atoms: C_21  and  C_24
REMARK    9  A    between atoms: C_26  and  C_27
REMARK   10  A    between atoms: C_27  and  C_28
REMARK   11  A    between atoms: C_27  and  C_29
REMARK   12  A    between atoms: C_27  and  C_30
REMARK                            x       y       z     vdW  Elec       q    Type
REMARK                         _______ _______ _______ _____ _____    ______ ____
ROOT
ATOM      1  C   UNL     1      -0.736   9.965  17.994  0.00  0.00    +0.000 C 
ATOM      2  C   UNL     1       0.687   9.901  18.601  0.00  0.00    +0.000 C 
ENDROOT
BRANCH   2   3
ATOM      3  N   UNL     1       1.568   9.026  17.840  0.00  0.00    +0.000 N 
ATOM      4  C   UNL     1       2.239   8.043  18.499  0.00  0.00    +0.000 C 
ATOM      5  O   UNL     1       2.073   7.867  19.710  0.00  0.00    +0.000 OA
ATOM      6  N   UNL     1       3.065   7.287  17.723  0.00  0.00    +0.000 N 
ATOM      7  H   UNL     1       2.039   9.434  17.052  0.00  0.00    +0.000 HD
ATOM      8  H   UNL     1       3.350   7.682  16.844  0.00  0.00    +0.000 HD
BRANCH   6   9
ATOM      9  C   UNL     1       3.747   6.146  18.229  0.00  0.00    +0.000 A 
ATOM     10  C   UNL     1       5.094   6.247  18.621  0.00  0.00    +0.000 A 
ATOM     11  C   UNL     1       5.829   5.155  19.032  0.00  0.00    +0.000 A 
ATOM     12  C   UNL     1       5.212   3.919  19.104  0.00  0.00    +0.000 A 
ATOM     13  C   UNL     1       3.853   3.786  18.767  0.00  0.00    +0.000 A 
ATOM     14  C   UNL     1       3.225   2.545  18.839  0.00  0.00    +0.000 A 
ATOM     15  N   UNL     1       1.935   2.315  18.515  0.00  0.00    +0.000 NA
ATOM     16  C   UNL     1       1.225   3.376  18.092  0.00  0.00    +0.000 A 
ATOM     17  C   UNL     1       1.739   4.657  17.980  0.00  0.00    +0.000 A 
ATOM     18  C   UNL     1       3.091   4.893  18.320  0.00  0.00    +0.000 A 
ENDBRANCH   6   9
ENDBRANCH   2   3
BRANCH   2  19
ATOM     19  C   UNL     1       1.276  11.291  18.878  0.00  0.00    +0.000 A 
ATOM     20  C   UNL     1       2.282  11.737  17.965  0.00  0.00    +0.000 A 
ATOM     21  C   UNL     1       2.901  12.983  18.018  0.00  0.00    +0.000 A 
ATOM     22  C   UNL     1       2.553  13.867  19.014  0.00  0.00    +0.000 A 
ATOM     23  C   UNL     1       1.564  13.434  19.923  0.00  0.00    +0.000 A 
ATOM     24  C   UNL     1       0.890  12.172  19.914  0.00  0.00    +0.000 A 
BRANCH  22  25
ATOM     25  C   UNL     1       3.159  15.275  19.086  0.00  0.00    +0.000 C 
ATOM     26  C   UNL     1       2.071  16.262  19.556  0.00  0.00    +0.000 C 
ATOM     27  C   UNL     1       4.351  15.327  20.069  0.00  0.00    +0.000 C 
ATOM     28  C   UNL     1       3.693  15.771  17.724  0.00  0.00    +0.000 C 
ENDBRANCH  22  25
BRANCH  24  29
ATOM     29  C   UNL     1      -0.265  11.960  20.951  0.00  0.00    +0.000 C 
ATOM     30  C   UNL     1      -0.119  10.582  21.671  0.00  0.00    +0.000 C 
ATOM     31  C   UNL     1      -0.211  13.037  22.060  0.00  0.00    +0.000 C 
ATOM     32  C   UNL     1      -1.706  11.934  20.390  0.00  0.00    +0.000 C 
ENDBRANCH  24  29
ENDBRANCH   2  19
TORSDOF 5
ENDMDL
MODEL 8
REMARK VINA RESULT:      -7.7      1.103      2.108
REMARK  Name = 
REMARK  12 active torsions:
REMARK  status: ('A' for Active; 'I' for Inactive)
REMARK    1  A    between atoms: C_1  and  C_2
REMARK    2  A    between atoms: C_2  and  N_3
REMARK    3  A    between atoms: C_2  and  C_17
REMARK    4  A    between atoms: N_6  and  C_7
REMARK    5  A    between atoms: C_20  and  C_21
REMARK    6  A    between atoms: C_21  and  C_22
REMARK    7  A    between atoms: C_21  and  C_23
REMARK    8  A    between atoms: C_21  and  C_24
REMARK    9  A    between atoms: C_26  and  C_27
REMARK   10  A    between atoms: C_27  and  C_28
REMARK   11  A    between atoms: C_27  and  C_29
REMARK   12  A    between atoms: C_27  and  C_30
REMARK                            x       y       z     vdW  Elec       q    Type
REMARK                         _______ _______ _______ _____ _____    ______ ____
ROOT
ATOM      1  C   UNL     1       2.094  11.708  18.426  0.00  0.00    +0.000 C 
ATOM      2  C   UNL     1       1.076  10.646  18.907  0.00  0.00    +0.000 C 
ENDROOT
BRANCH   2   3
ATOM      3  N   UNL     1       1.732   9.455  19.429  0.00  0.00    +0.000 N 
ATOM      4  C   UNL     1       1.806   8.352  18.636  0.00  0.00    +0.000 C 
ATOM      5  O   UNL     1       1.366   8.371  17.483  0.00  0.00    +0.000 OA
ATOM      6  N   UNL     1       2.407   7.270  19.207  0.00  0.00    +0.000 N 
ATOM      7  H   UNL     1       1.646   9.288  20.416  0.00  0.00    +0.000 HD
ATOM      8  H   UNL     1       2.460   7.257  20.210  0.00  0.00    +0.000 HD
BRANCH   6   9
ATOM      9  C   UNL     1       2.673   6.079  18.478  0.00  0.00    +0.000 A 
ATOM     10  C   UNL     1       1.743   5.023  18.491  0.00  0.00    +0.000 A 
ATOM     11  C   UNL     1       1.989   3.813  17.878  0.00  0.00    +0.000 A 
ATOM     12  C   UNL     1       3.175   3.638  17.188  0.00  0.00    +0.000 A 
ATOM     13  C   UNL     1       4.110   4.687  17.111  0.00  0.00    +0.000 A 
ATOM     14  C   UNL     1       5.304   4.519  16.416  0.00  0.00    +0.000 A 
ATOM     15  N   UNL     1       6.270   5.456  16.306  0.00  0.00    +0.000 NA
ATOM     16  C   UNL     1       6.039   6.629  16.923  0.00  0.00    +0.000 A 
ATOM     17  C   UNL     1       4.890   6.912  17.642  0.00  0.00    +0.000 A 
ATOM     18  C   UNL     1       3.882   5.927  17.754  0.00  0.00    +0.000 A 
ENDBRANCH   6   9
ENDBRANCH   2   3
BRANCH   2  19
ATOM     19  C   UNL     1       0.008  11.231  19.842  0.00  0.00    +0.000 A 
ATOM     20  C   UNL     1       0.471  11.669  21.122  0.00  0.00    +0.000 A 
ATOM     21  C   UNL     1      -0.331  12.269  22.089  0.00  0.00    +0.000 A 
ATOM     22  C   UNL     1      -1.670  12.458  21.833  0.00  0.00    +0.000 A 
ATOM     23  C   UNL     1      -2.137  12.025  20.574  0.00  0.00    +0.000 A 
ATOM     24  C   UNL     1      -1.361  11.410  19.540  0.00  0.00    +0.000 A 
BRANCH  22  25
ATOM     25  C   UNL     1      -2.588  13.167  22.837  0.00  0.00    +0.000 C 
ATOM     26  C   UNL     1      -1.738  14.117  23.706  0.00  0.00    +0.000 C 
ATOM     27  C   UNL     1      -3.688  13.982  22.120  0.00  0.00    +0.000 C 
ATOM     28  C   UNL     1      -3.317  12.186  23.783  0.00  0.00    +0.000 C 
ENDBRANCH  22  25
BRANCH  24  29
ATOM     29  C   UNL     1      -2.071  11.126  18.173  0.00  0.00    +0.000 C 
ATOM     30  C   UNL     1      -3.611  11.361  18.287  0.00  0.00    +0.000 C 
ATOM     31  C   UNL     1      -1.564  12.097  17.080  0.00  0.00    +0.000 C 
ATOM     32  C   UNL     1      -1.956   9.688  17.615  0.00  0.00    +0.000 C 
ENDBRANCH  24  29
ENDBRANCH   2  19
TORSDOF 5
ENDMDL
MODEL 9
REMARK VINA RESULT:      -7.6      2.537      4.534
REMARK  Name = 
REMARK  12 active torsions:
REMARK  status: ('A' for Active; 'I' for Inactive)
REMARK    1  A    between atoms: C_1  and  C_2
REMARK    2  A    between atoms: C_2  and  N_3
REMARK    3  A    between atoms: C_2  and  C_17
REMARK    4  A    between atoms: N_6  and  C_7
REMARK    5  A    between atoms: C_20  and  C_21
REMARK    6  A    between atoms: C_21  and  C_22
REMARK    7  A    between atoms: C_21  and  C_23
REMARK    8  A    between atoms: C_21  and  C_24
REMARK    9  A    between atoms: C_26  and  C_27
REMARK   10  A    between atoms: C_27  and  C_28
REMARK   11  A    between atoms: C_27  and  C_29
REMARK   12  A    between atoms: C_27  and  C_30
REMARK                            x       y       z     vdW  Elec       q    Type
REMARK                         _______ _______ _______ _____ _____    ______ ____
ROOT
ATOM      1  C   UNL     1      -0.746  10.229  18.132  0.00  0.00    +0.000 C 
ATOM      2  C   UNL     1       0.700  10.197  18.684  0.00  0.00    +0.000 C 
ENDROOT
BRANCH   2   3
ATOM      3  N   UNL     1       1.581   9.378  17.863  0.00  0.00    +0.000 N 
ATOM      4  C   UNL     1       2.146   8.271  18.416  0.00  0.00    +0.000 C 
ATOM      5  O   UNL     1       1.885   7.940  19.576  0.00  0.00    +0.000 OA
ATOM      6  N   UNL     1       2.981   7.576  17.593  0.00  0.00    +0.000 N 
ATOM      7  H   UNL     1       2.130   9.859  17.172  0.00  0.00    +0.000 HD
ATOM      8  H   UNL     1       3.350   8.069  16.799  0.00  0.00    +0.000 HD
BRANCH   6   9
ATOM      9  C   UNL     1       3.558   6.333  17.973  0.00  0.00    +0.000 A 
ATOM     10  C   UNL     1       2.755   5.330  18.546  0.00  0.00    +0.000 A 
ATOM     11  C   UNL     1       3.276   4.143  19.015  0.00  0.00    +0.000 A 
ATOM     12  C   UNL     1       4.633   3.905  18.881  0.00  0.00    +0.000 A 
ATOM     13  C   UNL     1       5.461   4.863  18.269  0.00  0.00    +0.000 A 
ATOM     14  C   UNL     1       6.826   4.630  18.129  0.00  0.00    +0.000 A 
ATOM     15  N   UNL     1       7.703   5.496  17.577  0.00  0.00    +0.000 NA
ATOM     16  C   UNL     1       7.198   6.664  17.140  0.00  0.00    +0.000 A 
ATOM     17  C   UNL     1       5.858   7.008  17.225  0.00  0.00    +0.000 A 
ATOM     18  C   UNL     1       4.945   6.097  17.804  0.00  0.00    +0.000 A 
ENDBRANCH   6   9
ENDBRANCH   2   3
BRANCH   2  19
ATOM     19  C   UNL     1       1.251  11.597  18.986  0.00  0.00    +0.000 A 
ATOM     20  C   UNL     1       2.248  12.084  18.085  0.00  0.00    +0.000 A 
ATOM     21  C   UNL     1       2.834  13.344  18.160  0.00  0.00    +0.000 A 
ATOM     22  C   UNL     1       2.459  14.203  19.169  0.00  0.00    +0.000 A 
ATOM     23  C   UNL     1       1.479  13.730  20.067  0.00  0.00    +0.000 A 
ATOM     24  C   UNL     1       0.838  12.450  20.035  0.00  0.00    +0.000 A 
BRANCH  22  25
ATOM     25  C   UNL     1       3.028  15.625  19.267  0.00  0.00    +0.000 C 
ATOM     26  C   UNL     1       2.922  16.105  20.729  0.00  0.00    +0.000 C 
ATOM     27  C   UNL     1       4.507  15.674  18.822  0.00  0.00    +0.000 C 
ATOM     28  C   UNL     1       2.270  16.638  18.380  0.00  0.00    +0.000 C 
ENDBRANCH  22  25
BRANCH  24  29
ATOM     29  C   UNL     1      -0.314  12.191  21.063  0.00  0.00    +0.000 C 
ATOM     30  C   UNL     1      -0.304  13.269  22.193  0.00  0.00    +0.000 C 
ATOM     31  C   UNL     1      -1.697  12.297  20.377  0.00  0.00    +0.000 C 
ATOM     32  C   UNL     1      -0.272  10.850  21.831  0.00  0.00    +0.000 C 
ENDBRANCH  24  29
ENDBRANCH   2  19
TORSDOF 5
ENDMDL
