MODEL 1
REMARK VINA RESULT:      -7.4      0.000      0.000
REMARK  Name = 
REMARK  12 active torsions:
REMARK  status: ('A' for Active; 'I' for Inactive)
REMARK    1  A    between atoms: C_1  and  C_2
REMARK    2  A    between atoms: C_2  and  C_3
REMARK    3  A    between atoms: C_2  and  C_4
REMARK    4  A    between atoms: C_4  and  C_5
REMARK    5  A    between atoms: C_5  and  C_6
REMARK    6  A    between atoms: C_5  and  N_9
REMARK    7  A    between atoms: C_6  and  O_8
REMARK    8  A    between atoms: C_14  and  C_15
REMARK    9  A    between atoms: C_18  and  C_19
REMARK   10  A    between atoms: C_19  and  C_20
REMARK   11  A    between atoms: C_19  and  C_21
REMARK   12  A    between atoms: C_19  and  C_22
REMARK                            x       y       z     vdW  Elec       q    Type
REMARK                         _______ _______ _______ _____ _____    ______ ____
ROOT
ATOM      1  N   UNL     1       3.880   5.990  18.711  0.00  0.00    +0.000 N 
ATOM      2  C   UNL     1       3.035   5.786  19.764  0.00  0.00    +0.000 C 
ATOM      3  O   UNL     1       2.995   4.775  20.451  0.00  0.00    +0.000 OA
ATOM      4  S   UNL     1       1.907   7.108  19.917  0.00  0.00    +0.000 S 
ATOM      5  C   UNL     1       2.405   7.793  18.424  0.00  0.00    +0.000 C 
ATOM      6  C   UNL     1       1.984   8.929  17.852  0.00  0.00    +0.000 C 
ATOM      7  C   UNL     1       3.494   6.971  17.827  0.00  0.00    +0.000 C 
ATOM      8  O   UNL     1       3.964   7.168  16.717  0.00  0.00    +0.000 OA
ENDROOT
BRANCH   6   9
ATOM      9  C   UNL     1       1.046   9.872  18.463  0.00  0.00    +0.000 A 
ATOM     10  C   UNL     1      -0.317   9.733  18.197  0.00  0.00    +0.000 A 
ATOM     11  C   UNL     1      -1.244  10.616  18.762  0.00  0.00    +0.000 A 
ATOM     12  C   UNL     1      -0.840  11.658  19.612  0.00  0.00    +0.000 A 
ATOM     13  C   UNL     1       0.543  11.786  19.858  0.00  0.00    +0.000 A 
ATOM     14  C   UNL     1       1.475  10.905  19.292  0.00  0.00    +0.000 A 
BRANCH  12  15
ATOM     15  C   UNL     1      -1.850  12.616  20.275  0.00  0.00    +0.000 C 
ATOM     16  C   UNL     1      -3.274  12.511  19.684  0.00  0.00    +0.000 C 
ATOM     17  C   UNL     1      -1.953  12.299  21.781  0.00  0.00    +0.000 C 
ATOM     18  C   UNL     1      -1.395  14.082  20.103  0.00  0.00    +0.000 C 
ENDBRANCH  12  15
ENDBRANCH   6   9
BRANCH   1  19
ATOM     19  C   UNL     1       5.006   5.093  18.400  0.00  0.00    +0.000 C 
BRANCH  19  20
ATOM     20  C   UNL     1       4.560   3.627  18.436  0.00  0.00    +0.000 C 
ATOM     21  O   UNL     1       3.828   3.135  17.588  0.00  0.00    +0.000 OA
BRANCH  20  22
ATOM     22  O   UNL     1       5.097   2.872  19.421  0.00  0.00    +0.000 OA
ATOM     23  H   UNL     1       5.707   3.330  20.044  0.00  0.00    +0.000 HD
ENDBRANCH  20  22
ENDBRANCH  19  20
BRANCH  19  24
ATOM     24  C   UNL     1       6.241   5.354  19.289  0.00  0.00    +0.000 C 
BRANCH  24  26
ATOM     25  C   UNL     1       7.699   4.588  17.327  0.00  0.00    +0.000 C 
ATOM     26  C   UNL     1       7.581   5.513  18.539  0.00  0.00    +0.000 C 
ATOM     27  C   UNL     1       7.758   6.965  18.079  0.00  0.00    +0.000 C 
ENDBRANCH  24  26
ENDBRANCH  19  24
ENDBRANCH   1  19
TORSDOF 7
ENDMDL
MODEL 2
REMARK VINA RESULT:      -7.3      0.228      1.270
REMARK  Name = 
REMARK  12 active torsions:
REMARK  status: ('A' for Active; 'I' for Inactive)
REMARK    1  A    between atoms: C_1  and  C_2
REMARK    2  A    between atoms: C_2  and  C_3
REMARK    3  A    between atoms: C_2  and  C_4
REMARK    4  A    between atoms: C_4  and  C_5
REMARK    5  A    between atoms: C_5  and  C_6
REMARK    6  A    between atoms: C_5  and  N_9
REMARK    7  A    between atoms: C_6  and  O_8
REMARK    8  A    between atoms: C_14  and  C_15
REMARK    9  A    between atoms: C_18  and  C_19
REMARK   10  A    between atoms: C_19  and  C_20
REMARK   11  A    between atoms: C_19  and  C_21
REMARK   12  A    between atoms: C_19  and  C_22
REMARK                            x       y       z     vdW  Elec       q    Type
REMARK                         _______ _______ _______ _____ _____    ______ ____
ROOT
ATOM      1  N   UNL     1       3.827   5.976  18.748  0.00  0.00    +0.000 N 
ATOM      2  C   UNL     1       2.994   5.742  19.803  0.00  0.00    +0.000 C 
ATOM      3  O   UNL     1       2.984   4.724  20.482  0.00  0.00    +0.000 OA
ATOM      4  S   UNL     1       1.832   7.033  19.974  0.00  0.00    +0.000 S 
ATOM      5  C   UNL     1       2.305   7.743  18.484  0.00  0.00    +0.000 C 
ATOM      6  C   UNL     1       1.851   8.872  17.924  0.00  0.00    +0.000 C 
ATOM      7  C   UNL     1       3.411   6.954  17.874  0.00  0.00    +0.000 C 
ATOM      8  O   UNL     1       3.870   7.173  16.763  0.00  0.00    +0.000 OA
ENDROOT
BRANCH   6   9
ATOM      9  C   UNL     1       0.892   9.785  18.548  0.00  0.00    +0.000 A 
ATOM     10  C   UNL     1       1.297  10.530  19.656  0.00  0.00    +0.000 A 
ATOM     11  C   UNL     1       0.409  11.414  20.280  0.00  0.00    +0.000 A 
ATOM     12  C   UNL     1      -0.906  11.582  19.816  0.00  0.00    +0.000 A 
ATOM     13  C   UNL     1      -1.296  10.811  18.701  0.00  0.00    +0.000 A 
ATOM     14  C   UNL     1      -0.410   9.924  18.075  0.00  0.00    +0.000 A 
BRANCH  12  15
ATOM     15  C   UNL     1      -1.886  12.578  20.466  0.00  0.00    +0.000 C 
ATOM     16  C   UNL     1      -1.458  14.055  20.303  0.00  0.00    +0.000 C 
ATOM     17  C   UNL     1      -3.280  12.431  19.819  0.00  0.00    +0.000 C 
ATOM     18  C   UNL     1      -2.007  12.306  21.981  0.00  0.00    +0.000 C 
ENDBRANCH  12  15
ENDBRANCH   6   9
BRANCH   1  19
ATOM     19  C   UNL     1       4.975   5.111  18.423  0.00  0.00    +0.000 C 
BRANCH  19  20
ATOM     20  C   UNL     1       4.568   3.634  18.453  0.00  0.00    +0.000 C 
ATOM     21  O   UNL     1       3.838   3.130  17.610  0.00  0.00    +0.000 OA
BRANCH  20  22
ATOM     22  O   UNL     1       5.137   2.886  19.425  0.00  0.00    +0.000 OA
ATOM     23  H   UNL     1       5.846   3.318  19.955  0.00  0.00    +0.000 HD
ENDBRANCH  20  22
ENDBRANCH  19  20
BRANCH  19  24
ATOM     24  C   UNL     1       6.209   5.400  19.305  0.00  0.00    +0.000 C 
BRANCH  24  26
ATOM     25  C   UNL     1       7.856   4.524  17.550  0.00  0.00    +0.000 C 
ATOM     26  C   UNL     1       7.530   5.639  18.544  0.00  0.00    +0.000 C 
ATOM     27  C   UNL     1       7.472   6.976  17.795  0.00  0.00    +0.000 C 
ENDBRANCH  24  26
ENDBRANCH  19  24
ENDBRANCH   1  19
TORSDOF 7
ENDMDL
MODEL 3
REMARK VINA RESULT:      -6.9      1.755      3.339
REMARK  Name = 
REMARK  12 active torsions:
REMARK  status: ('A' for Active; 'I' for Inactive)
REMARK    1  A    between atoms: C_1  and  C_2
REMARK    2  A    between atoms: C_2  and  C_3
REMARK    3  A    between atoms: C_2  and  C_4
REMARK    4  A    between atoms: C_4  and  C_5
REMARK    5  A    between atoms: C_5  and  C_6
REMARK    6  A    between atoms: C_5  and  N_9
REMARK    7  A    between atoms: C_6  and  O_8
REMARK    8  A    between atoms: C_14  and  C_15
REMARK    9  A    between atoms: C_18  and  C_19
REMARK   10  A    between atoms: C_19  and  C_20
REMARK   11  A    between atoms: C_19  and  C_21
REMARK   12  A    between atoms: C_19  and  C_22
REMARK                            x       y       z     vdW  Elec       q    Type
REMARK                         _______ _______ _______ _____ _____    ______ ____
ROOT
ATOM      1  N   UNL     1       3.319   5.646  18.683  0.00  0.00    +0.000 N 
ATOM      2  C   UNL     1       3.505   6.695  17.832  0.00  0.00    +0.000 C 
ATOM      3  O   UNL     1       4.285   6.711  16.890  0.00  0.00    +0.000 OA
ATOM      4  S   UNL     1       2.580   8.083  18.348  0.00  0.00    +0.000 S 
ATOM      5  C   UNL     1       2.159   7.331  19.833  0.00  0.00    +0.000 C 
ATOM      6  C   UNL     1       1.372   7.806  20.807  0.00  0.00    +0.000 C 
ATOM      7  C   UNL     1       2.740   5.961  19.891  0.00  0.00    +0.000 C 
ATOM      8  O   UNL     1       2.686   5.241  20.876  0.00  0.00    +0.000 OA
ENDROOT
BRANCH   6   9
ATOM      9  C   UNL     1       0.631   9.067  20.740  0.00  0.00    +0.000 A 
ATOM     10  C   UNL     1       0.391   9.769  21.922  0.00  0.00    +0.000 A 
ATOM     11  C   UNL     1      -0.314  10.978  21.899  0.00  0.00    +0.000 A 
ATOM     12  C   UNL     1      -0.796  11.522  20.698  0.00  0.00    +0.000 A 
ATOM     13  C   UNL     1      -0.550  10.791  19.517  0.00  0.00    +0.000 A 
ATOM     14  C   UNL     1       0.154   9.579  19.537  0.00  0.00    +0.000 A 
BRANCH  12  15
ATOM     15  C   UNL     1      -1.540  12.871  20.647  0.00  0.00    +0.000 C 
ATOM     16  C   UNL     1      -0.878  13.902  19.705  0.00  0.00    +0.000 C 
ATOM     17  C   UNL     1      -2.982  12.649  20.142  0.00  0.00    +0.000 C 
ATOM     18  C   UNL     1      -1.596  13.510  22.052  0.00  0.00    +0.000 C 
ENDBRANCH  12  15
ENDBRANCH   6   9
BRANCH   1  19
ATOM     19  C   UNL     1       3.889   4.308  18.446  0.00  0.00    +0.000 C 
BRANCH  19  20
ATOM     20  C   UNL     1       5.408   4.389  18.260  0.00  0.00    +0.000 C 
ATOM     21  O   UNL     1       6.173   4.686  19.168  0.00  0.00    +0.000 OA
BRANCH  20  22
ATOM     22  O   UNL     1       5.873   4.026  17.043  0.00  0.00    +0.000 OA
ATOM     23  H   UNL     1       6.393   4.702  16.550  0.00  0.00    +0.000 HD
ENDBRANCH  20  22
ENDBRANCH  19  20
BRANCH  19  24
ATOM     24  C   UNL     1       3.194   3.559  17.289  0.00  0.00    +0.000 C 
BRANCH  24  26
ATOM     25  C   UNL     1       3.460   1.280  18.427  0.00  0.00    +0.000 C 
ATOM     26  C   UNL     1       2.524   2.221  17.667  0.00  0.00    +0.000 C 
ATOM     27  C   UNL     1       1.275   2.481  18.519  0.00  0.00    +0.000 C 
ENDBRANCH  24  26
ENDBRANCH  19  24
ENDBRANCH   1  19
TORSDOF 7
ENDMDL
MODEL 4
REMARK VINA RESULT:      -6.9      1.915      2.941
REMARK  Name = 
REMARK  12 active torsions:
REMARK  status: ('A' for Active; 'I' for Inactive)
REMARK    1  A    between atoms: C_1  and  C_2
REMARK    2  A    between atoms: C_2  and  C_3
REMARK    3  A    between atoms: C_2  and  C_4
REMARK    4  A    between atoms: C_4  and  C_5
REMARK    5  A    between atoms: C_5  and  C_6
REMARK    6  A    between atoms: C_5  and  N_9
REMARK    7  A    between atoms: C_6  and  O_8
REMARK    8  A    between atoms: C_14  and  C_15
REMARK    9  A    between atoms: C_18  and  C_19
REMARK   10  A    between atoms: C_19  and  C_20
REMARK   11  A    between atoms: C_19  and  C_21
REMARK   12  A    between atoms: C_19  and  C_22
REMARK                            x       y       z     vdW  Elec       q    Type
REMARK                         _______ _______ _______ _____ _____    ______ ____
ROOT
ATOM      1  N   UNL     1       2.854   6.388  18.331  0.00  0.00    +0.000 N 
ATOM      2  C   UNL     1       2.888   7.614  17.733  0.00  0.00    +0.000 C 
ATOM      3  O   UNL     1       3.531   7.892  16.731  0.00  0.00    +0.000 OA
ATOM      4  S   UNL     1       2.002   8.787  18.674  0.00  0.00    +0.000 S 
ATOM      5  C   UNL     1       1.812   7.691  19.982  0.00  0.00    +0.000 C 
ATOM      6  C   UNL     1       1.153   7.880  21.132  0.00  0.00    +0.000 C 
ATOM      7  C   UNL     1       2.437   6.382  19.643  0.00  0.00    +0.000 C 
ATOM      8  O   UNL     1       2.541   5.453  20.429  0.00  0.00    +0.000 OA
ENDROOT
BRANCH   6   9
ATOM      9  C   UNL     1       0.372   9.075  21.458  0.00  0.00    +0.000 A 
ATOM     10  C   UNL     1      -0.044   9.267  22.776  0.00  0.00    +0.000 A 
ATOM     11  C   UNL     1      -0.793  10.397  23.127  0.00  0.00    +0.000 A 
ATOM     12  C   UNL     1      -1.144  11.368  22.175  0.00  0.00    +0.000 A 
ATOM     13  C   UNL     1      -0.721  11.147  20.847  0.00  0.00    +0.000 A 
ATOM     14  C   UNL     1       0.027  10.016  20.492  0.00  0.00    +0.000 A 
BRANCH  12  15
ATOM     15  C   UNL     1      -1.934  12.637  22.549  0.00  0.00    +0.000 C 
ATOM     16  C   UNL     1      -1.070  13.715  23.242  0.00  0.00    +0.000 C 
ATOM     17  C   UNL     1      -2.526  13.274  21.274  0.00  0.00    +0.000 C 
ATOM     18  C   UNL     1      -3.087  12.290  23.516  0.00  0.00    +0.000 C 
ENDBRANCH  12  15
ENDBRANCH   6   9
BRANCH   1  19
ATOM     19  C   UNL     1       3.426   5.177  17.715  0.00  0.00    +0.000 C 
BRANCH  19  20
ATOM     20  C   UNL     1       2.489   3.979  17.900  0.00  0.00    +0.000 C 
ATOM     21  O   UNL     1       1.426   3.870  17.304  0.00  0.00    +0.000 OA
BRANCH  20  22
ATOM     22  O   UNL     1       2.946   2.991  18.704  0.00  0.00    +0.000 OA
ATOM     23  H   UNL     1       3.378   2.227  18.259  0.00  0.00    +0.000 HD
ENDBRANCH  20  22
ENDBRANCH  19  20
BRANCH  19  24
ATOM     24  C   UNL     1       4.862   4.882  18.201  0.00  0.00    +0.000 C 
BRANCH  24  26
ATOM     25  C   UNL     1       5.598   5.181  15.766  0.00  0.00    +0.000 C 
ATOM     26  C   UNL     1       5.870   4.486  17.101  0.00  0.00    +0.000 C 
ATOM     27  C   UNL     1       7.298   4.813  17.554  0.00  0.00    +0.000 C 
ENDBRANCH  24  26
ENDBRANCH  19  24
ENDBRANCH   1  19
TORSDOF 7
ENDMDL
MODEL 5
REMARK VINA RESULT:      -6.9      1.946      2.814
REMARK  Name = 
REMARK  12 active torsions:
REMARK  status: ('A' for Active; 'I' for Inactive)
REMARK    1  A    between atoms: C_1  and  C_2
REMARK    2  A    between atoms: C_2  and  C_3
REMARK    3  A    between atoms: C_2  and  C_4
REMARK    4  A    between atoms: C_4  and  C_5
REMARK    5  A    between atoms: C_5  and  C_6
REMARK    6  A    between atoms: C_5  and  N_9
REMARK    7  A    between atoms: C_6  and  O_8
REMARK    8  A    between atoms: C_14  and  C_15
REMARK    9  A    between atoms: C_18  and  C_19
REMARK   10  A    between atoms: C_19  and  C_20
REMARK   11  A    between atoms: C_19  and  C_21
REMARK   12  A    between atoms: C_19  and  C_22
REMARK                            x       y       z     vdW  Elec       q    Type
REMARK                         _______ _______ _______ _____ _____    ______ ____
ROOT
ATOM      1  N   UNL     1       2.765   6.463  18.369  0.00  0.00    +0.000 N 
ATOM      2  C   UNL     1       2.788   7.699  17.793  0.00  0.00    +0.000 C 
ATOM      3  O   UNL     1       3.415   7.997  16.786  0.00  0.00    +0.000 OA
ATOM      4  S   UNL     1       1.913   8.853  18.767  0.00  0.00    +0.000 S 
ATOM      5  C   UNL     1       1.745   7.734  20.058  0.00  0.00    +0.000 C 
ATOM      6  C   UNL     1       1.103   7.902  21.221  0.00  0.00    +0.000 C 
ATOM      7  C   UNL     1       2.368   6.433  19.686  0.00  0.00    +0.000 C 
ATOM      8  O   UNL     1       2.485   5.491  20.455  0.00  0.00    +0.000 OA
ENDROOT
BRANCH   6   9
ATOM      9  C   UNL     1       0.324   9.089  21.580  0.00  0.00    +0.000 A 
ATOM     10  C   UNL     1      -0.034   9.986  20.574  0.00  0.00    +0.000 A 
ATOM     11  C   UNL     1      -0.778  11.133  20.878  0.00  0.00    +0.000 A 
ATOM     12  C   UNL     1      -1.188  11.414  22.191  0.00  0.00    +0.000 A 
ATOM     13  C   UNL     1      -0.804  10.498  23.193  0.00  0.00    +0.000 A 
ATOM     14  C   UNL     1      -0.058   9.350  22.893  0.00  0.00    +0.000 A 
BRANCH  12  15
ATOM     15  C   UNL     1      -2.040  12.650  22.540  0.00  0.00    +0.000 C 
ATOM     16  C   UNL     1      -2.709  13.301  21.308  0.00  0.00    +0.000 C 
ATOM     17  C   UNL     1      -3.166  12.246  23.514  0.00  0.00    +0.000 C 
ATOM     18  C   UNL     1      -1.167  13.736  23.207  0.00  0.00    +0.000 C 
ENDBRANCH  12  15
ENDBRANCH   6   9
BRANCH   1  19
ATOM     19  C   UNL     1       3.331   5.265  17.724  0.00  0.00    +0.000 C 
BRANCH  19  20
ATOM     20  C   UNL     1       2.409   4.056  17.919  0.00  0.00    +0.000 C 
ATOM     21  O   UNL     1       1.327   3.949  17.359  0.00  0.00    +0.000 OA
BRANCH  20  22
ATOM     22  O   UNL     1       2.902   3.058  18.689  0.00  0.00    +0.000 OA
ATOM     23  H   UNL     1       3.724   3.257  19.194  0.00  0.00    +0.000 HD
ENDBRANCH  20  22
ENDBRANCH  19  20
BRANCH  19  24
ATOM     24  C   UNL     1       4.782   4.977  18.166  0.00  0.00    +0.000 C 
BRANCH  24  26
ATOM     25  C   UNL     1       5.532   5.309  15.740  0.00  0.00    +0.000 C 
ATOM     26  C   UNL     1       5.746   4.539  17.044  0.00  0.00    +0.000 C 
ATOM     27  C   UNL     1       7.200   4.721  17.499  0.00  0.00    +0.000 C 
ENDBRANCH  24  26
ENDBRANCH  19  24
ENDBRANCH   1  19
TORSDOF 7
ENDMDL
MODEL 6
REMARK VINA RESULT:      -6.9      1.722      2.589
REMARK  Name = 
REMARK  12 active torsions:
REMARK  status: ('A' for Active; 'I' for Inactive)
REMARK    1  A    between atoms: C_1  and  C_2
REMARK    2  A    between atoms: C_2  and  C_3
REMARK    3  A    between atoms: C_2  and  C_4
REMARK    4  A    between atoms: C_4  and  C_5
REMARK    5  A    between atoms: C_5  and  C_6
REMARK    6  A    between atoms: C_5  and  N_9
REMARK    7  A    between atoms: C_6  and  O_8
REMARK    8  A    between atoms: C_14  and  C_15
REMARK    9  A    between atoms: C_18  and  C_19
REMARK   10  A    between atoms: C_19  and  C_20
REMARK   11  A    between atoms: C_19  and  C_21
REMARK   12  A    between atoms: C_19  and  C_22
REMARK                            x       y       z     vdW  Elec       q    Type
REMARK                         _______ _______ _______ _____ _____    ______ ____
ROOT
ATOM      1  N   UNL     1       3.340   5.844  18.289  0.00  0.00    +0.000 N 
ATOM      2  C   UNL     1       3.416   7.046  17.648  0.00  0.00    +0.000 C 
ATOM      3  O   UNL     1       4.115   7.282  16.672  0.00  0.00    +0.000 OA
ATOM      4  S   UNL     1       2.487   8.259  18.492  0.00  0.00    +0.000 S 
ATOM      5  C   UNL     1       2.218   7.215  19.829  0.00  0.00    +0.000 C 
ATOM      6  C   UNL     1       1.498   7.452  20.933  0.00  0.00    +0.000 C 
ATOM      7  C   UNL     1       2.852   5.892  19.575  0.00  0.00    +0.000 C 
ATOM      8  O   UNL     1       2.905   4.993  20.401  0.00  0.00    +0.000 OA
ENDROOT
BRANCH   6   9
ATOM      9  C   UNL     1       0.708   8.663  21.169  0.00  0.00    +0.000 A 
ATOM     10  C   UNL     1       0.419   9.030  22.484  0.00  0.00    +0.000 A 
ATOM     11  C   UNL     1      -0.333  10.180  22.749  0.00  0.00    +0.000 A 
ATOM     12  C   UNL     1      -0.814  10.998  21.714  0.00  0.00    +0.000 A 
ATOM     13  C   UNL     1      -0.519  10.601  20.393  0.00  0.00    +0.000 A 
ATOM     14  C   UNL     1       0.233   9.448  20.123  0.00  0.00    +0.000 A 
BRANCH  12  15
ATOM     15  C   UNL     1      -1.611  12.288  21.988  0.00  0.00    +0.000 C 
ATOM     16  C   UNL     1      -2.610  12.155  23.160  0.00  0.00    +0.000 C 
ATOM     17  C   UNL     1      -0.638  13.433  22.343  0.00  0.00    +0.000 C 
ATOM     18  C   UNL     1      -2.426  12.694  20.741  0.00  0.00    +0.000 C 
ENDBRANCH  12  15
ENDBRANCH   6   9
BRANCH   1  19
ATOM     19  C   UNL     1       3.937   4.608  17.753  0.00  0.00    +0.000 C 
BRANCH  19  20
ATOM     20  C   UNL     1       2.953   3.438  17.861  0.00  0.00    +0.000 C 
ATOM     21  O   UNL     1       1.954   3.345  17.160  0.00  0.00    +0.000 OA
BRANCH  20  22
ATOM     22  O   UNL     1       3.298   2.456  18.724  0.00  0.00    +0.000 OA
ATOM     23  H   UNL     1       3.556   2.738  19.631  0.00  0.00    +0.000 HD
ENDBRANCH  20  22
ENDBRANCH  19  20
BRANCH  19  24
ATOM     24  C   UNL     1       5.308   4.284  18.385  0.00  0.00    +0.000 C 
BRANCH  24  26
ATOM     25  C   UNL     1       6.190   4.486  15.989  0.00  0.00    +0.000 C 
ATOM     26  C   UNL     1       6.534   4.524  17.479  0.00  0.00    +0.000 C 
ATOM     27  C   UNL     1       7.176   5.877  17.809  0.00  0.00    +0.000 C 
ENDBRANCH  24  26
ENDBRANCH  19  24
ENDBRANCH   1  19
TORSDOF 7
ENDMDL
MODEL 7
REMARK VINA RESULT:      -6.9      0.271      1.140
REMARK  Name = 
REMARK  12 active torsions:
REMARK  status: ('A' for Active; 'I' for Inactive)
REMARK    1  A    between atoms: C_1  and  C_2
REMARK    2  A    between atoms: C_2  and  C_3
REMARK    3  A    between atoms: C_2  and  C_4
REMARK    4  A    between atoms: C_4  and  C_5
REMARK    5  A    between atoms: C_5  and  C_6
REMARK    6  A    between atoms: C_5  and  N_9
REMARK    7  A    between atoms: C_6  and  O_8
REMARK    8  A    between atoms: C_14  and  C_15
REMARK    9  A    between atoms: C_18  and  C_19
REMARK   10  A    between atoms: C_19  and  C_20
REMARK   11  A    between atoms: C_19  and  C_21
REMARK   12  A    between atoms: C_19  and  C_22
REMARK                            x       y       z     vdW  Elec       q    Type
REMARK                         _______ _______ _______ _____ _____    ______ ____
ROOT
ATOM      1  N   UNL     1       3.858   5.863  18.868  0.00  0.00    +0.000 N 
ATOM      2  C   UNL     1       2.983   5.643  19.892  0.00  0.00    +0.000 C 
ATOM      3  O   UNL     1       2.936   4.629  20.574  0.00  0.00    +0.000 OA
ATOM      4  S   UNL     1       1.830   6.948  20.013  0.00  0.00    +0.000 S 
ATOM      5  C   UNL     1       2.367   7.646  18.539  0.00  0.00    +0.000 C 
ATOM      6  C   UNL     1       1.947   8.777  17.957  0.00  0.00    +0.000 C 
ATOM      7  C   UNL     1       3.486   6.841  17.975  0.00  0.00    +0.000 C 
ATOM      8  O   UNL     1       3.989   7.049  16.881  0.00  0.00    +0.000 OA
ENDROOT
BRANCH   6   9
ATOM      9  C   UNL     1       0.976   9.704  18.541  0.00  0.00    +0.000 A 
ATOM     10  C   UNL     1       1.351  10.458  19.653  0.00  0.00    +0.000 A 
ATOM     11  C   UNL     1       0.450  11.354  20.239  0.00  0.00    +0.000 A 
ATOM     12  C   UNL     1      -0.847  11.528  19.731  0.00  0.00    +0.000 A 
ATOM     13  C   UNL     1      -1.208  10.747  18.612  0.00  0.00    +0.000 A 
ATOM     14  C   UNL     1      -0.309   9.847  18.024  0.00  0.00    +0.000 A 
BRANCH  12  15
ATOM     15  C   UNL     1      -1.840  12.538  20.338  0.00  0.00    +0.000 C 
ATOM     16  C   UNL     1      -3.262  12.435  19.741  0.00  0.00    +0.000 C 
ATOM     17  C   UNL     1      -1.962  12.296  21.858  0.00  0.00    +0.000 C 
ATOM     18  C   UNL     1      -1.353  13.984  20.100  0.00  0.00    +0.000 C 
ENDBRANCH  12  15
ENDBRANCH   6   9
BRANCH   1  19
ATOM     19  C   UNL     1       5.007   4.984  18.590  0.00  0.00    +0.000 C 
BRANCH  19  20
ATOM     20  C   UNL     1       4.646   3.518  18.854  0.00  0.00    +0.000 C 
ATOM     21  O   UNL     1       5.152   2.862  19.754  0.00  0.00    +0.000 OA
BRANCH  20  22
ATOM     22  O   UNL     1       3.662   3.005  18.080  0.00  0.00    +0.000 OA
ATOM     23  H   UNL     1       3.158   3.645  17.528  0.00  0.00    +0.000 HD
ENDBRANCH  20  22
ENDBRANCH  19  20
BRANCH  19  24
ATOM     24  C   UNL     1       6.286   5.419  19.339  0.00  0.00    +0.000 C 
BRANCH  24  26
ATOM     25  C   UNL     1       7.543   4.663  17.239  0.00  0.00    +0.000 C 
ATOM     26  C   UNL     1       7.548   5.577  18.464  0.00  0.00    +0.000 C 
ATOM     27  C   UNL     1       7.688   7.033  18.002  0.00  0.00    +0.000 C 
ENDBRANCH  24  26
ENDBRANCH  19  24
ENDBRANCH   1  19
TORSDOF 7
ENDMDL
MODEL 8
REMARK VINA RESULT:      -6.9      1.299      2.411
REMARK  Name = 
REMARK  12 active torsions:
REMARK  status: ('A' for Active; 'I' for Inactive)
REMARK    1  A    between atoms: C_1  and  C_2
REMARK    2  A    between atoms: C_2  and  C_3
REMARK    3  A    between atoms: C_2  and  C_4
REMARK    4  A    between atoms: C_4  and  C_5
REMARK    5  A    between atoms: C_5  and  C_6
REMARK    6  A    between atoms: C_5  and  N_9
REMARK    7  A    between atoms: C_6  and  O_8
REMARK    8  A    between atoms: C_14  and  C_15
REMARK    9  A    between atoms: C_18  and  C_19
REMARK   10  A    between atoms: C_19  and  C_20
REMARK   11  A    between atoms: C_19  and  C_21
REMARK   12  A    between atoms: C_19  and  C_22
REMARK                            x       y       z     vdW  Elec       q    Type
REMARK                         _______ _______ _______ _____ _____    ______ ____
ROOT
ATOM      1  N   UNL     1       3.696   5.532  19.174  0.00  0.00    +0.000 N 
ATOM      2  C   UNL     1       2.792   5.370  20.183  0.00  0.00    +0.000 C 
ATOM      3  O   UNL     1       2.668   4.360  20.863  0.00  0.00    +0.000 OA
ATOM      4  S   UNL     1       1.726   6.747  20.288  0.00  0.00    +0.000 S 
ATOM      5  C   UNL     1       2.331   7.409  18.823  0.00  0.00    +0.000 C 
ATOM      6  C   UNL     1       1.996   8.566  18.237  0.00  0.00    +0.000 C 
ATOM      7  C   UNL     1       3.404   6.533  18.276  0.00  0.00    +0.000 C 
ATOM      8  O   UNL     1       3.937   6.708  17.191  0.00  0.00    +0.000 OA
ENDROOT
BRANCH   6   9
ATOM      9  C   UNL     1       1.079   9.554  18.806  0.00  0.00    +0.000 A 
ATOM     10  C   UNL     1      -0.054   9.918  18.078  0.00  0.00    +0.000 A 
ATOM     11  C   UNL     1      -0.954  10.860  18.589  0.00  0.00    +0.000 A 
ATOM     12  C   UNL     1      -0.753  11.463  19.841  0.00  0.00    +0.000 A 
ATOM     13  C   UNL     1       0.405  11.088  20.555  0.00  0.00    +0.000 A 
ATOM     14  C   UNL     1       1.309  10.146  20.046  0.00  0.00    +0.000 A 
BRANCH  12  15
ATOM     15  C   UNL     1      -1.752  12.473  20.438  0.00  0.00    +0.000 C 
ATOM     16  C   UNL     1      -3.154  12.403  19.791  0.00  0.00    +0.000 C 
ATOM     17  C   UNL     1      -1.928  12.199  21.946  0.00  0.00    +0.000 C 
ATOM     18  C   UNL     1      -1.237  13.917  20.249  0.00  0.00    +0.000 C 
ENDBRANCH  12  15
ENDBRANCH   6   9
BRANCH   1  19
ATOM     19  C   UNL     1       4.789   4.579  18.913  0.00  0.00    +0.000 C 
BRANCH  19  20
ATOM     20  C   UNL     1       6.146   5.291  18.928  0.00  0.00    +0.000 C 
ATOM     21  O   UNL     1       6.820   5.413  19.942  0.00  0.00    +0.000 OA
BRANCH  20  22
ATOM     22  O   UNL     1       6.606   5.709  17.727  0.00  0.00    +0.000 OA
ATOM     23  H   UNL     1       6.685   6.682  17.599  0.00  0.00    +0.000 HD
ENDBRANCH  20  22
ENDBRANCH  19  20
BRANCH  19  24
ATOM     24  C   UNL     1       4.571   3.757  17.624  0.00  0.00    +0.000 C 
BRANCH  24  26
ATOM     25  C   UNL     1       3.955   1.805  19.164  0.00  0.00    +0.000 C 
ATOM     26  C   UNL     1       3.759   2.455  17.793  0.00  0.00    +0.000 C 
ATOM     27  C   UNL     1       2.266   2.734  17.581  0.00  0.00    +0.000 C 
ENDBRANCH  24  26
ENDBRANCH  19  24
ENDBRANCH   1  19
TORSDOF 7
ENDMDL
MODEL 9
REMARK VINA RESULT:      -6.8      0.868      1.247
REMARK  Name = 
REMARK  12 active torsions:
REMARK  status: ('A' for Active; 'I' for Inactive)
REMARK    1  A    between atoms: C_1  and  C_2
REMARK    2  A    between atoms: C_2  and  C_3
REMARK    3  A    between atoms: C_2  and  C_4
REMARK    4  A    between atoms: C_4  and  C_5
REMARK    5  A    between atoms: C_5  and  C_6
REMARK    6  A    between atoms: C_5  and  N_9
REMARK    7  A    between atoms: C_6  and  O_8
REMARK    8  A    between atoms: C_14  and  C_15
REMARK    9  A    between atoms: C_18  and  C_19
REMARK   10  A    between atoms: C_19  and  C_20
REMARK   11  A    between atoms: C_19  and  C_21
REMARK   12  A    between atoms: C_19  and  C_22
REMARK                            x       y       z     vdW  Elec       q    Type
REMARK                         _______ _______ _______ _____ _____    ______ ____
ROOT
ATOM      1  N   UNL     1       3.768   5.657  18.947  0.00  0.00    +0.000 N 
ATOM      2  C   UNL     1       2.973   5.357  20.015  0.00  0.00    +0.000 C 
ATOM      3  O   UNL     1       2.947   4.280  20.594  0.00  0.00    +0.000 OA
ATOM      4  S   UNL     1       1.881   6.673  20.363  0.00  0.00    +0.000 S 
ATOM      5  C   UNL     1       2.318   7.503  18.925  0.00  0.00    +0.000 C 
ATOM      6  C   UNL     1       1.892   8.698  18.497  0.00  0.00    +0.000 C 
ATOM      7  C   UNL     1       3.358   6.731  18.190  0.00  0.00    +0.000 C 
ATOM      8  O   UNL     1       3.777   7.036  17.084  0.00  0.00    +0.000 OA
ENDROOT
BRANCH   6   9
ATOM      9  C   UNL     1       1.005   9.587  19.251  0.00  0.00    +0.000 A 
ATOM     10  C   UNL     1       1.357   9.939  20.555  0.00  0.00    +0.000 A 
ATOM     11  C   UNL     1       0.534  10.785  21.307  0.00  0.00    +0.000 A 
ATOM     12  C   UNL     1      -0.658  11.307  20.780  0.00  0.00    +0.000 A 
ATOM     13  C   UNL     1      -0.998  10.929  19.464  0.00  0.00    +0.000 A 
ATOM     14  C   UNL     1      -0.178  10.080  18.708  0.00  0.00    +0.000 A 
BRANCH  12  15
ATOM     15  C   UNL     1      -1.557  12.271  21.579  0.00  0.00    +0.000 C 
ATOM     16  C   UNL     1      -2.882  12.613  20.859  0.00  0.00    +0.000 C 
ATOM     17  C   UNL     1      -1.923  11.635  22.936  0.00  0.00    +0.000 C 
ATOM     18  C   UNL     1      -0.823  13.606  21.835  0.00  0.00    +0.000 C 
ENDBRANCH  12  15
ENDBRANCH   6   9
BRANCH   1  19
ATOM     19  C   UNL     1       4.859   4.781  18.486  0.00  0.00    +0.000 C 
BRANCH  19  20
ATOM     20  C   UNL     1       4.465   3.306  18.619  0.00  0.00    +0.000 C 
ATOM     21  O   UNL     1       3.686   2.756  17.852  0.00  0.00    +0.000 OA
BRANCH  20  22
ATOM     22  O   UNL     1       5.100   2.611  19.591  0.00  0.00    +0.000 OA
ATOM     23  H   UNL     1       4.615   2.500  20.440  0.00  0.00    +0.000 HD
ENDBRANCH  20  22
ENDBRANCH  19  20
BRANCH  19  24
ATOM     24  C   UNL     1       6.207   5.094  19.171  0.00  0.00    +0.000 C 
BRANCH  24  26
ATOM     25  C   UNL     1       7.037   5.167  16.749  0.00  0.00    +0.000 C 
ATOM     26  C   UNL     1       7.383   5.401  18.220  0.00  0.00    +0.000 C 
ATOM     27  C   UNL     1       7.840   6.854  18.401  0.00  0.00    +0.000 C 
ENDBRANCH  24  26
ENDBRANCH  19  24
ENDBRANCH   1  19
TORSDOF 7
ENDMDL
