MODEL 1
REMARK VINA RESULT:      -8.2      0.000      0.000
REMARK  Name = 
REMARK  8 active torsions:
REMARK  status: ('A' for Active; 'I' for Inactive)
REMARK    1  A    between atoms: C_1  and  C_2
REMARK    2  A    between atoms: C_2  and  C_3
REMARK    3  A    between atoms: C_2  and  C_4
REMARK    4  A    between atoms: C_2  and  C_5
REMARK    5  A    between atoms: N_9  and  N_10
REMARK    6  A    between atoms: C_11  and  C_12
REMARK    7  A    between atoms: C_16  and  C_17
REMARK    8  A    between atoms: C_17  and  N_18
REMARK                            x       y       z     vdW  Elec       q    Type
REMARK                         _______ _______ _______ _____ _____    ______ ____
ROOT
ATOM      1  C   UNL     1       4.593   4.705  17.532  0.00  0.00    +0.000 A 
ATOM      2  C   UNL     1       3.882   5.564  18.354  0.00  0.00    +0.000 A 
ATOM      3  C   UNL     1       2.906   4.917  19.181  0.00  0.00    +0.000 A 
ATOM      4  C   UNL     1       1.973   5.392  20.122  0.00  0.00    +0.000 A 
ATOM      5  N   UNL     1       1.813   6.738  20.511  0.00  0.00    +0.000 N 
ATOM      6  N   UNL     1       1.205   4.489  20.786  0.00  0.00    +0.000 NA
ATOM      7  C   UNL     1       1.360   3.185  20.498  0.00  0.00    +0.000 A 
ATOM      8  N   UNL     1       2.195   2.631  19.617  0.00  0.00    +0.000 NA
ATOM      9  C   UNL     1       2.945   3.549  18.984  0.00  0.00    +0.000 A 
ATOM     10  S   UNL     1       4.097   3.081  17.818  0.00  0.00    +0.000 S 
ATOM     11  H   UNL     1       0.910   6.803  20.986  0.00  0.00    +0.000 HD
ENDROOT
BRANCH   1  13
ATOM     12  C   UNL     1       5.247   6.308  15.689  0.00  0.00    +0.000 C 
ATOM     13  C   UNL     1       5.664   5.056  16.495  0.00  0.00    +0.000 C 
ATOM     14  C   UNL     1       5.848   3.901  15.493  0.00  0.00    +0.000 C 
ATOM     15  C   UNL     1       7.007   5.368  17.182  0.00  0.00    +0.000 C 
ENDBRANCH   1  13
BRANCH   5  16
ATOM     16  N   UNL     1       2.124   7.739  19.657  0.00  0.00    +0.000 NA
ATOM     17  C   UNL     1       1.584   8.910  19.871  0.00  0.00    +0.000 C 
BRANCH  17  18
ATOM     18  C   UNL     1       0.723   9.414  20.979  0.00  0.00    +0.000 A 
ATOM     19  C   UNL     1       0.787   8.938  22.280  0.00  0.00    +0.000 A 
ATOM     20  C   UNL     1       0.005   9.538  23.256  0.00  0.00    +0.000 A 
ATOM     21  C   UNL     1      -0.823  10.595  22.907  0.00  0.00    +0.000 A 
ATOM     22  C   UNL     1      -0.857  11.015  21.579  0.00  0.00    +0.000 A 
ATOM     23  N   UNL     1      -0.088  10.444  20.610  0.00  0.00    +0.000 NA
BRANCH  22  24
ATOM     24  C   UNL     1      -1.794  12.146  21.186  0.00  0.00    +0.000 C 
BRANCH  24  25
ATOM     25  N   UNL     1      -2.330  12.904  22.338  0.00  0.00    +0.000 NA
ATOM     26  C   UNL     1      -3.765  12.619  22.579  0.00  0.00    +0.000 C 
ATOM     27  C   UNL     1      -4.707  13.184  21.500  0.00  0.00    +0.000 C 
ATOM     28  O   UNL     1      -4.505  14.589  21.290  0.00  0.00    +0.000 OA
ATOM     29  C   UNL     1      -3.135  14.901  21.020  0.00  0.00    +0.000 C 
ATOM     30  C   UNL     1      -2.208  14.363  22.123  0.00  0.00    +0.000 C 
ENDBRANCH  24  25
ENDBRANCH  22  24
ENDBRANCH  17  18
ENDBRANCH   5  16
TORSDOF 5
ENDMDL
MODEL 2
REMARK VINA RESULT:      -8.1      2.847      4.404
REMARK  Name = 
REMARK  8 active torsions:
REMARK  status: ('A' for Active; 'I' for Inactive)
REMARK    1  A    between atoms: C_1  and  C_2
REMARK    2  A    between atoms: C_2  and  C_3
REMARK    3  A    between atoms: C_2  and  C_4
REMARK    4  A    between atoms: C_2  and  C_5
REMARK    5  A    between atoms: N_9  and  N_10
REMARK    6  A    between atoms: C_11  and  C_12
REMARK    7  A    between atoms: C_16  and  C_17
REMARK    8  A    between atoms: C_17  and  N_18
REMARK                            x       y       z     vdW  Elec       q    Type
REMARK                         _______ _______ _______ _____ _____    ______ ____
ROOT
ATOM      1  C   UNL     1       2.562   3.844  18.856  0.00  0.00    +0.000 A 
ATOM      2  C   UNL     1       2.114   5.102  19.223  0.00  0.00    +0.000 A 
ATOM      3  C   UNL     1       2.766   6.182  18.540  0.00  0.00    +0.000 A 
ATOM      4  C   UNL     1       2.644   7.582  18.616  0.00  0.00    +0.000 A 
ATOM      5  N   UNL     1       1.739   8.285  19.438  0.00  0.00    +0.000 N 
ATOM      6  N   UNL     1       3.394   8.344  17.776  0.00  0.00    +0.000 NA
ATOM      7  C   UNL     1       4.231   7.723  16.927  0.00  0.00    +0.000 A 
ATOM      8  N   UNL     1       4.437   6.412  16.786  0.00  0.00    +0.000 NA
ATOM      9  C   UNL     1       3.675   5.687  17.624  0.00  0.00    +0.000 A 
ATOM     10  S   UNL     1       3.753   3.984  17.622  0.00  0.00    +0.000 S 
ATOM     11  H   UNL     1       2.064   9.253  19.475  0.00  0.00    +0.000 HD
ENDROOT
BRANCH   1  13
ATOM     12  C   UNL     1       0.718   2.112  18.896  0.00  0.00    +0.000 C 
ATOM     13  C   UNL     1       2.127   2.485  19.415  0.00  0.00    +0.000 C 
ATOM     14  C   UNL     1       2.057   2.529  20.953  0.00  0.00    +0.000 C 
ATOM     15  C   UNL     1       3.098   1.376  18.969  0.00  0.00    +0.000 C 
ENDBRANCH   1  13
BRANCH   5  16
ATOM     16  N   UNL     1       1.308   7.743  20.600  0.00  0.00    +0.000 NA
ATOM     17  C   UNL     1       0.542   8.476  21.364  0.00  0.00    +0.000 C 
BRANCH  17  18
ATOM     18  C   UNL     1      -0.062   9.824  21.157  0.00  0.00    +0.000 A 
ATOM     19  C   UNL     1       0.028  10.858  22.077  0.00  0.00    +0.000 A 
ATOM     20  C   UNL     1      -0.492  12.100  21.747  0.00  0.00    +0.000 A 
ATOM     21  C   UNL     1      -1.091  12.278  20.509  0.00  0.00    +0.000 A 
ATOM     22  C   UNL     1      -1.168  11.195  19.635  0.00  0.00    +0.000 A 
ATOM     23  N   UNL     1      -0.654   9.971  19.938  0.00  0.00    +0.000 NA
BRANCH  22  24
ATOM     24  C   UNL     1      -1.861  11.376  18.293  0.00  0.00    +0.000 C 
BRANCH  24  25
ATOM     25  N   UNL     1      -2.689  10.218  17.890  0.00  0.00    +0.000 NA
ATOM     26  C   UNL     1      -2.353   9.735  16.529  0.00  0.00    +0.000 C 
ATOM     27  C   UNL     1      -2.772  10.696  15.401  0.00  0.00    +0.000 C 
ATOM     28  O   UNL     1      -4.161  11.046  15.479  0.00  0.00    +0.000 OA
ATOM     29  C   UNL     1      -4.519  11.549  16.770  0.00  0.00    +0.000 C 
ATOM     30  C   UNL     1      -4.128  10.564  17.885  0.00  0.00    +0.000 C 
ENDBRANCH  24  25
ENDBRANCH  22  24
ENDBRANCH  17  18
ENDBRANCH   5  16
TORSDOF 5
ENDMDL
MODEL 3
REMARK VINA RESULT:      -8.1      2.616      3.231
REMARK  Name = 
REMARK  8 active torsions:
REMARK  status: ('A' for Active; 'I' for Inactive)
REMARK    1  A    between atoms: C_1  and  C_2
REMARK    2  A    between atoms: C_2  and  C_3
REMARK    3  A    between atoms: C_2  and  C_4
REMARK    4  A    between atoms: C_2  and  C_5
REMARK    5  A    between atoms: N_9  and  N_10
REMARK    6  A    between atoms: C_11  and  C_12
REMARK    7  A    between atoms: C_16  and  C_17
REMARK    8  A    between atoms: C_17  and  N_18
REMARK                            x       y       z     vdW  Elec       q    Type
REMARK                         _______ _______ _______ _____ _____    ______ ____
ROOT
ATOM      1  C   UNL     1       4.995   4.836  17.628  0.00  0.00    +0.000 A 
ATOM      2  C   UNL     1       4.247   5.950  17.971  0.00  0.00    +0.000 A 
ATOM      3  C   UNL     1       3.301   5.724  19.026  0.00  0.00    +0.000 A 
ATOM      4  C   UNL     1       2.349   6.544  19.657  0.00  0.00    +0.000 A 
ATOM      5  N   UNL     1       2.128   7.909  19.380  0.00  0.00    +0.000 N 
ATOM      6  N   UNL     1       1.623   6.024  20.682  0.00  0.00    +0.000 NA
ATOM      7  C   UNL     1       1.836   4.743  21.030  0.00  0.00    +0.000 A 
ATOM      8  N   UNL     1       2.695   3.876  20.489  0.00  0.00    +0.000 NA
ATOM      9  C   UNL     1       3.403   4.424  19.486  0.00  0.00    +0.000 A 
ATOM     10  S   UNL     1       4.574   3.513  18.647  0.00  0.00    +0.000 S 
ATOM     11  H   UNL     1       1.223   8.151  19.789  0.00  0.00    +0.000 HD
ENDROOT
BRANCH   1  13
ATOM     12  C   UNL     1       6.040   5.961  15.618  0.00  0.00    +0.000 C 
ATOM     13  C   UNL     1       6.048   4.707  16.523  0.00  0.00    +0.000 C 
ATOM     14  C   UNL     1       5.749   3.489  15.629  0.00  0.00    +0.000 C 
ATOM     15  C   UNL     1       7.459   4.575  17.127  0.00  0.00    +0.000 C 
ENDBRANCH   1  13
BRANCH   5  16
ATOM     16  N   UNL     1       2.393   8.409  18.151  0.00  0.00    +0.000 NA
ATOM     17  C   UNL     1       1.653   9.399  17.726  0.00  0.00    +0.000 C 
BRANCH  17  18
ATOM     18  C   UNL     1       0.582  10.191  18.396  0.00  0.00    +0.000 A 
ATOM     19  C   UNL     1      -0.769  10.052  18.115  0.00  0.00    +0.000 A 
ATOM     20  C   UNL     1      -1.690  10.773  18.860  0.00  0.00    +0.000 A 
ATOM     21  C   UNL     1      -1.239  11.618  19.863  0.00  0.00    +0.000 A 
ATOM     22  C   UNL     1       0.132  11.730  20.084  0.00  0.00    +0.000 A 
ATOM     23  N   UNL     1       1.050  11.021  19.370  0.00  0.00    +0.000 NA
BRANCH  22  24
ATOM     24  C   UNL     1       0.632  12.687  21.156  0.00  0.00    +0.000 C 
BRANCH  24  25
ATOM     25  N   UNL     1       0.341  14.108  20.867  0.00  0.00    +0.000 NA
ATOM     26  C   UNL     1       0.907  14.543  19.568  0.00  0.00    +0.000 C 
ATOM     27  C   UNL     1       2.444  14.635  19.550  0.00  0.00    +0.000 C 
ATOM     28  O   UNL     1       2.947  15.456  20.614  0.00  0.00    +0.000 OA
ATOM     29  C   UNL     1       2.450  15.046  21.892  0.00  0.00    +0.000 C 
ATOM     30  C   UNL     1       0.913  14.994  21.907  0.00  0.00    +0.000 C 
ENDBRANCH  24  25
ENDBRANCH  22  24
ENDBRANCH  17  18
ENDBRANCH   5  16
TORSDOF 5
ENDMDL
MODEL 4
REMARK VINA RESULT:      -8.0      1.538      1.948
REMARK  Name = 
REMARK  8 active torsions:
REMARK  status: ('A' for Active; 'I' for Inactive)
REMARK    1  A    between atoms: C_1  and  C_2
REMARK    2  A    between atoms: C_2  and  C_3
REMARK    3  A    between atoms: C_2  and  C_4
REMARK    4  A    between atoms: C_2  and  C_5
REMARK    5  A    between atoms: N_9  and  N_10
REMARK    6  A    between atoms: C_11  and  C_12
REMARK    7  A    between atoms: C_16  and  C_17
REMARK    8  A    between atoms: C_17  and  N_18
REMARK                            x       y       z     vdW  Elec       q    Type
REMARK                         _______ _______ _______ _____ _____    ______ ____
ROOT
ATOM      1  C   UNL     1       4.578   4.513  17.378  0.00  0.00    +0.000 A 
ATOM      2  C   UNL     1       3.907   5.423  18.178  0.00  0.00    +0.000 A 
ATOM      3  C   UNL     1       2.958   4.832  19.076  0.00  0.00    +0.000 A 
ATOM      4  C   UNL     1       2.066   5.368  20.023  0.00  0.00    +0.000 A 
ATOM      5  N   UNL     1       1.932   6.735  20.344  0.00  0.00    +0.000 N 
ATOM      6  N   UNL     1       1.317   4.510  20.765  0.00  0.00    +0.000 NA
ATOM      7  C   UNL     1       1.448   3.191  20.543  0.00  0.00    +0.000 A 
ATOM      8  N   UNL     1       2.245   2.581  19.662  0.00  0.00    +0.000 NA
ATOM      9  C   UNL     1       2.978   3.455  18.952  0.00  0.00    +0.000 A 
ATOM     10  S   UNL     1       4.080   2.912  17.771  0.00  0.00    +0.000 S 
ATOM     11  H   UNL     1       1.049   6.834  20.849  0.00  0.00    +0.000 HD
ENDROOT
BRANCH   1  13
ATOM     12  C   UNL     1       7.033   4.875  16.888  0.00  0.00    +0.000 C 
ATOM     13  C   UNL     1       5.611   4.796  16.283  0.00  0.00    +0.000 C 
ATOM     14  C   UNL     1       5.323   6.148  15.603  0.00  0.00    +0.000 C 
ATOM     15  C   UNL     1       5.613   3.673  15.230  0.00  0.00    +0.000 C 
ENDBRANCH   1  13
BRANCH   5  16
ATOM     16  N   UNL     1       2.219   7.685  19.426  0.00  0.00    +0.000 NA
ATOM     17  C   UNL     1       1.650   8.853  19.562  0.00  0.00    +0.000 C 
BRANCH  17  18
ATOM     18  C   UNL     1       0.776   9.407  20.635  0.00  0.00    +0.000 A 
ATOM     19  C   UNL     1       0.137   8.628  21.588  0.00  0.00    +0.000 A 
ATOM     20  C   UNL     1      -0.581   9.251  22.597  0.00  0.00    +0.000 A 
ATOM     21  C   UNL     1      -0.645  10.636  22.629  0.00  0.00    +0.000 A 
ATOM     22  C   UNL     1       0.002  11.364  21.633  0.00  0.00    +0.000 A 
ATOM     23  N   UNL     1       0.720  10.769  20.640  0.00  0.00    +0.000 NA
BRANCH  22  24
ATOM     24  C   UNL     1      -0.102  12.881  21.641  0.00  0.00    +0.000 C 
BRANCH  24  25
ATOM     25  N   UNL     1      -1.310  13.399  20.962  0.00  0.00    +0.000 NA
ATOM     26  C   UNL     1      -1.365  13.002  19.535  0.00  0.00    +0.000 C 
ATOM     27  C   UNL     1      -0.313  13.695  18.649  0.00  0.00    +0.000 C 
ATOM     28  O   UNL     1      -0.361  15.123  18.772  0.00  0.00    +0.000 OA
ATOM     29  C   UNL     1      -0.276  15.549  20.136  0.00  0.00    +0.000 C 
ATOM     30  C   UNL     1      -1.354  14.878  21.002  0.00  0.00    +0.000 C 
ENDBRANCH  24  25
ENDBRANCH  22  24
ENDBRANCH  17  18
ENDBRANCH   5  16
TORSDOF 5
ENDMDL
MODEL 5
REMARK VINA RESULT:      -8.0      0.893      1.526
REMARK  Name = 
REMARK  8 active torsions:
REMARK  status: ('A' for Active; 'I' for Inactive)
REMARK    1  A    between atoms: C_1  and  C_2
REMARK    2  A    between atoms: C_2  and  C_3
REMARK    3  A    between atoms: C_2  and  C_4
REMARK    4  A    between atoms: C_2  and  C_5
REMARK    5  A    between atoms: N_9  and  N_10
REMARK    6  A    between atoms: C_11  and  C_12
REMARK    7  A    between atoms: C_16  and  C_17
REMARK    8  A    between atoms: C_17  and  N_18
REMARK                            x       y       z     vdW  Elec       q    Type
REMARK                         _______ _______ _______ _____ _____    ______ ____
ROOT
ATOM      1  C   UNL     1       4.594   4.540  17.465  0.00  0.00    +0.000 A 
ATOM      2  C   UNL     1       3.905   5.437  18.265  0.00  0.00    +0.000 A 
ATOM      3  C   UNL     1       2.941   4.830  19.136  0.00  0.00    +0.000 A 
ATOM      4  C   UNL     1       2.031   5.349  20.075  0.00  0.00    +0.000 A 
ATOM      5  N   UNL     1       1.886   6.711  20.413  0.00  0.00    +0.000 N 
ATOM      6  N   UNL     1       1.271   4.478  20.790  0.00  0.00    +0.000 NA
ATOM      7  C   UNL     1       1.411   3.163  20.552  0.00  0.00    +0.000 A 
ATOM      8  N   UNL     1       2.226   2.568  19.677  0.00  0.00    +0.000 NA
ATOM      9  C   UNL     1       2.969   3.455  18.993  0.00  0.00    +0.000 A 
ATOM     10  S   UNL     1       4.095   2.933  17.825  0.00  0.00    +0.000 S 
ATOM     11  H   UNL     1       0.993   6.800  20.903  0.00  0.00    +0.000 HD
ENDROOT
BRANCH   1  13
ATOM     12  C   UNL     1       5.594   3.783  15.268  0.00  0.00    +0.000 C 
ATOM     13  C   UNL     1       5.646   4.843  16.393  0.00  0.00    +0.000 C 
ATOM     14  C   UNL     1       7.062   4.804  16.999  0.00  0.00    +0.000 C 
ATOM     15  C   UNL     1       5.392   6.220  15.752  0.00  0.00    +0.000 C 
ENDBRANCH   1  13
BRANCH   5  16
ATOM     16  N   UNL     1       2.187   7.675  19.514  0.00  0.00    +0.000 NA
ATOM     17  C   UNL     1       1.627   8.846  19.668  0.00  0.00    +0.000 C 
BRANCH  17  18
ATOM     18  C   UNL     1       0.753   9.388  20.748  0.00  0.00    +0.000 A 
ATOM     19  C   UNL     1       0.239   8.620  21.781  0.00  0.00    +0.000 A 
ATOM     20  C   UNL     1      -0.490   9.241  22.784  0.00  0.00    +0.000 A 
ATOM     21  C   UNL     1      -0.690  10.612  22.728  0.00  0.00    +0.000 A 
ATOM     22  C   UNL     1      -0.166  11.327  21.653  0.00  0.00    +0.000 A 
ATOM     23  N   UNL     1       0.562  10.735  20.665  0.00  0.00    +0.000 NA
BRANCH  22  24
ATOM     24  C   UNL     1      -0.419  12.824  21.566  0.00  0.00    +0.000 C 
BRANCH  24  25
ATOM     25  N   UNL     1      -0.990  13.257  20.272  0.00  0.00    +0.000 NA
ATOM     26  C   UNL     1      -1.088  14.733  20.168  0.00  0.00    +0.000 C 
ATOM     27  C   UNL     1      -2.153  15.358  21.088  0.00  0.00    +0.000 C 
ATOM     28  O   UNL     1      -3.443  14.758  20.905  0.00  0.00    +0.000 OA
ATOM     29  C   UNL     1      -3.397  13.332  21.032  0.00  0.00    +0.000 C 
ATOM     30  C   UNL     1      -2.356  12.717  20.082  0.00  0.00    +0.000 C 
ENDBRANCH  24  25
ENDBRANCH  22  24
ENDBRANCH  17  18
ENDBRANCH   5  16
TORSDOF 5
ENDMDL
MODEL 6
REMARK VINA RESULT:      -8.0      0.824      1.199
REMARK  Name = 
REMARK  8 active torsions:
REMARK  status: ('A' for Active; 'I' for Inactive)
REMARK    1  A    between atoms: C_1  and  C_2
REMARK    2  A    between atoms: C_2  and  C_3
REMARK    3  A    between atoms: C_2  and  C_4
REMARK    4  A    between atoms: C_2  and  C_5
REMARK    5  A    between atoms: N_9  and  N_10
REMARK    6  A    between atoms: C_11  and  C_12
REMARK    7  A    between atoms: C_16  and  C_17
REMARK    8  A    between atoms: C_17  and  N_18
REMARK                            x       y       z     vdW  Elec       q    Type
REMARK                         _______ _______ _______ _____ _____    ______ ____
ROOT
ATOM      1  C   UNL     1       5.341   5.140  18.612  0.00  0.00    +0.000 A 
ATOM      2  C   UNL     1       4.323   5.911  19.149  0.00  0.00    +0.000 A 
ATOM      3  C   UNL     1       3.239   5.154  19.704  0.00  0.00    +0.000 A 
ATOM      4  C   UNL     1       2.025   5.517  20.315  0.00  0.00    +0.000 A 
ATOM      5  N   UNL     1       1.593   6.836  20.565  0.00  0.00    +0.000 N 
ATOM      6  N   UNL     1       1.217   4.531  20.787  0.00  0.00    +0.000 NA
ATOM      7  C   UNL     1       1.608   3.255  20.630  0.00  0.00    +0.000 A 
ATOM      8  N   UNL     1       2.724   2.802  20.053  0.00  0.00    +0.000 NA
ATOM      9  C   UNL     1       3.504   3.801  19.605  0.00  0.00    +0.000 A 
ATOM     10  S   UNL     1       4.991   3.470  18.840  0.00  0.00    +0.000 S 
ATOM     11  H   UNL     1       0.591   6.787  20.762  0.00  0.00    +0.000 HD
ENDROOT
BRANCH   1  13
ATOM     12  C   UNL     1       7.067   4.571  16.853  0.00  0.00    +0.000 C 
ATOM     13  C   UNL     1       6.612   5.614  17.901  0.00  0.00    +0.000 C 
ATOM     14  C   UNL     1       7.764   5.788  18.908  0.00  0.00    +0.000 C 
ATOM     15  C   UNL     1       6.362   6.941  17.161  0.00  0.00    +0.000 C 
ENDBRANCH   1  13
BRANCH   5  16
ATOM     16  N   UNL     1       2.010   7.853  19.777  0.00  0.00    +0.000 NA
ATOM     17  C   UNL     1       1.508   9.039  20.000  0.00  0.00    +0.000 C 
BRANCH  17  18
ATOM     18  C   UNL     1       0.593   9.541  21.066  0.00  0.00    +0.000 A 
ATOM     19  C   UNL     1       0.600   9.071  22.371  0.00  0.00    +0.000 A 
ATOM     20  C   UNL     1      -0.231   9.669  23.307  0.00  0.00    +0.000 A 
ATOM     21  C   UNL     1      -1.050  10.717  22.915  0.00  0.00    +0.000 A 
ATOM     22  C   UNL     1      -1.027  11.130  21.585  0.00  0.00    +0.000 A 
ATOM     23  N   UNL     1      -0.210  10.562  20.655  0.00  0.00    +0.000 NA
BRANCH  22  24
ATOM     24  C   UNL     1      -1.955  12.252  21.143  0.00  0.00    +0.000 C 
BRANCH  24  25
ATOM     25  N   UNL     1      -2.725  12.858  22.251  0.00  0.00    +0.000 NA
ATOM     26  C   UNL     1      -4.189  12.767  22.033  0.00  0.00    +0.000 C 
ATOM     27  C   UNL     1      -4.712  13.665  20.897  0.00  0.00    +0.000 C 
ATOM     28  O   UNL     1      -4.317  15.034  21.066  0.00  0.00    +0.000 OA
ATOM     29  C   UNL     1      -2.903  15.168  21.246  0.00  0.00    +0.000 C 
ATOM     30  C   UNL     1      -2.399  14.294  22.407  0.00  0.00    +0.000 C 
ENDBRANCH  24  25
ENDBRANCH  22  24
ENDBRANCH  17  18
ENDBRANCH   5  16
TORSDOF 5
ENDMDL
MODEL 7
REMARK VINA RESULT:      -8.0      2.667      3.126
REMARK  Name = 
REMARK  8 active torsions:
REMARK  status: ('A' for Active; 'I' for Inactive)
REMARK    1  A    between atoms: C_1  and  C_2
REMARK    2  A    between atoms: C_2  and  C_3
REMARK    3  A    between atoms: C_2  and  C_4
REMARK    4  A    between atoms: C_2  and  C_5
REMARK    5  A    between atoms: N_9  and  N_10
REMARK    6  A    between atoms: C_11  and  C_12
REMARK    7  A    between atoms: C_16  and  C_17
REMARK    8  A    between atoms: C_17  and  N_18
REMARK                            x       y       z     vdW  Elec       q    Type
REMARK                         _______ _______ _______ _____ _____    ______ ____
ROOT
ATOM      1  C   UNL     1       5.384   5.327  17.986  0.00  0.00    +0.000 A 
ATOM      2  C   UNL     1       4.456   6.270  18.397  0.00  0.00    +0.000 A 
ATOM      3  C   UNL     1       3.432   5.754  19.259  0.00  0.00    +0.000 A 
ATOM      4  C   UNL     1       2.309   6.335  19.876  0.00  0.00    +0.000 A 
ATOM      5  N   UNL     1       1.939   7.693  19.794  0.00  0.00    +0.000 N 
ATOM      6  N   UNL     1       1.546   5.561  20.692  0.00  0.00    +0.000 NA
ATOM      7  C   UNL     1       1.888   4.272  20.855  0.00  0.00    +0.000 A 
ATOM      8  N   UNL     1       2.915   3.619  20.306  0.00  0.00    +0.000 NA
ATOM      9  C   UNL     1       3.655   4.413  19.512  0.00  0.00    +0.000 A 
ATOM     10  S   UNL     1       5.030   3.805  18.709  0.00  0.00    +0.000 S 
ATOM     11  H   UNL     1       0.968   7.754  20.108  0.00  0.00    +0.000 HD
ENDROOT
BRANCH   1  13
ATOM     12  C   UNL     1       7.194   6.920  17.220  0.00  0.00    +0.000 C 
ATOM     13  C   UNL     1       6.568   5.518  17.033  0.00  0.00    +0.000 C 
ATOM     14  C   UNL     1       6.106   5.409  15.568  0.00  0.00    +0.000 C 
ATOM     15  C   UNL     1       7.666   4.474  17.312  0.00  0.00    +0.000 C 
ENDBRANCH   1  13
BRANCH   5  16
ATOM     16  N   UNL     1       2.277   8.431  18.713  0.00  0.00    +0.000 NA
ATOM     17  C   UNL     1       1.651   9.565  18.531  0.00  0.00    +0.000 C 
BRANCH  17  18
ATOM     18  C   UNL     1       0.657  10.290  19.372  0.00  0.00    +0.000 A 
ATOM     19  C   UNL     1       0.861  10.603  20.708  0.00  0.00    +0.000 A 
ATOM     20  C   UNL     1      -0.090  11.360  21.376  0.00  0.00    +0.000 A 
ATOM     21  C   UNL     1      -1.221  11.783  20.694  0.00  0.00    +0.000 A 
ATOM     22  C   UNL     1      -1.378  11.420  19.358  0.00  0.00    +0.000 A 
ATOM     23  N   UNL     1      -0.450  10.686  18.684  0.00  0.00    +0.000 NA
BRANCH  22  24
ATOM     24  C   UNL     1      -2.638  11.848  18.619  0.00  0.00    +0.000 C 
BRANCH  24  25
ATOM     25  N   UNL     1      -3.613  10.753  18.424  0.00  0.00    +0.000 NA
ATOM     26  C   UNL     1      -3.104   9.704  17.509  0.00  0.00    +0.000 C 
ATOM     27  C   UNL     1      -2.994  10.152  16.039  0.00  0.00    +0.000 C 
ATOM     28  O   UNL     1      -4.229  10.689  15.545  0.00  0.00    +0.000 OA
ATOM     29  C   UNL     1      -4.738  11.730  16.385  0.00  0.00    +0.000 C 
ATOM     30  C   UNL     1      -4.877  11.259  17.842  0.00  0.00    +0.000 C 
ENDBRANCH  24  25
ENDBRANCH  22  24
ENDBRANCH  17  18
ENDBRANCH   5  16
TORSDOF 5
ENDMDL
MODEL 8
REMARK VINA RESULT:      -8.0      1.419      1.730
REMARK  Name = 
REMARK  8 active torsions:
REMARK  status: ('A' for Active; 'I' for Inactive)
REMARK    1  A    between atoms: C_1  and  C_2
REMARK    2  A    between atoms: C_2  and  C_3
REMARK    3  A    between atoms: C_2  and  C_4
REMARK    4  A    between atoms: C_2  and  C_5
REMARK    5  A    between atoms: N_9  and  N_10
REMARK    6  A    between atoms: C_11  and  C_12
REMARK    7  A    between atoms: C_16  and  C_17
REMARK    8  A    between atoms: C_17  and  N_18
REMARK                            x       y       z     vdW  Elec       q    Type
REMARK                         _______ _______ _______ _____ _____    ______ ____
ROOT
ATOM      1  C   UNL     1       4.668   4.899  17.414  0.00  0.00    +0.000 A 
ATOM      2  C   UNL     1       3.934   5.764  18.209  0.00  0.00    +0.000 A 
ATOM      3  C   UNL     1       3.120   5.113  19.194  0.00  0.00    +0.000 A 
ATOM      4  C   UNL     1       2.224   5.588  20.169  0.00  0.00    +0.000 A 
ATOM      5  N   UNL     1       1.937   6.944  20.430  0.00  0.00    +0.000 N 
ATOM      6  N   UNL     1       1.632   4.688  20.999  0.00  0.00    +0.000 NA
ATOM      7  C   UNL     1       1.917   3.385  20.834  0.00  0.00    +0.000 A 
ATOM      8  N   UNL     1       2.732   2.828  19.936  0.00  0.00    +0.000 NA
ATOM      9  C   UNL     1       3.307   3.744  19.137  0.00  0.00    +0.000 A 
ATOM     10  S   UNL     1       4.400   3.274  17.917  0.00  0.00    +0.000 S 
ATOM     11  H   UNL     1       1.078   6.963  20.984  0.00  0.00    +0.000 HD
ENDROOT
BRANCH   1  13
ATOM     12  C   UNL     1       5.498   4.164  15.140  0.00  0.00    +0.000 C 
ATOM     13  C   UNL     1       5.593   5.244  16.243  0.00  0.00    +0.000 C 
ATOM     14  C   UNL     1       7.060   5.300  16.709  0.00  0.00    +0.000 C 
ATOM     15  C   UNL     1       5.196   6.592  15.613  0.00  0.00    +0.000 C 
ENDBRANCH   1  13
BRANCH   5  16
ATOM     16  N   UNL     1       2.049   7.868  19.449  0.00  0.00    +0.000 NA
ATOM     17  C   UNL     1       1.413   8.999  19.605  0.00  0.00    +0.000 C 
BRANCH  17  18
ATOM     18  C   UNL     1       0.627   9.541  20.750  0.00  0.00    +0.000 A 
ATOM     19  C   UNL     1       0.262   8.791  21.858  0.00  0.00    +0.000 A 
ATOM     20  C   UNL     1      -0.392   9.415  22.909  0.00  0.00    +0.000 A 
ATOM     21  C   UNL     1      -0.668  10.772  22.827  0.00  0.00    +0.000 A 
ATOM     22  C   UNL     1      -0.293  11.467  21.680  0.00  0.00    +0.000 A 
ATOM     23  N   UNL     1       0.359  10.873  20.642  0.00  0.00    +0.000 NA
BRANCH  22  24
ATOM     24  C   UNL     1      -0.632  12.946  21.569  0.00  0.00    +0.000 C 
BRANCH  24  25
ATOM     25  N   UNL     1      -0.107  13.762  22.686  0.00  0.00    +0.000 NA
ATOM     26  C   UNL     1      -1.189  14.292  23.550  0.00  0.00    +0.000 C 
ATOM     27  C   UNL     1      -2.050  15.380  22.882  0.00  0.00    +0.000 C 
ATOM     28  O   UNL     1      -1.255  16.454  22.362  0.00  0.00    +0.000 OA
ATOM     29  C   UNL     1      -0.217  15.986  21.494  0.00  0.00    +0.000 C 
ATOM     30  C   UNL     1       0.658  14.927  22.185  0.00  0.00    +0.000 C 
ENDBRANCH  24  25
ENDBRANCH  22  24
ENDBRANCH  17  18
ENDBRANCH   5  16
TORSDOF 5
ENDMDL
MODEL 9
REMARK VINA RESULT:      -8.0      4.522     10.191
REMARK  Name = 
REMARK  8 active torsions:
REMARK  status: ('A' for Active; 'I' for Inactive)
REMARK    1  A    between atoms: C_1  and  C_2
REMARK    2  A    between atoms: C_2  and  C_3
REMARK    3  A    between atoms: C_2  and  C_4
REMARK    4  A    between atoms: C_2  and  C_5
REMARK    5  A    between atoms: N_9  and  N_10
REMARK    6  A    between atoms: C_11  and  C_12
REMARK    7  A    between atoms: C_16  and  C_17
REMARK    8  A    between atoms: C_17  and  N_18
REMARK                            x       y       z     vdW  Elec       q    Type
REMARK                         _______ _______ _______ _____ _____    ______ ____
ROOT
ATOM      1  C   UNL     1      -4.698  12.430  19.577  0.00  0.00    +0.000 A 
ATOM      2  C   UNL     1      -3.387  12.045  19.352  0.00  0.00    +0.000 A 
ATOM      3  C   UNL     1      -3.163  11.430  18.077  0.00  0.00    +0.000 A 
ATOM      4  C   UNL     1      -2.024  10.883  17.458  0.00  0.00    +0.000 A 
ATOM      5  N   UNL     1      -0.725  10.855  18.007  0.00  0.00    +0.000 N 
ATOM      6  N   UNL     1      -2.140  10.408  16.190  0.00  0.00    +0.000 NA
ATOM      7  C   UNL     1      -3.344  10.465  15.595  0.00  0.00    +0.000 A 
ATOM      8  N   UNL     1      -4.486  10.943  16.094  0.00  0.00    +0.000 NA
ATOM      9  C   UNL     1      -4.335  11.412  17.344  0.00  0.00    +0.000 A 
ATOM     10  S   UNL     1      -5.654  12.085  18.188  0.00  0.00    +0.000 S 
ATOM     11  H   UNL     1      -0.188  10.176  17.462  0.00  0.00    +0.000 HD
ENDROOT
BRANCH   1  13
ATOM     12  C   UNL     1      -4.302  12.961  22.019  0.00  0.00    +0.000 C 
ATOM     13  C   UNL     1      -5.295  13.064  20.838  0.00  0.00    +0.000 C 
ATOM     14  C   UNL     1      -6.585  12.332  21.253  0.00  0.00    +0.000 C 
ATOM     15  C   UNL     1      -5.595  14.557  20.608  0.00  0.00    +0.000 C 
ENDBRANCH   1  13
BRANCH   5  16
ATOM     16  N   UNL     1      -0.548  10.835  19.347  0.00  0.00    +0.000 NA
ATOM     17  C   UNL     1       0.283   9.954  19.838  0.00  0.00    +0.000 C 
BRANCH  17  18
ATOM     18  C   UNL     1       1.195   8.979  19.173  0.00  0.00    +0.000 A 
ATOM     19  C   UNL     1       1.786   9.196  17.938  0.00  0.00    +0.000 A 
ATOM     20  C   UNL     1       2.689   8.264  17.450  0.00  0.00    +0.000 A 
ATOM     21  C   UNL     1       2.978   7.138  18.206  0.00  0.00    +0.000 A 
ATOM     22  C   UNL     1       2.337   6.967  19.431  0.00  0.00    +0.000 A 
ATOM     23  N   UNL     1       1.455   7.876  19.931  0.00  0.00    +0.000 NA
BRANCH  22  24
ATOM     24  C   UNL     1       2.620   5.712  20.244  0.00  0.00    +0.000 C 
BRANCH  24  25
ATOM     25  N   UNL     1       1.530   4.713  20.195  0.00  0.00    +0.000 NA
ATOM     26  C   UNL     1       1.712   3.635  21.196  0.00  0.00    +0.000 C 
ATOM     27  C   UNL     1       2.883   2.684  20.889  0.00  0.00    +0.000 C 
ATOM     28  O   UNL     1       2.796   2.129  19.569  0.00  0.00    +0.000 OA
ATOM     29  C   UNL     1       2.654   3.143  18.568  0.00  0.00    +0.000 C 
ATOM     30  C   UNL     1       1.459   4.063  18.866  0.00  0.00    +0.000 C 
ENDBRANCH  24  25
ENDBRANCH  22  24
ENDBRANCH  17  18
ENDBRANCH   5  16
TORSDOF 5
ENDMDL
