MODEL 1
REMARK VINA RESULT:      -6.3      0.000      0.000
REMARK  Name = 
REMARK  16 active torsions:
REMARK  status: ('A' for Active; 'I' for Inactive)
REMARK    1  A    between atoms: C_1  and  C_2
REMARK    2  A    between atoms: C_2  and  C_3
REMARK    3  A    between atoms: C_4  and  C_5
REMARK    4  A    between atoms: C_5  and  C_6
REMARK    5  A    between atoms: C_7  and  C_8
REMARK    6  A    between atoms: C_8  and  C_9
REMARK    7  A    between atoms: C_10  and  C_11
REMARK    8  A    between atoms: C_11  and  C_12
REMARK    9  A    between atoms: C_13  and  C_14
REMARK   10  A    between atoms: C_14  and  C_15
REMARK   11  A    between atoms: C_15  and  C_16
REMARK   12  A    between atoms: C_17  and  C_18
REMARK   13  A    between atoms: C_18  and  S_19
REMARK   14  A    between atoms: S_19  and  C_20
REMARK   15  A    between atoms: C_20  and  C_21
REMARK   16  A    between atoms: C_21  and  C_23
REMARK                            x       y       z     vdW  Elec       q    Type
REMARK                         _______ _______ _______ _____ _____    ______ ____
ROOT
ATOM      1  C   UNL     1       2.330   5.638  20.278  0.00  0.00    +0.000 C 
ATOM      2  C   UNL     1       2.783   6.659  19.535  0.00  0.00    +0.000 C 
ENDROOT
BRANCH   1   3
ATOM      3  C   UNL     1       1.247   4.658  19.897  0.00  0.00    +0.000 C 
BRANCH   3   5
ATOM      4  C   UNL     1       2.157   2.507  20.903  0.00  0.00    +0.000 C 
ATOM      5  C   UNL     1       1.198   3.448  20.788  0.00  0.00    +0.000 C 
BRANCH   4   6
ATOM      6  C   UNL     1       3.454   2.520  20.165  0.00  0.00    +0.000 C 
BRANCH   6   8
ATOM      7  C   UNL     1       3.485   2.224  17.673  0.00  0.00    +0.000 C 
ATOM      8  C   UNL     1       3.404   1.695  18.904  0.00  0.00    +0.000 C 
BRANCH   7   9
ATOM      9  C   UNL     1       3.666   3.685  17.396  0.00  0.00    +0.000 C 
BRANCH   9  11
ATOM     10  C   UNL     1       5.837   4.748  16.739  0.00  0.00    +0.000 C 
ATOM     11  C   UNL     1       5.073   4.137  17.655  0.00  0.00    +0.000 C 
BRANCH  10  13
ATOM     12  C   UNL     1       6.011   4.010  14.352  0.00  0.00    +0.000 C 
ATOM     13  C   UNL     1       5.427   5.025  15.317  0.00  0.00    +0.000 C 
ENDBRANCH  10  13
ENDBRANCH   9  11
ENDBRANCH   7   9
ENDBRANCH   6   8
ENDBRANCH   4   6
ENDBRANCH   3   5
ENDBRANCH   1   3
BRANCH   2  14
ATOM     14  C   UNL     1       2.227   6.987  18.188  0.00  0.00    +0.000 C 
BRANCH  14  15
ATOM     15  C   UNL     1       2.678   8.354  17.693  0.00  0.00    +0.000 C 
BRANCH  15  16
ATOM     16  C   UNL     1       1.694   9.399  18.127  0.00  0.00    +0.000 C 
ATOM     17  C   UNL     1       1.992  10.701  18.173  0.00  0.00    +0.000 C 
BRANCH  17  18
ATOM     18  C   UNL     1       1.030  11.791  18.531  0.00  0.00    +0.000 C 
BRANCH  18  19
ATOM     19  S   UNL     1      -0.281  11.112  19.603  0.00  0.00    +0.000 S 
BRANCH  19  20
ATOM     20  C   UNL     1       0.531  11.248  21.232  0.00  0.00    +0.000 C 
BRANCH  20  21
ATOM     21  C   UNL     1       0.730   9.905  21.903  0.00  0.00    +0.000 C 
ATOM     22  O   UNL     1       1.727   9.202  21.700  0.00  0.00    +0.000 OA
BRANCH  21  23
ATOM     23  C   UNL     1      -0.359   9.498  22.877  0.00  0.00    +0.000 C 
ATOM     24  F   UNL     1      -1.012   8.361  22.509  0.00  0.00    +0.000 F 
ATOM     25  F   UNL     1       0.134   9.259  24.124  0.00  0.00    +0.000 F 
ATOM     26  F   UNL     1      -1.317  10.454  23.013  0.00  0.00    +0.000 F 
ENDBRANCH  21  23
ENDBRANCH  20  21
ENDBRANCH  19  20
ENDBRANCH  18  19
ENDBRANCH  17  18
ENDBRANCH  15  16
ENDBRANCH  14  15
ENDBRANCH   2  14
TORSDOF 15
ENDMDL
MODEL 2
REMARK VINA RESULT:      -6.2      5.444      8.776
REMARK  Name = 
REMARK  16 active torsions:
REMARK  status: ('A' for Active; 'I' for Inactive)
REMARK    1  A    between atoms: C_1  and  C_2
REMARK    2  A    between atoms: C_2  and  C_3
REMARK    3  A    between atoms: C_4  and  C_5
REMARK    4  A    between atoms: C_5  and  C_6
REMARK    5  A    between atoms: C_7  and  C_8
REMARK    6  A    between atoms: C_8  and  C_9
REMARK    7  A    between atoms: C_10  and  C_11
REMARK    8  A    between atoms: C_11  and  C_12
REMARK    9  A    between atoms: C_13  and  C_14
REMARK   10  A    between atoms: C_14  and  C_15
REMARK   11  A    between atoms: C_15  and  C_16
REMARK   12  A    between atoms: C_17  and  C_18
REMARK   13  A    between atoms: C_18  and  S_19
REMARK   14  A    between atoms: S_19  and  C_20
REMARK   15  A    between atoms: C_20  and  C_21
REMARK   16  A    between atoms: C_21  and  C_23
REMARK                            x       y       z     vdW  Elec       q    Type
REMARK                         _______ _______ _______ _____ _____    ______ ____
ROOT
ATOM      1  C   UNL     1       1.202   3.397  21.279  0.00  0.00    +0.000 C 
ATOM      2  C   UNL     1       1.895   2.261  21.102  0.00  0.00    +0.000 C 
ENDROOT
BRANCH   1   3
ATOM      3  C   UNL     1       1.137   4.570  20.331  0.00  0.00    +0.000 C 
BRANCH   3   5
ATOM      4  C   UNL     1       2.574   6.616  19.867  0.00  0.00    +0.000 C 
ATOM      5  C   UNL     1       2.068   5.690  20.706  0.00  0.00    +0.000 C 
BRANCH   4   6
ATOM      6  C   UNL     1       2.276   6.695  18.407  0.00  0.00    +0.000 C 
BRANCH   6   8
ATOM      7  C   UNL     1       2.269   9.092  17.662  0.00  0.00    +0.000 C 
ATOM      8  C   UNL     1       2.895   7.909  17.761  0.00  0.00    +0.000 C 
BRANCH   7   9
ATOM      9  C   UNL     1       0.899   9.366  18.204  0.00  0.00    +0.000 C 
BRANCH   9  11
ATOM     10  C   UNL     1       0.659  10.242  20.538  0.00  0.00    +0.000 C 
ATOM     11  C   UNL     1       0.910  10.452  19.238  0.00  0.00    +0.000 C 
BRANCH  10  13
ATOM     12  C   UNL     1      -0.484   9.082  22.441  0.00  0.00    +0.000 C 
ATOM     13  C   UNL     1       0.285   8.915  21.142  0.00  0.00    +0.000 C 
ENDBRANCH  10  13
ENDBRANCH   9  11
ENDBRANCH   7   9
ENDBRANCH   6   8
ENDBRANCH   4   6
ENDBRANCH   3   5
ENDBRANCH   1   3
BRANCH   2  14
ATOM     14  C   UNL     1       2.753   2.018  19.905  0.00  0.00    +0.000 C 
BRANCH  14  15
ATOM     15  C   UNL     1       4.187   2.480  20.117  0.00  0.00    +0.000 C 
BRANCH  15  16
ATOM     16  C   UNL     1       4.674   3.199  18.895  0.00  0.00    +0.000 C 
ATOM     17  C   UNL     1       5.252   4.403  18.942  0.00  0.00    +0.000 C 
BRANCH  17  18
ATOM     18  C   UNL     1       5.818   5.132  17.763  0.00  0.00    +0.000 C 
BRANCH  18  19
ATOM     19  S   UNL     1       5.874   4.007  16.328  0.00  0.00    +0.000 S 
BRANCH  19  20
ATOM     20  C   UNL     1       5.773   5.216  14.964  0.00  0.00    +0.000 C 
BRANCH  20  21
ATOM     21  C   UNL     1       6.780   4.949  13.865  0.00  0.00    +0.000 C 
ATOM     22  O   UNL     1       7.896   5.480  13.844  0.00  0.00    +0.000 OA
BRANCH  21  23
ATOM     23  C   UNL     1       6.342   3.950  12.812  0.00  0.00    +0.000 C 
ATOM     24  F   UNL     1       6.471   2.655  13.212  0.00  0.00    +0.000 F 
ATOM     25  F   UNL     1       5.032   4.108  12.473  0.00  0.00    +0.000 F 
ATOM     26  F   UNL     1       7.059   4.061  11.661  0.00  0.00    +0.000 F 
ENDBRANCH  21  23
ENDBRANCH  20  21
ENDBRANCH  19  20
ENDBRANCH  18  19
ENDBRANCH  17  18
ENDBRANCH  15  16
ENDBRANCH  14  15
ENDBRANCH   2  14
TORSDOF 15
ENDMDL
MODEL 3
REMARK VINA RESULT:      -6.1      4.259      7.802
REMARK  Name = 
REMARK  16 active torsions:
REMARK  status: ('A' for Active; 'I' for Inactive)
REMARK    1  A    between atoms: C_1  and  C_2
REMARK    2  A    between atoms: C_2  and  C_3
REMARK    3  A    between atoms: C_4  and  C_5
REMARK    4  A    between atoms: C_5  and  C_6
REMARK    5  A    between atoms: C_7  and  C_8
REMARK    6  A    between atoms: C_8  and  C_9
REMARK    7  A    between atoms: C_10  and  C_11
REMARK    8  A    between atoms: C_11  and  C_12
REMARK    9  A    between atoms: C_13  and  C_14
REMARK   10  A    between atoms: C_14  and  C_15
REMARK   11  A    between atoms: C_15  and  C_16
REMARK   12  A    between atoms: C_17  and  C_18
REMARK   13  A    between atoms: C_18  and  S_19
REMARK   14  A    between atoms: S_19  and  C_20
REMARK   15  A    between atoms: C_20  and  C_21
REMARK   16  A    between atoms: C_21  and  C_23
REMARK                            x       y       z     vdW  Elec       q    Type
REMARK                         _______ _______ _______ _____ _____    ______ ____
ROOT
ATOM      1  C   UNL     1       2.195   3.771  21.420  0.00  0.00    +0.000 C 
ATOM      2  C   UNL     1       1.293   2.869  21.005  0.00  0.00    +0.000 C 
ENDROOT
BRANCH   1   3
ATOM      3  C   UNL     1       2.688   4.972  20.649  0.00  0.00    +0.000 C 
BRANCH   3   5
ATOM      4  C   UNL     1       1.824   7.283  20.033  0.00  0.00    +0.000 C 
ATOM      5  C   UNL     1       1.817   6.186  20.817  0.00  0.00    +0.000 C 
BRANCH   4   6
ATOM      6  C   UNL     1       2.700   7.470  18.839  0.00  0.00    +0.000 C 
BRANCH   6   8
ATOM      7  C   UNL     1       1.434   9.409  17.871  0.00  0.00    +0.000 C 
ATOM      8  C   UNL     1       1.997   8.201  17.722  0.00  0.00    +0.000 C 
BRANCH   7   9
ATOM      9  C   UNL     1       1.458  10.197  19.146  0.00  0.00    +0.000 C 
BRANCH   9  11
ATOM     10  C   UNL     1      -0.669  10.448  20.446  0.00  0.00    +0.000 C 
ATOM     11  C   UNL     1       0.131  10.831  19.440  0.00  0.00    +0.000 C 
BRANCH  10  13
ATOM     12  C   UNL     1       0.081   9.798  22.746  0.00  0.00    +0.000 C 
ATOM     13  C   UNL     1      -0.387   9.308  21.387  0.00  0.00    +0.000 C 
ENDBRANCH  10  13
ENDBRANCH   9  11
ENDBRANCH   7   9
ENDBRANCH   6   8
ENDBRANCH   4   6
ENDBRANCH   3   5
ENDBRANCH   1   3
BRANCH   2  14
ATOM     14  C   UNL     1       0.657   2.924  19.654  0.00  0.00    +0.000 C 
BRANCH  14  15
ATOM     15  C   UNL     1       1.291   1.946  18.676  0.00  0.00    +0.000 C 
BRANCH  15  16
ATOM     16  C   UNL     1       2.546   2.539  18.109  0.00  0.00    +0.000 C 
ATOM     17  C   UNL     1       2.545   3.603  17.300  0.00  0.00    +0.000 C 
BRANCH  17  18
ATOM     18  C   UNL     1       3.770   4.276  16.763  0.00  0.00    +0.000 C 
BRANCH  18  19
ATOM     19  S   UNL     1       5.181   3.930  17.866  0.00  0.00    +0.000 S 
BRANCH  19  20
ATOM     20  C   UNL     1       6.542   4.653  16.888  0.00  0.00    +0.000 C 
BRANCH  20  21
ATOM     21  C   UNL     1       6.977   6.011  17.400  0.00  0.00    +0.000 C 
ATOM     22  O   UNL     1       6.699   7.062  16.813  0.00  0.00    +0.000 OA
BRANCH  21  23
ATOM     23  C   UNL     1       7.743   5.995  18.709  0.00  0.00    +0.000 C 
ATOM     24  F   UNL     1       6.936   5.905  19.802  0.00  0.00    +0.000 F 
ATOM     25  F   UNL     1       8.598   4.938  18.787  0.00  0.00    +0.000 F 
ATOM     26  F   UNL     1       8.491   7.117  18.886  0.00  0.00    +0.000 F 
ENDBRANCH  21  23
ENDBRANCH  20  21
ENDBRANCH  19  20
ENDBRANCH  18  19
ENDBRANCH  17  18
ENDBRANCH  15  16
ENDBRANCH  14  15
ENDBRANCH   2  14
TORSDOF 15
ENDMDL
MODEL 4
REMARK VINA RESULT:      -6.1      4.180      8.070
REMARK  Name = 
REMARK  16 active torsions:
REMARK  status: ('A' for Active; 'I' for Inactive)
REMARK    1  A    between atoms: C_1  and  C_2
REMARK    2  A    between atoms: C_2  and  C_3
REMARK    3  A    between atoms: C_4  and  C_5
REMARK    4  A    between atoms: C_5  and  C_6
REMARK    5  A    between atoms: C_7  and  C_8
REMARK    6  A    between atoms: C_8  and  C_9
REMARK    7  A    between atoms: C_10  and  C_11
REMARK    8  A    between atoms: C_11  and  C_12
REMARK    9  A    between atoms: C_13  and  C_14
REMARK   10  A    between atoms: C_14  and  C_15
REMARK   11  A    between atoms: C_15  and  C_16
REMARK   12  A    between atoms: C_17  and  C_18
REMARK   13  A    between atoms: C_18  and  S_19
REMARK   14  A    between atoms: S_19  and  C_20
REMARK   15  A    between atoms: C_20  and  C_21
REMARK   16  A    between atoms: C_21  and  C_23
REMARK                            x       y       z     vdW  Elec       q    Type
REMARK                         _______ _______ _______ _____ _____    ______ ____
ROOT
ATOM      1  C   UNL     1       0.825   7.959  21.223  0.00  0.00    +0.000 C 
ATOM      2  C   UNL     1       1.718   8.348  20.299  0.00  0.00    +0.000 C 
ENDROOT
BRANCH   1   3
ATOM      3  C   UNL     1      -0.531   8.571  21.478  0.00  0.00    +0.000 C 
BRANCH   3   5
ATOM      4  C   UNL     1      -0.540  10.758  22.775  0.00  0.00    +0.000 C 
ATOM      5  C   UNL     1      -0.580   9.411  22.724  0.00  0.00    +0.000 C 
BRANCH   4   6
ATOM      6  C   UNL     1      -0.458  11.653  21.584  0.00  0.00    +0.000 C 
BRANCH   6   8
ATOM      7  C   UNL     1      -2.222  12.198  19.885  0.00  0.00    +0.000 C 
ATOM      8  C   UNL     1      -1.810  12.170  21.161  0.00  0.00    +0.000 C 
BRANCH   7   9
ATOM      9  C   UNL     1      -1.413  11.695  18.728  0.00  0.00    +0.000 C 
BRANCH   9  11
ATOM     10  C   UNL     1      -2.331   9.914  17.225  0.00  0.00    +0.000 C 
ATOM     11  C   UNL     1      -1.752  10.277  18.378  0.00  0.00    +0.000 C 
BRANCH  10  13
ATOM     12  C   UNL     1      -4.210  11.302  16.323  0.00  0.00    +0.000 C 
ATOM     13  C   UNL     1      -2.768  10.863  16.142  0.00  0.00    +0.000 C 
ENDBRANCH  10  13
ENDBRANCH   9  11
ENDBRANCH   7   9
ENDBRANCH   6   8
ENDBRANCH   4   6
ENDBRANCH   3   5
ENDBRANCH   1   3
BRANCH   2  14
ATOM     14  C   UNL     1       1.484   9.508  19.388  0.00  0.00    +0.000 C 
BRANCH  14  15
ATOM     15  C   UNL     1       1.823   9.184  17.940  0.00  0.00    +0.000 C 
BRANCH  15  16
ATOM     16  C   UNL     1       2.152   7.727  17.812  0.00  0.00    +0.000 C 
ATOM     17  C   UNL     1       3.405   7.271  17.714  0.00  0.00    +0.000 C 
BRANCH  17  18
ATOM     18  C   UNL     1       3.792   5.826  17.654  0.00  0.00    +0.000 C 
BRANCH  18  19
ATOM     19  S   UNL     1       2.396   4.802  18.231  0.00  0.00    +0.000 S 
BRANCH  19  20
ATOM     20  C   UNL     1       2.807   4.663  20.003  0.00  0.00    +0.000 C 
BRANCH  20  21
ATOM     21  C   UNL     1       2.954   3.226  20.461  0.00  0.00    +0.000 C 
ATOM     22  O   UNL     1       2.115   2.668  21.176  0.00  0.00    +0.000 OA
BRANCH  21  23
ATOM     23  C   UNL     1       4.184   2.503  19.945  0.00  0.00    +0.000 C 
ATOM     24  F   UNL     1       5.127   3.343  19.436  0.00  0.00    +0.000 F 
ATOM     25  F   UNL     1       4.807   1.793  20.927  0.00  0.00    +0.000 F 
ATOM     26  F   UNL     1       3.889   1.622  18.952  0.00  0.00    +0.000 F 
ENDBRANCH  21  23
ENDBRANCH  20  21
ENDBRANCH  19  20
ENDBRANCH  18  19
ENDBRANCH  17  18
ENDBRANCH  15  16
ENDBRANCH  14  15
ENDBRANCH   2  14
TORSDOF 15
ENDMDL
MODEL 5
REMARK VINA RESULT:      -6.1      3.036      3.958
REMARK  Name = 
REMARK  16 active torsions:
REMARK  status: ('A' for Active; 'I' for Inactive)
REMARK    1  A    between atoms: C_1  and  C_2
REMARK    2  A    between atoms: C_2  and  C_3
REMARK    3  A    between atoms: C_4  and  C_5
REMARK    4  A    between atoms: C_5  and  C_6
REMARK    5  A    between atoms: C_7  and  C_8
REMARK    6  A    between atoms: C_8  and  C_9
REMARK    7  A    between atoms: C_10  and  C_11
REMARK    8  A    between atoms: C_11  and  C_12
REMARK    9  A    between atoms: C_13  and  C_14
REMARK   10  A    between atoms: C_14  and  C_15
REMARK   11  A    between atoms: C_15  and  C_16
REMARK   12  A    between atoms: C_17  and  C_18
REMARK   13  A    between atoms: C_18  and  S_19
REMARK   14  A    between atoms: S_19  and  C_20
REMARK   15  A    between atoms: C_20  and  C_21
REMARK   16  A    between atoms: C_21  and  C_23
REMARK                            x       y       z     vdW  Elec       q    Type
REMARK                         _______ _______ _______ _____ _____    ______ ____
ROOT
ATOM      1  C   UNL     1       1.659   4.363  20.579  0.00  0.00    +0.000 C 
ATOM      2  C   UNL     1       1.679   5.669  20.267  0.00  0.00    +0.000 C 
ENDROOT
BRANCH   1   3
ATOM      3  C   UNL     1       2.608   3.302  20.076  0.00  0.00    +0.000 C 
BRANCH   3   5
ATOM      4  C   UNL     1       3.044   2.928  17.599  0.00  0.00    +0.000 C 
ATOM      5  C   UNL     1       2.271   2.807  18.697  0.00  0.00    +0.000 C 
BRANCH   4   6
ATOM      6  C   UNL     1       4.392   3.568  17.574  0.00  0.00    +0.000 C 
BRANCH   6   8
ATOM      7  C   UNL     1       5.066   5.406  16.004  0.00  0.00    +0.000 C 
ATOM      8  C   UNL     1       4.737   4.123  16.215  0.00  0.00    +0.000 C 
BRANCH   7   9
ATOM      9  C   UNL     1       5.163   6.438  17.087  0.00  0.00    +0.000 C 
BRANCH   9  11
ATOM     10  C   UNL     1       7.604   6.696  17.581  0.00  0.00    +0.000 C 
ATOM     11  C   UNL     1       6.470   7.173  17.049  0.00  0.00    +0.000 C 
BRANCH  10  13
ATOM     12  C   UNL     1       7.620   5.594  19.830  0.00  0.00    +0.000 C 
ATOM     13  C   UNL     1       7.729   5.396  18.329  0.00  0.00    +0.000 C 
ENDBRANCH  10  13
ENDBRANCH   9  11
ENDBRANCH   7   9
ENDBRANCH   6   8
ENDBRANCH   4   6
ENDBRANCH   3   5
ENDBRANCH   1   3
BRANCH   2  14
ATOM     14  C   UNL     1       2.669   6.256  19.316  0.00  0.00    +0.000 C 
BRANCH  14  15
ATOM     15  C   UNL     1       2.004   7.087  18.229  0.00  0.00    +0.000 C 
BRANCH  15  16
ATOM     16  C   UNL     1       2.354   8.534  18.412  0.00  0.00    +0.000 C 
ATOM     17  C   UNL     1       1.519   9.528  18.095  0.00  0.00    +0.000 C 
BRANCH  17  18
ATOM     18  C   UNL     1       1.789  10.983  18.323  0.00  0.00    +0.000 C 
BRANCH  18  19
ATOM     19  S   UNL     1       0.438  11.701  19.316  0.00  0.00    +0.000 S 
BRANCH  19  20
ATOM     20  C   UNL     1      -0.838  10.413  19.106  0.00  0.00    +0.000 C 
BRANCH  20  21
ATOM     21  C   UNL     1      -2.079  10.924  18.403  0.00  0.00    +0.000 C 
ATOM     22  O   UNL     1      -2.805  11.799  18.889  0.00  0.00    +0.000 OA
BRANCH  21  23
ATOM     23  C   UNL     1      -2.347  10.318  17.038  0.00  0.00    +0.000 C 
ATOM     24  F   UNL     1      -2.333  11.235  16.031  0.00  0.00    +0.000 F 
ATOM     25  F   UNL     1      -1.417   9.381  16.705  0.00  0.00    +0.000 F 
ATOM     26  F   UNL     1      -3.560   9.706  16.972  0.00  0.00    +0.000 F 
ENDBRANCH  21  23
ENDBRANCH  20  21
ENDBRANCH  19  20
ENDBRANCH  18  19
ENDBRANCH  17  18
ENDBRANCH  15  16
ENDBRANCH  14  15
ENDBRANCH   2  14
TORSDOF 15
ENDMDL
MODEL 6
REMARK VINA RESULT:      -6.0      2.783      3.616
REMARK  Name = 
REMARK  16 active torsions:
REMARK  status: ('A' for Active; 'I' for Inactive)
REMARK    1  A    between atoms: C_1  and  C_2
REMARK    2  A    between atoms: C_2  and  C_3
REMARK    3  A    between atoms: C_4  and  C_5
REMARK    4  A    between atoms: C_5  and  C_6
REMARK    5  A    between atoms: C_7  and  C_8
REMARK    6  A    between atoms: C_8  and  C_9
REMARK    7  A    between atoms: C_10  and  C_11
REMARK    8  A    between atoms: C_11  and  C_12
REMARK    9  A    between atoms: C_13  and  C_14
REMARK   10  A    between atoms: C_14  and  C_15
REMARK   11  A    between atoms: C_15  and  C_16
REMARK   12  A    between atoms: C_17  and  C_18
REMARK   13  A    between atoms: C_18  and  S_19
REMARK   14  A    between atoms: S_19  and  C_20
REMARK   15  A    between atoms: C_20  and  C_21
REMARK   16  A    between atoms: C_21  and  C_23
REMARK                            x       y       z     vdW  Elec       q    Type
REMARK                         _______ _______ _______ _____ _____    ______ ____
ROOT
ATOM      1  C   UNL     1       0.966   3.222  20.496  0.00  0.00    +0.000 C 
ATOM      2  C   UNL     1       0.939   4.549  20.296  0.00  0.00    +0.000 C 
ENDROOT
BRANCH   1   3
ATOM      3  C   UNL     1       1.996   2.450  21.286  0.00  0.00    +0.000 C 
BRANCH   3   5
ATOM      4  C   UNL     1       3.945   2.351  19.657  0.00  0.00    +0.000 C 
ATOM      5  C   UNL     1       3.407   2.713  20.839  0.00  0.00    +0.000 C 
BRANCH   4   6
ATOM      6  C   UNL     1       3.213   1.635  18.572  0.00  0.00    +0.000 C 
BRANCH   6   8
ATOM      7  C   UNL     1       2.970   3.527  16.941  0.00  0.00    +0.000 C 
ATOM      8  C   UNL     1       2.413   2.575  17.704  0.00  0.00    +0.000 C 
BRANCH   7   9
ATOM      9  C   UNL     1       4.446   3.758  16.826  0.00  0.00    +0.000 C 
BRANCH   9  11
ATOM     10  C   UNL     1       5.624   5.925  17.261  0.00  0.00    +0.000 C 
ATOM     11  C   UNL     1       4.770   5.192  16.532  0.00  0.00    +0.000 C 
BRANCH  10  13
ATOM     12  C   UNL     1       7.746   4.968  18.185  0.00  0.00    +0.000 C 
ATOM     13  C   UNL     1       6.339   5.444  18.496  0.00  0.00    +0.000 C 
ENDBRANCH  10  13
ENDBRANCH   9  11
ENDBRANCH   7   9
ENDBRANCH   6   8
ENDBRANCH   4   6
ENDBRANCH   3   5
ENDBRANCH   1   3
BRANCH   2  14
ATOM     14  C   UNL     1       1.990   5.467  20.828  0.00  0.00    +0.000 C 
BRANCH  14  15
ATOM     15  C   UNL     1       2.958   5.926  19.748  0.00  0.00    +0.000 C 
BRANCH  15  16
ATOM     16  C   UNL     1       2.238   6.793  18.759  0.00  0.00    +0.000 C 
ATOM     17  C   UNL     1       2.246   8.128  18.822  0.00  0.00    +0.000 C 
BRANCH  17  18
ATOM     18  C   UNL     1       1.604   9.040  17.823  0.00  0.00    +0.000 C 
BRANCH  18  19
ATOM     19  S   UNL     1       1.122  10.595  18.645  0.00  0.00    +0.000 S 
BRANCH  19  20
ATOM     20  C   UNL     1      -0.463  10.089  19.394  0.00  0.00    +0.000 C 
BRANCH  20  21
ATOM     21  C   UNL     1      -1.629  10.938  18.931  0.00  0.00    +0.000 C 
ATOM     22  O   UNL     1      -2.069  11.882  19.596  0.00  0.00    +0.000 OA
BRANCH  21  23
ATOM     23  C   UNL     1      -2.195  10.577  17.570  0.00  0.00    +0.000 C 
ATOM     24  F   UNL     1      -3.537  10.350  17.589  0.00  0.00    +0.000 F 
ATOM     25  F   UNL     1      -1.996  11.567  16.656  0.00  0.00    +0.000 F 
ATOM     26  F   UNL     1      -1.630   9.452  17.056  0.00  0.00    +0.000 F 
ENDBRANCH  21  23
ENDBRANCH  20  21
ENDBRANCH  19  20
ENDBRANCH  18  19
ENDBRANCH  17  18
ENDBRANCH  15  16
ENDBRANCH  14  15
ENDBRANCH   2  14
TORSDOF 15
ENDMDL
MODEL 7
REMARK VINA RESULT:      -6.0      4.346      7.901
REMARK  Name = 
REMARK  16 active torsions:
REMARK  status: ('A' for Active; 'I' for Inactive)
REMARK    1  A    between atoms: C_1  and  C_2
REMARK    2  A    between atoms: C_2  and  C_3
REMARK    3  A    between atoms: C_4  and  C_5
REMARK    4  A    between atoms: C_5  and  C_6
REMARK    5  A    between atoms: C_7  and  C_8
REMARK    6  A    between atoms: C_8  and  C_9
REMARK    7  A    between atoms: C_10  and  C_11
REMARK    8  A    between atoms: C_11  and  C_12
REMARK    9  A    between atoms: C_13  and  C_14
REMARK   10  A    between atoms: C_14  and  C_15
REMARK   11  A    between atoms: C_15  and  C_16
REMARK   12  A    between atoms: C_17  and  C_18
REMARK   13  A    between atoms: C_18  and  S_19
REMARK   14  A    between atoms: S_19  and  C_20
REMARK   15  A    between atoms: C_20  and  C_21
REMARK   16  A    between atoms: C_21  and  C_23
REMARK                            x       y       z     vdW  Elec       q    Type
REMARK                         _______ _______ _______ _____ _____    ______ ____
ROOT
ATOM      1  C   UNL     1       1.254   3.769  20.852  0.00  0.00    +0.000 C 
ATOM      2  C   UNL     1       1.308   2.565  20.261  0.00  0.00    +0.000 C 
ENDROOT
BRANCH   1   3
ATOM      3  C   UNL     1       1.307   5.113  20.166  0.00  0.00    +0.000 C 
BRANCH   3   5
ATOM      4  C   UNL     1       3.126   6.547  19.118  0.00  0.00    +0.000 C 
ATOM      5  C   UNL     1       2.700   5.665  20.044  0.00  0.00    +0.000 C 
BRANCH   4   6
ATOM      6  C   UNL     1       2.268   7.146  18.055  0.00  0.00    +0.000 C 
BRANCH   6   8
ATOM      7  C   UNL     1       1.811   9.611  17.941  0.00  0.00    +0.000 C 
ATOM      8  C   UNL     1       2.643   8.575  17.753  0.00  0.00    +0.000 C 
BRANCH   7   9
ATOM      9  C   UNL     1       0.426   9.488  18.499  0.00  0.00    +0.000 C 
BRANCH   9  11
ATOM     10  C   UNL     1      -0.387  11.545  19.674  0.00  0.00    +0.000 C 
ATOM     11  C   UNL     1      -0.277  10.811  18.557  0.00  0.00    +0.000 C 
BRANCH  10  13
ATOM     12  C   UNL     1      -0.497  11.964  22.141  0.00  0.00    +0.000 C 
ATOM     13  C   UNL     1       0.127  11.139  21.029  0.00  0.00    +0.000 C 
ENDBRANCH  10  13
ENDBRANCH   9  11
ENDBRANCH   7   9
ENDBRANCH   6   8
ENDBRANCH   4   6
ENDBRANCH   3   5
ENDBRANCH   1   3
BRANCH   2  14
ATOM     14  C   UNL     1       1.466   2.397  18.785  0.00  0.00    +0.000 C 
BRANCH  14  15
ATOM     15  C   UNL     1       2.815   1.800  18.412  0.00  0.00    +0.000 C 
BRANCH  15  16
ATOM     16  C   UNL     1       3.753   2.892  17.992  0.00  0.00    +0.000 C 
ATOM     17  C   UNL     1       3.628   3.552  16.836  0.00  0.00    +0.000 C 
BRANCH  17  18
ATOM     18  C   UNL     1       4.492   4.695  16.401  0.00  0.00    +0.000 C 
BRANCH  18  19
ATOM     19  S   UNL     1       6.239   4.296  16.746  0.00  0.00    +0.000 S 
BRANCH  19  20
ATOM     20  C   UNL     1       6.344   4.791  18.499  0.00  0.00    +0.000 C 
BRANCH  20  21
ATOM     21  C   UNL     1       7.505   5.723  18.778  0.00  0.00    +0.000 C 
ATOM     22  O   UNL     1       8.415   5.434  19.563  0.00  0.00    +0.000 OA
BRANCH  21  23
ATOM     23  C   UNL     1       7.498   7.022  17.994  0.00  0.00    +0.000 C 
ATOM     24  F   UNL     1       8.271   7.992  18.554  0.00  0.00    +0.000 F 
ATOM     25  F   UNL     1       7.967   6.854  16.726  0.00  0.00    +0.000 F 
ATOM     26  F   UNL     1       6.251   7.553  17.882  0.00  0.00    +0.000 F 
ENDBRANCH  21  23
ENDBRANCH  20  21
ENDBRANCH  19  20
ENDBRANCH  18  19
ENDBRANCH  17  18
ENDBRANCH  15  16
ENDBRANCH  14  15
ENDBRANCH   2  14
TORSDOF 15
ENDMDL
MODEL 8
REMARK VINA RESULT:      -6.0      6.482      9.310
REMARK  Name = 
REMARK  16 active torsions:
REMARK  status: ('A' for Active; 'I' for Inactive)
REMARK    1  A    between atoms: C_1  and  C_2
REMARK    2  A    between atoms: C_2  and  C_3
REMARK    3  A    between atoms: C_4  and  C_5
REMARK    4  A    between atoms: C_5  and  C_6
REMARK    5  A    between atoms: C_7  and  C_8
REMARK    6  A    between atoms: C_8  and  C_9
REMARK    7  A    between atoms: C_10  and  C_11
REMARK    8  A    between atoms: C_11  and  C_12
REMARK    9  A    between atoms: C_13  and  C_14
REMARK   10  A    between atoms: C_14  and  C_15
REMARK   11  A    between atoms: C_15  and  C_16
REMARK   12  A    between atoms: C_17  and  C_18
REMARK   13  A    between atoms: C_18  and  S_19
REMARK   14  A    between atoms: S_19  and  C_20
REMARK   15  A    between atoms: C_20  and  C_21
REMARK   16  A    between atoms: C_21  and  C_23
REMARK                            x       y       z     vdW  Elec       q    Type
REMARK                         _______ _______ _______ _____ _____    ______ ____
ROOT
ATOM      1  C   UNL     1       8.029   7.254  18.107  0.00  0.00    +0.000 C 
ATOM      2  C   UNL     1       6.996   6.489  17.720  0.00  0.00    +0.000 C 
ENDROOT
BRANCH   1   3
ATOM      3  C   UNL     1       8.151   8.751  17.947  0.00  0.00    +0.000 C 
BRANCH   3   5
ATOM      4  C   UNL     1       9.497  10.587  19.079  0.00  0.00    +0.000 C 
ATOM      5  C   UNL     1       8.820   9.421  19.114  0.00  0.00    +0.000 C 
BRANCH   4   6
ATOM      6  C   UNL     1       9.683  11.426  17.859  0.00  0.00    +0.000 C 
BRANCH   6   8
ATOM      7  C   UNL     1      11.589  13.034  17.574  0.00  0.00    +0.000 C 
ATOM      8  C   UNL     1      11.131  11.774  17.619  0.00  0.00    +0.000 C 
BRANCH   7   9
ATOM      9  C   UNL     1      10.736  14.247  17.788  0.00  0.00    +0.000 C 
BRANCH   9  11
ATOM     10  C   UNL     1      10.959  16.661  17.159  0.00  0.00    +0.000 C 
ATOM     11  C   UNL     1      11.101  15.363  16.855  0.00  0.00    +0.000 C 
BRANCH  10  13
ATOM     12  C   UNL     1       8.964  17.713  18.248  0.00  0.00    +0.000 C 
ATOM     13  C   UNL     1      10.376  17.190  18.442  0.00  0.00    +0.000 C 
ENDBRANCH  10  13
ENDBRANCH   9  11
ENDBRANCH   7   9
ENDBRANCH   6   8
ENDBRANCH   4   6
ENDBRANCH   3   5
ENDBRANCH   1   3
BRANCH   2  14
ATOM     14  C   UNL     1       5.797   7.044  17.024  0.00  0.00    +0.000 C 
BRANCH  14  15
ATOM     15  C   UNL     1       5.062   5.989  16.210  0.00  0.00    +0.000 C 
BRANCH  15  16
ATOM     16  C   UNL     1       5.035   4.694  16.965  0.00  0.00    +0.000 C 
ATOM     17  C   UNL     1       3.961   3.900  17.006  0.00  0.00    +0.000 C 
BRANCH  17  18
ATOM     18  C   UNL     1       3.903   2.566  17.685  0.00  0.00    +0.000 C 
BRANCH  18  19
ATOM     19  S   UNL     1       2.332   2.422  18.600  0.00  0.00    +0.000 S 
BRANCH  19  20
ATOM     20  C   UNL     1       1.665   4.104  18.368  0.00  0.00    +0.000 C 
BRANCH  20  21
ATOM     21  C   UNL     1       1.728   4.941  19.629  0.00  0.00    +0.000 C 
ATOM     22  O   UNL     1       1.140   4.621  20.668  0.00  0.00    +0.000 OA
BRANCH  21  23
ATOM     23  C   UNL     1       2.599   6.180  19.542  0.00  0.00    +0.000 C 
ATOM     24  F   UNL     1       2.576   6.768  18.314  0.00  0.00    +0.000 F 
ATOM     25  F   UNL     1       2.208   7.141  20.425  0.00  0.00    +0.000 F 
ATOM     26  F   UNL     1       3.906   5.914  19.808  0.00  0.00    +0.000 F 
ENDBRANCH  21  23
ENDBRANCH  20  21
ENDBRANCH  19  20
ENDBRANCH  18  19
ENDBRANCH  17  18
ENDBRANCH  15  16
ENDBRANCH  14  15
ENDBRANCH   2  14
TORSDOF 15
ENDMDL
MODEL 9
REMARK VINA RESULT:      -5.9      3.605      5.281
REMARK  Name = 
REMARK  16 active torsions:
REMARK  status: ('A' for Active; 'I' for Inactive)
REMARK    1  A    between atoms: C_1  and  C_2
REMARK    2  A    between atoms: C_2  and  C_3
REMARK    3  A    between atoms: C_4  and  C_5
REMARK    4  A    between atoms: C_5  and  C_6
REMARK    5  A    between atoms: C_7  and  C_8
REMARK    6  A    between atoms: C_8  and  C_9
REMARK    7  A    between atoms: C_10  and  C_11
REMARK    8  A    between atoms: C_11  and  C_12
REMARK    9  A    between atoms: C_13  and  C_14
REMARK   10  A    between atoms: C_14  and  C_15
REMARK   11  A    between atoms: C_15  and  C_16
REMARK   12  A    between atoms: C_17  and  C_18
REMARK   13  A    between atoms: C_18  and  S_19
REMARK   14  A    between atoms: S_19  and  C_20
REMARK   15  A    between atoms: C_20  and  C_21
REMARK   16  A    between atoms: C_21  and  C_23
REMARK                            x       y       z     vdW  Elec       q    Type
REMARK                         _______ _______ _______ _____ _____    ______ ____
ROOT
ATOM      1  C   UNL     1       1.968   8.347  17.920  0.00  0.00    +0.000 C 
ATOM      2  C   UNL     1       1.367   9.063  18.882  0.00  0.00    +0.000 C 
ENDROOT
BRANCH   1   3
ATOM      3  C   UNL     1       2.721   7.050  18.099  0.00  0.00    +0.000 C 
BRANCH   3   5
ATOM      4  C   UNL     1       4.920   6.004  17.366  0.00  0.00    +0.000 C 
ATOM      5  C   UNL     1       4.068   7.047  17.431  0.00  0.00    +0.000 C 
BRANCH   4   6
ATOM      6  C   UNL     1       4.654   4.652  17.940  0.00  0.00    +0.000 C 
BRANCH   6   8
ATOM      7  C   UNL     1       2.809   3.306  16.902  0.00  0.00    +0.000 C 
ATOM      8  C   UNL     1       4.092   3.696  16.919  0.00  0.00    +0.000 C 
BRANCH   7   9
ATOM      9  C   UNL     1       1.770   3.789  17.868  0.00  0.00    +0.000 C 
BRANCH   9  11
ATOM     10  C   UNL     1       1.508   2.218  19.801  0.00  0.00    +0.000 C 
ATOM     11  C   UNL     1       1.110   2.657  18.598  0.00  0.00    +0.000 C 
BRANCH  10  13
ATOM     12  C   UNL     1       2.258   3.595  21.754  0.00  0.00    +0.000 C 
ATOM     13  C   UNL     1       2.688   2.750  20.569  0.00  0.00    +0.000 C 
ENDBRANCH  10  13
ENDBRANCH   9  11
ENDBRANCH   7   9
ENDBRANCH   6   8
ENDBRANCH   4   6
ENDBRANCH   3   5
ENDBRANCH   1   3
BRANCH   2  14
ATOM     14  C   UNL     1       1.394   8.666  20.321  0.00  0.00    +0.000 C 
BRANCH  14  15
ATOM     15  C   UNL     1       0.286   9.329  21.126  0.00  0.00    +0.000 C 
BRANCH  15  16
ATOM     16  C   UNL     1      -0.352  10.413  20.311  0.00  0.00    +0.000 C 
ATOM     17  C   UNL     1      -0.715  11.591  20.827  0.00  0.00    +0.000 C 
BRANCH  17  18
ATOM     18  C   UNL     1      -1.291  12.732  20.046  0.00  0.00    +0.000 C 
BRANCH  18  19
ATOM     19  S   UNL     1      -1.493  12.230  18.304  0.00  0.00    +0.000 S 
BRANCH  19  20
ATOM     20  C   UNL     1      -3.178  11.532  18.361  0.00  0.00    +0.000 C 
BRANCH  20  21
ATOM     21  C   UNL     1      -3.738  11.234  16.985  0.00  0.00    +0.000 C 
ATOM     22  O   UNL     1      -4.731  11.814  16.533  0.00  0.00    +0.000 OA
BRANCH  21  23
ATOM     23  C   UNL     1      -2.969  10.203  16.181  0.00  0.00    +0.000 C 
ATOM     24  F   UNL     1      -2.196  10.751  15.204  0.00  0.00    +0.000 F 
ATOM     25  F   UNL     1      -2.125   9.473  16.962  0.00  0.00    +0.000 F 
ATOM     26  F   UNL     1      -3.790   9.315  15.557  0.00  0.00    +0.000 F 
ENDBRANCH  21  23
ENDBRANCH  20  21
ENDBRANCH  19  20
ENDBRANCH  18  19
ENDBRANCH  17  18
ENDBRANCH  15  16
ENDBRANCH  14  15
ENDBRANCH   2  14
TORSDOF 15
ENDMDL
