MODEL 1
REMARK VINA RESULT:      -8.6      0.000      0.000
REMARK  Name = 
REMARK  5 active torsions:
REMARK  status: ('A' for Active; 'I' for Inactive)
REMARK    1  A    between atoms: C_1  and  C_2
REMARK    2  A    between atoms: C_2  and  C_3
REMARK    3  A    between atoms: C_2  and  C_4
REMARK    4  A    between atoms: C_7  and  C_8
REMARK    5  A    between atoms: C_14  and  C_15
REMARK                            x       y       z     vdW  Elec       q    Type
REMARK                         _______ _______ _______ _____ _____    ______ ____
ROOT
ATOM      1  C   UNL     1       2.587   6.302  19.187  0.00  0.00    +0.000 A 
ATOM      2  N   UNL     1       2.063   5.370  20.014  0.00  0.00    +0.000 NA
ATOM      3  N   UNL     1       2.525   4.207  19.616  0.00  0.00    +0.000 N 
ATOM      4  C   UNL     1       3.376   4.269  18.566  0.00  0.00    +0.000 A 
ATOM      5  C   UNL     1       3.986   3.205  17.920  0.00  0.00    +0.000 A 
ATOM      6  C   UNL     1       4.856   3.490  16.888  0.00  0.00    +0.000 A 
ATOM      7  C   UNL     1       5.134   4.807  16.505  0.00  0.00    +0.000 A 
ATOM      8  C   UNL     1       4.469   5.896  17.182  0.00  0.00    +0.000 A 
ATOM      9  C   UNL     1       3.529   5.630  18.253  0.00  0.00    +0.000 A 
ATOM     10  H   UNL     1       2.220   3.377  20.108  0.00  0.00    +0.000 HD
ENDROOT
BRANCH   1  14
ATOM     11  C   UNL     1       0.672  10.250  19.605  0.00  0.00    +0.000 A 
ATOM     12  C   UNL     1       0.818   9.405  20.730  0.00  0.00    +0.000 A 
ATOM     13  C   UNL     1       1.489   8.137  20.679  0.00  0.00    +0.000 A 
ATOM     14  C   UNL     1       2.044   7.676  19.485  0.00  0.00    +0.000 A 
ATOM     15  C   UNL     1       1.942   8.578  18.384  0.00  0.00    +0.000 A 
ATOM     16  C   UNL     1       1.272   9.813  18.429  0.00  0.00    +0.000 A 
BRANCH  11  18
ATOM     17  C   UNL     1      -1.361  11.546  18.709  0.00  0.00    +0.000 C 
ATOM     18  C   UNL     1      -0.139  11.550  19.643  0.00  0.00    +0.000 C 
ATOM     19  C   UNL     1      -0.618  11.919  21.060  0.00  0.00    +0.000 C 
ENDBRANCH  11  18
ENDBRANCH   1  14
BRANCH   7  20
ATOM     20  C   UNL     1       6.104   4.885  15.396  0.00  0.00    +0.000 A 
ATOM     21  N   UNL     1       5.955   4.299  14.211  0.00  0.00    +0.000 NA
ATOM     22  N   UNL     1       7.015   4.701  13.431  0.00  0.00    +0.000 NA
ATOM     23  N   UNL     1       7.819   5.499  14.114  0.00  0.00    +0.000 NA
ATOM     24  N   UNL     1       7.262   5.600  15.334  0.00  0.00    +0.000 N 
ATOM     25  H   UNL     1       7.706   6.188  16.021  0.00  0.00    +0.000 HD
ENDBRANCH   7  20
TORSDOF 3
ENDMDL
MODEL 2
REMARK VINA RESULT:      -8.5      3.316      7.974
REMARK  Name = 
REMARK  5 active torsions:
REMARK  status: ('A' for Active; 'I' for Inactive)
REMARK    1  A    between atoms: C_1  and  C_2
REMARK    2  A    between atoms: C_2  and  C_3
REMARK    3  A    between atoms: C_2  and  C_4
REMARK    4  A    between atoms: C_7  and  C_8
REMARK    5  A    between atoms: C_14  and  C_15
REMARK                            x       y       z     vdW  Elec       q    Type
REMARK                         _______ _______ _______ _____ _____    ______ ____
ROOT
ATOM      1  C   UNL     1       3.357   6.393  18.432  0.00  0.00    +0.000 A 
ATOM      2  N   UNL     1       3.319   5.506  19.452  0.00  0.00    +0.000 NA
ATOM      3  N   UNL     1       2.579   6.042  20.395  0.00  0.00    +0.000 N 
ATOM      4  C   UNL     1       2.061   7.252  20.084  0.00  0.00    +0.000 A 
ATOM      5  C   UNL     1       1.276   8.060  20.893  0.00  0.00    +0.000 A 
ATOM      6  C   UNL     1       0.816   9.249  20.366  0.00  0.00    +0.000 A 
ATOM      7  C   UNL     1       1.113   9.634  19.054  0.00  0.00    +0.000 A 
ATOM      8  C   UNL     1       1.950   8.783  18.240  0.00  0.00    +0.000 A 
ATOM      9  C   UNL     1       2.471   7.540  18.771  0.00  0.00    +0.000 A 
ATOM     10  H   UNL     1       2.453   5.526  21.256  0.00  0.00    +0.000 HD
ENDROOT
BRANCH   1  14
ATOM     11  C   UNL     1       5.620   4.657  15.074  0.00  0.00    +0.000 A 
ATOM     12  C   UNL     1       5.500   6.060  15.202  0.00  0.00    +0.000 A 
ATOM     13  C   UNL     1       4.834   6.694  16.306  0.00  0.00    +0.000 A 
ATOM     14  C   UNL     1       4.267   5.929  17.326  0.00  0.00    +0.000 A 
ATOM     15  C   UNL     1       4.463   4.521  17.205  0.00  0.00    +0.000 A 
ATOM     16  C   UNL     1       5.102   3.899  16.118  0.00  0.00    +0.000 A 
BRANCH  11  18
ATOM     17  C   UNL     1       5.212   3.638  12.747  0.00  0.00    +0.000 C 
ATOM     18  C   UNL     1       6.236   3.986  13.841  0.00  0.00    +0.000 C 
ATOM     19  C   UNL     1       7.359   4.823  13.199  0.00  0.00    +0.000 C 
ENDBRANCH  11  18
ENDBRANCH   1  14
BRANCH   7  20
ATOM     20  C   UNL     1       0.507  10.928  18.690  0.00  0.00    +0.000 A 
ATOM     21  N   UNL     1      -0.799  11.174  18.652  0.00  0.00    +0.000 NA
ATOM     22  N   UNL     1      -0.945  12.515  18.376  0.00  0.00    +0.000 NA
ATOM     23  N   UNL     1       0.236  13.090  18.221  0.00  0.00    +0.000 NA
ATOM     24  N   UNL     1       1.133  12.104  18.401  0.00  0.00    +0.000 N 
ATOM     25  H   UNL     1       2.114  12.328  18.348  0.00  0.00    +0.000 HD
ENDBRANCH   7  20
TORSDOF 3
ENDMDL
MODEL 3
REMARK VINA RESULT:      -8.5      0.403      1.036
REMARK  Name = 
REMARK  5 active torsions:
REMARK  status: ('A' for Active; 'I' for Inactive)
REMARK    1  A    between atoms: C_1  and  C_2
REMARK    2  A    between atoms: C_2  and  C_3
REMARK    3  A    between atoms: C_2  and  C_4
REMARK    4  A    between atoms: C_7  and  C_8
REMARK    5  A    between atoms: C_14  and  C_15
REMARK                            x       y       z     vdW  Elec       q    Type
REMARK                         _______ _______ _______ _____ _____    ______ ____
ROOT
ATOM      1  C   UNL     1       2.557   6.494  19.290  0.00  0.00    +0.000 A 
ATOM      2  N   UNL     1       2.099   5.591  20.186  0.00  0.00    +0.000 NA
ATOM      3  N   UNL     1       2.586   4.424  19.832  0.00  0.00    +0.000 N 
ATOM      4  C   UNL     1       3.393   4.457  18.747  0.00  0.00    +0.000 A 
ATOM      5  C   UNL     1       4.016   3.381  18.133  0.00  0.00    +0.000 A 
ATOM      6  C   UNL     1       4.835   3.639  17.054  0.00  0.00    +0.000 A 
ATOM      7  C   UNL     1       5.051   4.941  16.590  0.00  0.00    +0.000 A 
ATOM      8  C   UNL     1       4.373   6.043  17.236  0.00  0.00    +0.000 A 
ATOM      9  C   UNL     1       3.486   5.804  18.356  0.00  0.00    +0.000 A 
ATOM     10  H   UNL     1       2.330   3.612  20.379  0.00  0.00    +0.000 HD
ENDROOT
BRANCH   1  14
ATOM     11  C   UNL     1       0.540  10.403  19.560  0.00  0.00    +0.000 A 
ATOM     12  C   UNL     1       0.699   9.602  20.714  0.00  0.00    +0.000 A 
ATOM     13  C   UNL     1       1.403   8.350  20.711  0.00  0.00    +0.000 A 
ATOM     14  C   UNL     1       1.977   7.862  19.537  0.00  0.00    +0.000 A 
ATOM     15  C   UNL     1       1.859   8.723  18.405  0.00  0.00    +0.000 A 
ATOM     16  C   UNL     1       1.157   9.941  18.403  0.00  0.00    +0.000 A 
BRANCH  11  18
ATOM     17  C   UNL     1       0.389  12.877  18.872  0.00  0.00    +0.000 C 
ATOM     18  C   UNL     1      -0.305  11.682  19.547  0.00  0.00    +0.000 C 
ATOM     19  C   UNL     1      -1.682  11.487  18.883  0.00  0.00    +0.000 C 
ENDBRANCH  11  18
ENDBRANCH   1  14
BRANCH   7  20
ATOM     20  C   UNL     1       5.974   4.992  15.441  0.00  0.00    +0.000 A 
ATOM     21  N   UNL     1       7.136   5.639  15.424  0.00  0.00    +0.000 NA
ATOM     22  N   UNL     1       7.735   5.351  14.219  0.00  0.00    +0.000 NA
ATOM     23  N   UNL     1       6.961   4.564  13.490  0.00  0.00    +0.000 NA
ATOM     24  N   UNL     1       5.865   4.355  14.241  0.00  0.00    +0.000 N 
ATOM     25  H   UNL     1       5.141   3.754  13.881  0.00  0.00    +0.000 HD
ENDBRANCH   7  20
TORSDOF 3
ENDMDL
MODEL 4
REMARK VINA RESULT:      -8.5      0.986      1.302
REMARK  Name = 
REMARK  5 active torsions:
REMARK  status: ('A' for Active; 'I' for Inactive)
REMARK    1  A    between atoms: C_1  and  C_2
REMARK    2  A    between atoms: C_2  and  C_3
REMARK    3  A    between atoms: C_2  and  C_4
REMARK    4  A    between atoms: C_7  and  C_8
REMARK    5  A    between atoms: C_14  and  C_15
REMARK                            x       y       z     vdW  Elec       q    Type
REMARK                         _______ _______ _______ _____ _____    ______ ____
ROOT
ATOM      1  C   UNL     1       2.375   7.009  19.609  0.00  0.00    +0.000 A 
ATOM      2  N   UNL     1       2.049   6.293  20.709  0.00  0.00    +0.000 NA
ATOM      3  N   UNL     1       2.692   5.152  20.624  0.00  0.00    +0.000 N 
ATOM      4  C   UNL     1       3.485   5.033  19.534  0.00  0.00    +0.000 A 
ATOM      5  C   UNL     1       4.250   3.935  19.171  0.00  0.00    +0.000 A 
ATOM      6  C   UNL     1       5.023   4.035  18.033  0.00  0.00    +0.000 A 
ATOM      7  C   UNL     1       5.055   5.206  17.267  0.00  0.00    +0.000 A 
ATOM      8  C   UNL     1       4.233   6.328  17.658  0.00  0.00    +0.000 A 
ATOM      9  C   UNL     1       3.389   6.247  18.833  0.00  0.00    +0.000 A 
ATOM     10  H   UNL     1       2.553   4.468  21.356  0.00  0.00    +0.000 HD
ENDROOT
BRANCH   1  14
ATOM     11  C   UNL     1      -0.133  10.579  18.983  0.00  0.00    +0.000 A 
ATOM     12  C   UNL     1       0.042  10.049  20.283  0.00  0.00    +0.000 A 
ATOM     13  C   UNL     1       0.896   8.930  20.567  0.00  0.00    +0.000 A 
ATOM     14  C   UNL     1       1.611   8.306  19.545  0.00  0.00    +0.000 A 
ATOM     15  C   UNL     1       1.468   8.904  18.257  0.00  0.00    +0.000 A 
ATOM     16  C   UNL     1       0.621   9.989  17.975  0.00  0.00    +0.000 A 
BRANCH  11  18
ATOM     17  C   UNL     1      -0.462  13.050  18.352  0.00  0.00    +0.000 C 
ATOM     18  C   UNL     1      -1.128  11.702  18.672  0.00  0.00    +0.000 C 
ATOM     19  C   UNL     1      -2.087  11.352  17.517  0.00  0.00    +0.000 C 
ENDBRANCH  11  18
ENDBRANCH   1  14
BRANCH   7  20
ATOM     20  C   UNL     1       5.960   5.103  16.107  0.00  0.00    +0.000 A 
ATOM     21  N   UNL     1       5.679   4.460  14.977  0.00  0.00    +0.000 NA
ATOM     22  N   UNL     1       6.728   4.691  14.116  0.00  0.00    +0.000 NA
ATOM     23  N   UNL     1       7.652   5.439  14.697  0.00  0.00    +0.000 NA
ATOM     24  N   UNL     1       7.182   5.681  15.934  0.00  0.00    +0.000 N 
ATOM     25  H   UNL     1       7.726   6.261  16.552  0.00  0.00    +0.000 HD
ENDBRANCH   7  20
TORSDOF 3
ENDMDL
MODEL 5
REMARK VINA RESULT:      -8.4      0.872      1.200
REMARK  Name = 
REMARK  5 active torsions:
REMARK  status: ('A' for Active; 'I' for Inactive)
REMARK    1  A    between atoms: C_1  and  C_2
REMARK    2  A    between atoms: C_2  and  C_3
REMARK    3  A    between atoms: C_2  and  C_4
REMARK    4  A    between atoms: C_7  and  C_8
REMARK    5  A    between atoms: C_14  and  C_15
REMARK                            x       y       z     vdW  Elec       q    Type
REMARK                         _______ _______ _______ _____ _____    ______ ____
ROOT
ATOM      1  C   UNL     1       2.457   6.965  19.515  0.00  0.00    +0.000 A 
ATOM      2  N   UNL     1       2.178   6.218  20.606  0.00  0.00    +0.000 NA
ATOM      3  N   UNL     1       2.844   5.093  20.477  0.00  0.00    +0.000 N 
ATOM      4  C   UNL     1       3.608   5.016  19.363  0.00  0.00    +0.000 A 
ATOM      5  C   UNL     1       4.385   3.944  18.953  0.00  0.00    +0.000 A 
ATOM      6  C   UNL     1       5.123   4.086  17.797  0.00  0.00    +0.000 A 
ATOM      7  C   UNL     1       5.108   5.274  17.058  0.00  0.00    +0.000 A 
ATOM      8  C   UNL     1       4.273   6.369  17.497  0.00  0.00    +0.000 A 
ATOM      9  C   UNL     1       3.466   6.244  18.693  0.00  0.00    +0.000 A 
ATOM     10  H   UNL     1       2.740   4.389  21.197  0.00  0.00    +0.000 HD
ENDROOT
BRANCH   1  14
ATOM     11  C   UNL     1      -0.125  10.502  19.027  0.00  0.00    +0.000 A 
ATOM     12  C   UNL     1       0.048   9.917  20.303  0.00  0.00    +0.000 A 
ATOM     13  C   UNL     1       0.926   8.806  20.544  0.00  0.00    +0.000 A 
ATOM     14  C   UNL     1       1.665   8.246  19.502  0.00  0.00    +0.000 A 
ATOM     15  C   UNL     1       1.521   8.899  18.242  0.00  0.00    +0.000 A 
ATOM     16  C   UNL     1       0.652   9.977  18.000  0.00  0.00    +0.000 A 
BRANCH  11  18
ATOM     17  C   UNL     1      -2.395  11.142  17.998  0.00  0.00    +0.000 C 
ATOM     18  C   UNL     1      -1.144  11.616  18.757  0.00  0.00    +0.000 C 
ATOM     19  C   UNL     1      -1.603  12.335  20.040  0.00  0.00    +0.000 C 
ENDBRANCH  11  18
ENDBRANCH   1  14
BRANCH   7  20
ATOM     20  C   UNL     1       5.981   5.218  15.871  0.00  0.00    +0.000 A 
ATOM     21  N   UNL     1       7.191   5.764  15.788  0.00  0.00    +0.000 NA
ATOM     22  N   UNL     1       7.712   5.397  14.568  0.00  0.00    +0.000 NA
ATOM     23  N   UNL     1       6.845   4.660  13.894  0.00  0.00    +0.000 NA
ATOM     24  N   UNL     1       5.768   4.562  14.695  0.00  0.00    +0.000 N 
ATOM     25  H   UNL     1       4.983   4.016  14.383  0.00  0.00    +0.000 HD
ENDBRANCH   7  20
TORSDOF 3
ENDMDL
MODEL 6
REMARK VINA RESULT:      -8.3      3.361      7.920
REMARK  Name = 
REMARK  5 active torsions:
REMARK  status: ('A' for Active; 'I' for Inactive)
REMARK    1  A    between atoms: C_1  and  C_2
REMARK    2  A    between atoms: C_2  and  C_3
REMARK    3  A    between atoms: C_2  and  C_4
REMARK    4  A    between atoms: C_7  and  C_8
REMARK    5  A    between atoms: C_14  and  C_15
REMARK                            x       y       z     vdW  Elec       q    Type
REMARK                         _______ _______ _______ _____ _____    ______ ____
ROOT
ATOM      1  C   UNL     1       2.832   6.412  18.746  0.00  0.00    +0.000 A 
ATOM      2  N   UNL     1       2.808   5.619  19.841  0.00  0.00    +0.000 NA
ATOM      3  N   UNL     1       2.240   6.313  20.800  0.00  0.00    +0.000 N 
ATOM      4  C   UNL     1       1.830   7.548  20.433  0.00  0.00    +0.000 A 
ATOM      5  C   UNL     1       1.233   8.506  21.239  0.00  0.00    +0.000 A 
ATOM      6  C   UNL     1       0.853   9.696  20.654  0.00  0.00    +0.000 A 
ATOM      7  C   UNL     1       1.045   9.938  19.289  0.00  0.00    +0.000 A 
ATOM      8  C   UNL     1       1.688   8.930  18.477  0.00  0.00    +0.000 A 
ATOM      9  C   UNL     1       2.122   7.679  19.064  0.00  0.00    +0.000 A 
ATOM     10  H   UNL     1       2.154   5.886  21.713  0.00  0.00    +0.000 HD
ENDROOT
BRANCH   1  14
ATOM     11  C   UNL     1       5.412   4.772  15.571  0.00  0.00    +0.000 A 
ATOM     12  C   UNL     1       4.563   3.918  16.312  0.00  0.00    +0.000 A 
ATOM     13  C   UNL     1       3.650   4.393  17.313  0.00  0.00    +0.000 A 
ATOM     14  C   UNL     1       3.558   5.755  17.601  0.00  0.00    +0.000 A 
ATOM     15  C   UNL     1       4.376   6.599  16.791  0.00  0.00    +0.000 A 
ATOM     16  C   UNL     1       5.281   6.134  15.821  0.00  0.00    +0.000 A 
BRANCH  11  18
ATOM     17  C   UNL     1       5.858   3.664  13.293  0.00  0.00    +0.000 C 
ATOM     18  C   UNL     1       6.459   4.248  14.583  0.00  0.00    +0.000 C 
ATOM     19  C   UNL     1       7.500   5.313  14.188  0.00  0.00    +0.000 C 
ENDBRANCH  11  18
ENDBRANCH   1  14
BRANCH   7  20
ATOM     20  C   UNL     1       0.550  11.262  18.870  0.00  0.00    +0.000 A 
ATOM     21  N   UNL     1       1.214  12.405  19.017  0.00  0.00    +0.000 NA
ATOM     22  N   UNL     1       0.464  13.384  18.407  0.00  0.00    +0.000 NA
ATOM     23  N   UNL     1      -0.651  12.874  17.910  0.00  0.00    +0.000 NA
ATOM     24  N   UNL     1      -0.604  11.564  18.210  0.00  0.00    +0.000 N 
ATOM     25  H   UNL     1      -1.356  10.970  17.901  0.00  0.00    +0.000 HD
ENDBRANCH   7  20
TORSDOF 3
ENDMDL
MODEL 7
REMARK VINA RESULT:      -8.3      0.864      1.321
REMARK  Name = 
REMARK  5 active torsions:
REMARK  status: ('A' for Active; 'I' for Inactive)
REMARK    1  A    between atoms: C_1  and  C_2
REMARK    2  A    between atoms: C_2  and  C_3
REMARK    3  A    between atoms: C_2  and  C_4
REMARK    4  A    between atoms: C_7  and  C_8
REMARK    5  A    between atoms: C_14  and  C_15
REMARK                            x       y       z     vdW  Elec       q    Type
REMARK                         _______ _______ _______ _____ _____    ______ ____
ROOT
ATOM      1  C   UNL     1       2.480   7.009  19.351  0.00  0.00    +0.000 A 
ATOM      2  N   UNL     1       2.192   6.322  20.479  0.00  0.00    +0.000 NA
ATOM      3  N   UNL     1       2.867   5.196  20.421  0.00  0.00    +0.000 N 
ATOM      4  C   UNL     1       3.645   5.063  19.322  0.00  0.00    +0.000 A 
ATOM      5  C   UNL     1       4.435   3.975  18.982  0.00  0.00    +0.000 A 
ATOM      6  C   UNL     1       5.185   4.058  17.828  0.00  0.00    +0.000 A 
ATOM      7  C   UNL     1       5.172   5.203  17.024  0.00  0.00    +0.000 A 
ATOM      8  C   UNL     1       4.324   6.315  17.391  0.00  0.00    +0.000 A 
ATOM      9  C   UNL     1       3.503   6.250  18.582  0.00  0.00    +0.000 A 
ATOM     10  H   UNL     1       2.759   4.533  21.178  0.00  0.00    +0.000 HD
ENDROOT
BRANCH   1  14
ATOM     11  C   UNL     1       0.422  10.901  19.533  0.00  0.00    +0.000 A 
ATOM     12  C   UNL     1       0.928  10.420  18.303  0.00  0.00    +0.000 A 
ATOM     13  C   UNL     1       1.549   9.133  18.160  0.00  0.00    +0.000 A 
ATOM     14  C   UNL     1       1.679   8.281  19.257  0.00  0.00    +0.000 A 
ATOM     15  C   UNL     1       1.100   8.765  20.468  0.00  0.00    +0.000 A 
ATOM     16  C   UNL     1       0.505  10.030  20.613  0.00  0.00    +0.000 A 
BRANCH  11  18
ATOM     17  C   UNL     1      -0.575  12.973  18.379  0.00  0.00    +0.000 C 
ATOM     18  C   UNL     1      -0.141  12.317  19.700  0.00  0.00    +0.000 C 
ATOM     19  C   UNL     1      -1.328  12.380  20.681  0.00  0.00    +0.000 C 
ENDBRANCH  11  18
ENDBRANCH   1  14
BRANCH   7  20
ATOM     20  C   UNL     1       6.059   5.087  15.852  0.00  0.00    +0.000 A 
ATOM     21  N   UNL     1       5.798   4.364  14.766  0.00  0.00    +0.000 NA
ATOM     22  N   UNL     1       6.814   4.606  13.871  0.00  0.00    +0.000 NA
ATOM     23  N   UNL     1       7.702   5.439  14.389  0.00  0.00    +0.000 NA
ATOM     24  N   UNL     1       7.241   5.724  15.620  0.00  0.00    +0.000 N 
ATOM     25  H   UNL     1       7.760   6.370  16.192  0.00  0.00    +0.000 HD
ENDBRANCH   7  20
TORSDOF 3
ENDMDL
MODEL 8
REMARK VINA RESULT:      -8.2      0.750      1.445
REMARK  Name = 
REMARK  5 active torsions:
REMARK  status: ('A' for Active; 'I' for Inactive)
REMARK    1  A    between atoms: C_1  and  C_2
REMARK    2  A    between atoms: C_2  and  C_3
REMARK    3  A    between atoms: C_2  and  C_4
REMARK    4  A    between atoms: C_7  and  C_8
REMARK    5  A    between atoms: C_14  and  C_15
REMARK                            x       y       z     vdW  Elec       q    Type
REMARK                         _______ _______ _______ _____ _____    ______ ____
ROOT
ATOM      1  C   UNL     1       2.617   6.627  18.818  0.00  0.00    +0.000 A 
ATOM      2  N   UNL     1       2.186   5.792  19.790  0.00  0.00    +0.000 NA
ATOM      3  N   UNL     1       2.750   4.627  19.567  0.00  0.00    +0.000 N 
ATOM      4  C   UNL     1       3.585   4.600  18.504  0.00  0.00    +0.000 A 
ATOM      5  C   UNL     1       4.287   3.508  18.017  0.00  0.00    +0.000 A 
ATOM      6  C   UNL     1       5.121   3.705  16.937  0.00  0.00    +0.000 A 
ATOM      7  C   UNL     1       5.275   4.966  16.348  0.00  0.00    +0.000 A 
ATOM      8  C   UNL     1       4.516   6.083  16.863  0.00  0.00    +0.000 A 
ATOM      9  C   UNL     1       3.612   5.905  17.981  0.00  0.00    +0.000 A 
ATOM     10  H   UNL     1       2.525   3.860  20.188  0.00  0.00    +0.000 HD
ENDROOT
BRANCH   1  14
ATOM     11  C   UNL     1       0.972  10.647  19.563  0.00  0.00    +0.000 A 
ATOM     12  C   UNL     1       1.433  10.293  18.273  0.00  0.00    +0.000 A 
ATOM     13  C   UNL     1       1.919   8.982  17.945  0.00  0.00    +0.000 A 
ATOM     14  C   UNL     1       1.953   7.976  18.911  0.00  0.00    +0.000 A 
ATOM     15  C   UNL     1       1.418   8.342  20.183  0.00  0.00    +0.000 A 
ATOM     16  C   UNL     1       0.956   9.628  20.509  0.00  0.00    +0.000 A 
BRANCH  11  18
ATOM     17  C   UNL     1       1.698  12.918  20.528  0.00  0.00    +0.000 C 
ATOM     18  C   UNL     1       0.557  12.075  19.932  0.00  0.00    +0.000 C 
ATOM     19  C   UNL     1      -0.047  12.853  18.746  0.00  0.00    +0.000 C 
ENDBRANCH  11  18
ENDBRANCH   1  14
BRANCH   7  20
ATOM     20  C   UNL     1       6.226   4.956  15.222  0.00  0.00    +0.000 A 
ATOM     21  N   UNL     1       6.047   4.301  14.078  0.00  0.00    +0.000 NA
ATOM     22  N   UNL     1       7.100   4.635  13.258  0.00  0.00    +0.000 NA
ATOM     23  N   UNL     1       7.931   5.458  13.877  0.00  0.00    +0.000 NA
ATOM     24  N   UNL     1       7.396   5.644  15.098  0.00  0.00    +0.000 N 
ATOM     25  H   UNL     1       7.862   6.265  15.739  0.00  0.00    +0.000 HD
ENDBRANCH   7  20
TORSDOF 3
ENDMDL
MODEL 9
REMARK VINA RESULT:      -8.1      0.825      1.624
REMARK  Name = 
REMARK  5 active torsions:
REMARK  status: ('A' for Active; 'I' for Inactive)
REMARK    1  A    between atoms: C_1  and  C_2
REMARK    2  A    between atoms: C_2  and  C_3
REMARK    3  A    between atoms: C_2  and  C_4
REMARK    4  A    between atoms: C_7  and  C_8
REMARK    5  A    between atoms: C_14  and  C_15
REMARK                            x       y       z     vdW  Elec       q    Type
REMARK                         _______ _______ _______ _____ _____    ______ ____
ROOT
ATOM      1  C   UNL     1       2.439   6.803  19.349  0.00  0.00    +0.000 A 
ATOM      2  N   UNL     1       2.033   5.954  20.319  0.00  0.00    +0.000 NA
ATOM      3  N   UNL     1       2.605   4.797  20.076  0.00  0.00    +0.000 N 
ATOM      4  C   UNL     1       3.424   4.790  19.000  0.00  0.00    +0.000 A 
ATOM      5  C   UNL     1       4.129   3.709  18.491  0.00  0.00    +0.000 A 
ATOM      6  C   UNL     1       4.943   3.926  17.400  0.00  0.00    +0.000 A 
ATOM      7  C   UNL     1       5.075   5.193  16.822  0.00  0.00    +0.000 A 
ATOM      8  C   UNL     1       4.313   6.298  17.359  0.00  0.00    +0.000 A 
ATOM      9  C   UNL     1       3.428   6.099  18.489  0.00  0.00    +0.000 A 
ATOM     10  H   UNL     1       2.398   4.022  20.693  0.00  0.00    +0.000 HD
ENDROOT
BRANCH   1  14
ATOM     11  C   UNL     1       0.793  10.814  20.136  0.00  0.00    +0.000 A 
ATOM     12  C   UNL     1       1.158  10.439  18.822  0.00  0.00    +0.000 A 
ATOM     13  C   UNL     1       1.639   9.128  18.485  0.00  0.00    +0.000 A 
ATOM     14  C   UNL     1       1.763   8.144  19.465  0.00  0.00    +0.000 A 
ATOM     15  C   UNL     1       1.323   8.530  20.767  0.00  0.00    +0.000 A 
ATOM     16  C   UNL     1       0.867   9.816  21.102  0.00  0.00    +0.000 A 
BRANCH  11  18
ATOM     17  C   UNL     1      -0.515  12.330  21.751  0.00  0.00    +0.000 C 
ATOM     18  C   UNL     1       0.385  12.244  20.507  0.00  0.00    +0.000 C 
ATOM     19  C   UNL     1       1.593  13.177  20.723  0.00  0.00    +0.000 C 
ENDBRANCH  11  18
ENDBRANCH   1  14
BRANCH   7  20
ATOM     20  C   UNL     1       6.009   5.205  15.680  0.00  0.00    +0.000 A 
ATOM     21  N   UNL     1       7.221   5.752  15.693  0.00  0.00    +0.000 NA
ATOM     22  N   UNL     1       7.805   5.457  14.482  0.00  0.00    +0.000 NA
ATOM     23  N   UNL     1       6.974   4.762  13.722  0.00  0.00    +0.000 NA
ATOM     24  N   UNL     1       5.858   4.620  14.458  0.00  0.00    +0.000 N 
ATOM     25  H   UNL     1       5.089   4.095  14.074  0.00  0.00    +0.000 HD
ENDBRANCH   7  20
TORSDOF 3
ENDMDL
