MODEL 1
REMARK VINA RESULT:      -7.1      0.000      0.000
REMARK  Name = 
REMARK  3 active torsions:
REMARK  status: ('A' for Active; 'I' for Inactive)
REMARK    1  A    between atoms: C_1  and  C_2
REMARK    2  A    between atoms: C_14  and  C_15
REMARK    3  A    between atoms: C_17  and  C_18
REMARK                            x       y       z     vdW  Elec       q    Type
REMARK                         _______ _______ _______ _____ _____    ______ ____
ROOT
ATOM      1  C   UNL     1       1.675   7.835  20.348  0.00  0.00    +0.000 C 
ATOM      2  C   UNL     1       2.245   6.526  19.905  0.00  0.00    +0.000 A 
ATOM      3  S   UNL     1       1.904   5.123  20.809  0.00  0.00    +0.000 S 
ATOM      4  C   UNL     1       2.815   4.144  19.764  0.00  0.00    +0.000 A 
ATOM      5  N   UNL     1       2.872   2.825  20.003  0.00  0.00    +0.000 NA
ATOM      6  C   UNL     1       3.610   2.183  19.105  0.00  0.00    +0.000 A 
ATOM      7  N   UNL     1       4.279   2.716  18.078  0.00  0.00    +0.000 NA
ATOM      8  C   UNL     1       4.239   4.060  17.864  0.00  0.00    +0.000 A 
ATOM      9  N   UNL     1       4.988   4.574  16.783  0.00  0.00    +0.000 N 
ATOM     10  C   UNL     1       5.256   3.552  15.750  0.00  0.00    +0.000 C 
ATOM     11  C   UNL     1       5.831   4.215  14.499  0.00  0.00    +0.000 C 
ATOM     12  C   UNL     1       7.071   5.034  14.826  0.00  0.00    +0.000 C 
ATOM     13  C   UNL     1       6.775   6.032  15.946  0.00  0.00    +0.000 C 
ATOM     14  C   UNL     1       6.172   5.363  17.196  0.00  0.00    +0.000 C 
ATOM     15  C   UNL     1       7.221   4.546  17.960  0.00  0.00    +0.000 C 
ATOM     16  C   UNL     1       3.429   4.847  18.735  0.00  0.00    +0.000 A 
ATOM     17  C   UNL     1       3.043   6.257  18.796  0.00  0.00    +0.000 A 
ATOM     18  C   UNL     1       3.431   7.311  17.807  0.00  0.00    +0.000 C 
ENDROOT
TORSDOF 0
ENDMDL
MODEL 2
REMARK VINA RESULT:      -6.9      2.499      5.515
REMARK  Name = 
REMARK  3 active torsions:
REMARK  status: ('A' for Active; 'I' for Inactive)
REMARK    1  A    between atoms: C_1  and  C_2
REMARK    2  A    between atoms: C_14  and  C_15
REMARK    3  A    between atoms: C_17  and  C_18
REMARK                            x       y       z     vdW  Elec       q    Type
REMARK                         _______ _______ _______ _____ _____    ______ ____
ROOT
ATOM      1  C   UNL     1       5.616   3.775  13.723  0.00  0.00    +0.000 C 
ATOM      2  C   UNL     1       5.765   4.166  15.158  0.00  0.00    +0.000 A 
ATOM      3  S   UNL     1       7.242   4.827  15.689  0.00  0.00    +0.000 S 
ATOM      4  C   UNL     1       6.673   5.001  17.279  0.00  0.00    +0.000 A 
ATOM      5  N   UNL     1       7.483   5.549  18.197  0.00  0.00    +0.000 NA
ATOM      6  C   UNL     1       6.907   5.630  19.391  0.00  0.00    +0.000 A 
ATOM      7  N   UNL     1       5.685   5.207  19.729  0.00  0.00    +0.000 NA
ATOM      8  C   UNL     1       4.883   4.624  18.796  0.00  0.00    +0.000 A 
ATOM      9  N   UNL     1       3.615   4.168  19.214  0.00  0.00    +0.000 N 
ATOM     10  C   UNL     1       3.144   4.858  20.432  0.00  0.00    +0.000 C 
ATOM     11  C   UNL     1       1.675   4.522  20.687  0.00  0.00    +0.000 C 
ATOM     12  C   UNL     1       1.456   3.018  20.764  0.00  0.00    +0.000 C 
ATOM     13  C   UNL     1       2.018   2.330  19.519  0.00  0.00    +0.000 C 
ATOM     14  C   UNL     1       3.491   2.692  19.252  0.00  0.00    +0.000 C 
ATOM     15  C   UNL     1       4.429   2.020  20.264  0.00  0.00    +0.000 C 
ATOM     16  C   UNL     1       5.377   4.533  17.461  0.00  0.00    +0.000 A 
ATOM     17  C   UNL     1       4.825   4.085  16.181  0.00  0.00    +0.000 A 
ATOM     18  C   UNL     1       3.428   3.599  15.958  0.00  0.00    +0.000 C 
ENDROOT
TORSDOF 0
ENDMDL
MODEL 3
REMARK VINA RESULT:      -6.7      1.231      1.552
REMARK  Name = 
REMARK  3 active torsions:
REMARK  status: ('A' for Active; 'I' for Inactive)
REMARK    1  A    between atoms: C_1  and  C_2
REMARK    2  A    between atoms: C_14  and  C_15
REMARK    3  A    between atoms: C_17  and  C_18
REMARK                            x       y       z     vdW  Elec       q    Type
REMARK                         _______ _______ _______ _____ _____    ______ ____
ROOT
ATOM      1  C   UNL     1       1.184   9.529  19.477  0.00  0.00    +0.000 C 
ATOM      2  C   UNL     1       1.713   8.133  19.565  0.00  0.00    +0.000 A 
ATOM      3  S   UNL     1       1.219   7.139  20.857  0.00  0.00    +0.000 S 
ATOM      4  C   UNL     1       2.155   5.836  20.304  0.00  0.00    +0.000 A 
ATOM      5  N   UNL     1       2.117   4.680  20.984  0.00  0.00    +0.000 NA
ATOM      6  C   UNL     1       2.889   3.749  20.435  0.00  0.00    +0.000 A 
ATOM      7  N   UNL     1       3.668   3.877  19.358  0.00  0.00    +0.000 NA
ATOM      8  C   UNL     1       3.723   5.064  18.693  0.00  0.00    +0.000 A 
ATOM      9  N   UNL     1       4.586   5.153  17.580  0.00  0.00    +0.000 N 
ATOM     10  C   UNL     1       4.879   3.831  16.990  0.00  0.00    +0.000 C 
ATOM     11  C   UNL     1       5.592   4.005  15.649  0.00  0.00    +0.000 C 
ATOM     12  C   UNL     1       6.846   4.855  15.795  0.00  0.00    +0.000 C 
ATOM     13  C   UNL     1       6.516   6.186  16.472  0.00  0.00    +0.000 C 
ATOM     14  C   UNL     1       5.775   6.006  17.811  0.00  0.00    +0.000 C 
ATOM     15  C   UNL     1       6.710   5.478  18.906  0.00  0.00    +0.000 C 
ATOM     16  C   UNL     1       2.891   6.124  19.161  0.00  0.00    +0.000 A 
ATOM     17  C   UNL     1       2.582   7.478  18.698  0.00  0.00    +0.000 A 
ATOM     18  C   UNL     1       3.109   8.114  17.450  0.00  0.00    +0.000 C 
ENDROOT
TORSDOF 0
ENDMDL
MODEL 4
REMARK VINA RESULT:      -5.9      2.469      4.957
REMARK  Name = 
REMARK  3 active torsions:
REMARK  status: ('A' for Active; 'I' for Inactive)
REMARK    1  A    between atoms: C_1  and  C_2
REMARK    2  A    between atoms: C_14  and  C_15
REMARK    3  A    between atoms: C_17  and  C_18
REMARK                            x       y       z     vdW  Elec       q    Type
REMARK                         _______ _______ _______ _____ _____    ______ ____
ROOT
ATOM      1  C   UNL     1       0.669  10.143  19.847  0.00  0.00    +0.000 C 
ATOM      2  C   UNL     1       1.523   9.056  19.276  0.00  0.00    +0.000 A 
ATOM      3  S   UNL     1       2.428   9.366  17.867  0.00  0.00    +0.000 S 
ATOM      4  C   UNL     1       3.076   7.797  17.855  0.00  0.00    +0.000 A 
ATOM      5  N   UNL     1       3.956   7.471  16.896  0.00  0.00    +0.000 NA
ATOM      6  C   UNL     1       4.384   6.219  17.012  0.00  0.00    +0.000 A 
ATOM      7  N   UNL     1       4.009   5.318  17.924  0.00  0.00    +0.000 NA
ATOM      8  C   UNL     1       3.092   5.651  18.875  0.00  0.00    +0.000 A 
ATOM      9  N   UNL     1       2.709   4.652  19.794  0.00  0.00    +0.000 N 
ATOM     10  C   UNL     1       3.727   3.590  19.926  0.00  0.00    +0.000 C 
ATOM     11  C   UNL     1       3.388   2.686  21.112  0.00  0.00    +0.000 C 
ATOM     12  C   UNL     1       1.982   2.116  20.989  0.00  0.00    +0.000 C 
ATOM     13  C   UNL     1       0.964   3.238  20.784  0.00  0.00    +0.000 C 
ATOM     14  C   UNL     1       1.324   4.161  19.604  0.00  0.00    +0.000 C 
ATOM     15  C   UNL     1       1.095   3.467  18.255  0.00  0.00    +0.000 C 
ATOM     16  C   UNL     1       2.601   6.990  18.881  0.00  0.00    +0.000 A 
ATOM     17  C   UNL     1       1.716   7.764  19.753  0.00  0.00    +0.000 A 
ATOM     18  C   UNL     1       1.082   7.265  21.014  0.00  0.00    +0.000 C 
ENDROOT
TORSDOF 0
ENDMDL
MODEL 5
REMARK VINA RESULT:      -5.6      2.065      4.868
REMARK  Name = 
REMARK  3 active torsions:
REMARK  status: ('A' for Active; 'I' for Inactive)
REMARK    1  A    between atoms: C_1  and  C_2
REMARK    2  A    between atoms: C_14  and  C_15
REMARK    3  A    between atoms: C_17  and  C_18
REMARK                            x       y       z     vdW  Elec       q    Type
REMARK                         _______ _______ _______ _____ _____    ______ ____
ROOT
ATOM      1  C   UNL     1       2.455   9.389  17.852  0.00  0.00    +0.000 C 
ATOM      2  C   UNL     1       3.033   8.011  17.777  0.00  0.00    +0.000 A 
ATOM      3  S   UNL     1       4.092   7.624  16.500  0.00  0.00    +0.000 S 
ATOM      4  C   UNL     1       4.301   6.037  17.062  0.00  0.00    +0.000 A 
ATOM      5  N   UNL     1       5.132   5.221  16.396  0.00  0.00    +0.000 NA
ATOM      6  C   UNL     1       5.205   4.016  16.950  0.00  0.00    +0.000 A 
ATOM      7  N   UNL     1       4.536   3.577  18.020  0.00  0.00    +0.000 NA
ATOM      8  C   UNL     1       3.672   4.404  18.670  0.00  0.00    +0.000 A 
ATOM      9  N   UNL     1       2.969   3.879  19.776  0.00  0.00    +0.000 N 
ATOM     10  C   UNL     1       3.657   2.720  20.379  0.00  0.00    +0.000 C 
ATOM     11  C   UNL     1       3.002   2.361  21.713  0.00  0.00    +0.000 C 
ATOM     12  C   UNL     1       1.510   2.115  21.549  0.00  0.00    +0.000 C 
ATOM     13  C   UNL     1       0.842   3.306  20.858  0.00  0.00    +0.000 C 
ATOM     14  C   UNL     1       1.522   3.680  19.527  0.00  0.00    +0.000 C 
ATOM     15  C   UNL     1       1.221   2.650  18.432  0.00  0.00    +0.000 C 
ATOM     16  C   UNL     1       3.553   5.744  18.196  0.00  0.00    +0.000 A 
ATOM     17  C   UNL     1       2.841   6.941  18.645  0.00  0.00    +0.000 A 
ATOM     18  C   UNL     1       2.004   7.045  19.882  0.00  0.00    +0.000 C 
ENDROOT
TORSDOF 0
ENDMDL
MODEL 6
REMARK VINA RESULT:      -5.5      9.527     10.584
REMARK  Name = 
REMARK  3 active torsions:
REMARK  status: ('A' for Active; 'I' for Inactive)
REMARK    1  A    between atoms: C_1  and  C_2
REMARK    2  A    between atoms: C_14  and  C_15
REMARK    3  A    between atoms: C_17  and  C_18
REMARK                            x       y       z     vdW  Elec       q    Type
REMARK                         _______ _______ _______ _____ _____    ______ ____
ROOT
ATOM      1  C   UNL     1       7.815  11.745  24.012  0.00  0.00    +0.000 C 
ATOM      2  C   UNL     1       7.654  12.721  22.890  0.00  0.00    +0.000 A 
ATOM      3  S   UNL     1       6.321  13.781  22.896  0.00  0.00    +0.000 S 
ATOM      4  C   UNL     1       6.802  14.506  21.439  0.00  0.00    +0.000 A 
ATOM      5  N   UNL     1       6.068  15.516  20.949  0.00  0.00    +0.000 NA
ATOM      6  C   UNL     1       6.563  15.990  19.811  0.00  0.00    +0.000 A 
ATOM      7  N   UNL     1       7.637  15.549  19.150  0.00  0.00    +0.000 NA
ATOM      8  C   UNL     1       8.357  14.503  19.642  0.00  0.00    +0.000 A 
ATOM      9  N   UNL     1       9.463  14.058  18.888  0.00  0.00    +0.000 N 
ATOM     10  C   UNL     1       9.986  15.104  17.986  0.00  0.00    +0.000 C 
ATOM     11  C   UNL     1      11.327  14.664  17.398  0.00  0.00    +0.000 C 
ATOM     12  C   UNL     1      11.209  13.317  16.700  0.00  0.00    +0.000 C 
ATOM     13  C   UNL     1      10.600  12.276  17.640  0.00  0.00    +0.000 C 
ATOM     14  C   UNL     1       9.262  12.735  18.251  0.00  0.00    +0.000 C 
ATOM     15  C   UNL     1       8.133  12.717  17.212  0.00  0.00    +0.000 C 
ATOM     16  C   UNL     1       7.950  13.946  20.890  0.00  0.00    +0.000 A 
ATOM     17  C   UNL     1       8.480  12.918  21.787  0.00  0.00    +0.000 A 
ATOM     18  C   UNL     1       9.751  12.155  21.583  0.00  0.00    +0.000 C 
ENDROOT
TORSDOF 0
ENDMDL
MODEL 7
REMARK VINA RESULT:      -5.3      8.622     10.560
REMARK  Name = 
REMARK  3 active torsions:
REMARK  status: ('A' for Active; 'I' for Inactive)
REMARK    1  A    between atoms: C_1  and  C_2
REMARK    2  A    between atoms: C_14  and  C_15
REMARK    3  A    between atoms: C_17  and  C_18
REMARK                            x       y       z     vdW  Elec       q    Type
REMARK                         _______ _______ _______ _____ _____    ______ ____
ROOT
ATOM      1  C   UNL     1      -7.057  12.274  20.648  0.00  0.00    +0.000 C 
ATOM      2  C   UNL     1      -5.916  12.027  19.713  0.00  0.00    +0.000 A 
ATOM      3  S   UNL     1      -6.215  11.254  18.225  0.00  0.00    +0.000 S 
ATOM      4  C   UNL     1      -4.581  11.337  17.774  0.00  0.00    +0.000 A 
ATOM      5  N   UNL     1      -4.219  10.862  16.573  0.00  0.00    +0.000 NA
ATOM      6  C   UNL     1      -2.917  10.998  16.351  0.00  0.00    +0.000 A 
ATOM      7  N   UNL     1      -2.003  11.503  17.184  0.00  0.00    +0.000 NA
ATOM      8  C   UNL     1      -2.377  11.954  18.413  0.00  0.00    +0.000 A 
ATOM      9  N   UNL     1      -1.367  12.449  19.265  0.00  0.00    +0.000 N 
ATOM     10  C   UNL     1      -0.173  12.897  18.519  0.00  0.00    +0.000 C 
ATOM     11  C   UNL     1       0.769  13.659  19.451  0.00  0.00    +0.000 C 
ATOM     12  C   UNL     1       1.138  12.823  20.668  0.00  0.00    +0.000 C 
ATOM     13  C   UNL     1      -0.121  12.319  21.375  0.00  0.00    +0.000 C 
ATOM     14  C   UNL     1      -1.079  11.575  20.426  0.00  0.00    +0.000 C 
ATOM     15  C   UNL     1      -0.531  10.196  20.038  0.00  0.00    +0.000 C 
ATOM     16  C   UNL     1      -3.764  11.909  18.742  0.00  0.00    +0.000 A 
ATOM     17  C   UNL     1      -4.575  12.364  19.872  0.00  0.00    +0.000 A 
ATOM     18  C   UNL     1      -4.066  13.108  21.067  0.00  0.00    +0.000 C 
ENDROOT
TORSDOF 0
ENDMDL
MODEL 8
REMARK VINA RESULT:      -5.3      5.984      8.394
REMARK  Name = 
REMARK  3 active torsions:
REMARK  status: ('A' for Active; 'I' for Inactive)
REMARK    1  A    between atoms: C_1  and  C_2
REMARK    2  A    between atoms: C_14  and  C_15
REMARK    3  A    between atoms: C_17  and  C_18
REMARK                            x       y       z     vdW  Elec       q    Type
REMARK                         _______ _______ _______ _____ _____    ______ ____
ROOT
ATOM      1  C   UNL     1      -4.750  11.791  17.634  0.00  0.00    +0.000 C 
ATOM      2  C   UNL     1      -3.618  11.756  18.611  0.00  0.00    +0.000 A 
ATOM      3  S   UNL     1      -3.604  12.864  19.905  0.00  0.00    +0.000 S 
ATOM      4  C   UNL     1      -2.144  12.244  20.511  0.00  0.00    +0.000 A 
ATOM      5  N   UNL     1      -1.639  12.770  21.637  0.00  0.00    +0.000 NA
ATOM      6  C   UNL     1      -0.502  12.186  21.997  0.00  0.00    +0.000 A 
ATOM      7  N   UNL     1       0.145  11.210  21.354  0.00  0.00    +0.000 NA
ATOM      8  C   UNL     1      -0.362  10.705  20.195  0.00  0.00    +0.000 A 
ATOM      9  N   UNL     1       0.378   9.697  19.541  0.00  0.00    +0.000 N 
ATOM     10  C   UNL     1       1.284   8.979  20.461  0.00  0.00    +0.000 C 
ATOM     11  C   UNL     1       1.857   7.742  19.769  0.00  0.00    +0.000 C 
ATOM     12  C   UNL     1       2.545   8.108  18.461  0.00  0.00    +0.000 C 
ATOM     13  C   UNL     1       1.601   8.909  17.564  0.00  0.00    +0.000 C 
ATOM     14  C   UNL     1       1.006  10.141  18.275  0.00  0.00    +0.000 C 
ATOM     15  C   UNL     1       2.055  11.245  18.460  0.00  0.00    +0.000 C 
ATOM     16  C   UNL     1      -1.611  11.219  19.738  0.00  0.00    +0.000 A 
ATOM     17  C   UNL     1      -2.521  10.900  18.638  0.00  0.00    +0.000 A 
ATOM     18  C   UNL     1      -2.335   9.794  17.646  0.00  0.00    +0.000 C 
ENDROOT
TORSDOF 0
ENDMDL
MODEL 9
REMARK VINA RESULT:      -5.2      9.009     10.430
REMARK  Name = 
REMARK  3 active torsions:
REMARK  status: ('A' for Active; 'I' for Inactive)
REMARK    1  A    between atoms: C_1  and  C_2
REMARK    2  A    between atoms: C_14  and  C_15
REMARK    3  A    between atoms: C_17  and  C_18
REMARK                            x       y       z     vdW  Elec       q    Type
REMARK                         _______ _______ _______ _____ _____    ______ ____
ROOT
ATOM      1  C   UNL     1       7.086  14.641  24.027  0.00  0.00    +0.000 C 
ATOM      2  C   UNL     1       7.127  14.623  22.532  0.00  0.00    +0.000 A 
ATOM      3  S   UNL     1       5.763  15.148  21.658  0.00  0.00    +0.000 S 
ATOM      4  C   UNL     1       6.522  14.860  20.167  0.00  0.00    +0.000 A 
ATOM      5  N   UNL     1       5.857  15.153  19.039  0.00  0.00    +0.000 NA
ATOM      6  C   UNL     1       6.571  14.884  17.951  0.00  0.00    +0.000 A 
ATOM      7  N   UNL     1       7.796  14.353  17.899  0.00  0.00    +0.000 NA
ATOM      8  C   UNL     1       8.449  14.032  19.051  0.00  0.00    +0.000 A 
ATOM      9  N   UNL     1       9.727  13.445  18.937  0.00  0.00    +0.000 N 
ATOM     10  C   UNL     1      10.376  13.759  17.647  0.00  0.00    +0.000 C 
ATOM     11  C   UNL     1      11.843  13.328  17.683  0.00  0.00    +0.000 C 
ATOM     12  C   UNL     1      11.979  11.857  18.046  0.00  0.00    +0.000 C 
ATOM     13  C   UNL     1      11.237  11.555  19.349  0.00  0.00    +0.000 C 
ATOM     14  C   UNL     1       9.767  12.014  19.318  0.00  0.00    +0.000 C 
ATOM     15  C   UNL     1       8.914  11.112  18.416  0.00  0.00    +0.000 C 
ATOM     16  C   UNL     1       7.800  14.327  20.285  0.00  0.00    +0.000 A 
ATOM     17  C   UNL     1       8.172  14.238  21.698  0.00  0.00    +0.000 A 
ATOM     18  C   UNL     1       9.503  13.797  22.222  0.00  0.00    +0.000 C 
ENDROOT
TORSDOF 0
ENDMDL
