MODEL 1
REMARK VINA RESULT:      -7.1      0.000      0.000
REMARK  Name = 
REMARK  6 active torsions:
REMARK  status: ('A' for Active; 'I' for Inactive)
REMARK    1  A    between atoms: C_1  and  S_2
REMARK    2  A    between atoms: S_2  and  C_3
REMARK    3  A    between atoms: C_3  and  C_4
REMARK    4  A    between atoms: C_4  and  C_5
REMARK    5  A    between atoms: C_9  and  C_10
REMARK    6  A    between atoms: C_10  and  C_11
REMARK                            x       y       z     vdW  Elec       q    Type
REMARK                         _______ _______ _______ _____ _____    ______ ____
ROOT
ATOM      1  C   UNL     1       1.716   8.690  18.193  0.00  0.00    +0.000 C 
ATOM      2  N   UNL     1       0.860   8.631  19.367  0.00  0.00    +0.000 N 
ATOM      3  C   UNL     1       1.485   8.321  20.559  0.00  0.00    +0.000 C 
ATOM      4  O   UNL     1       1.327   9.013  21.553  0.00  0.00    +0.000 OA
ATOM      5  C   UNL     1       2.171   6.969  20.556  0.00  0.00    +0.000 C 
ATOM      6  N   UNL     1       3.041   6.878  19.303  0.00  0.00    +0.000 N 
ATOM      7  C   UNL     1       2.690   7.518  18.116  0.00  0.00    +0.000 A 
ATOM      8  N   UNL     1       3.268   7.322  16.976  0.00  0.00    +0.000 NA
ATOM      9  C   UNL     1       4.391   6.499  16.919  0.00  0.00    +0.000 A 
ATOM     10  C   UNL     1       5.126   6.489  15.720  0.00  0.00    +0.000 A 
ATOM     11  C   UNL     1       6.338   5.790  15.614  0.00  0.00    +0.000 A 
ATOM     12  C   UNL     1       6.812   5.110  16.738  0.00  0.00    +0.000 A 
ATOM     13  C   UNL     1       6.095   5.138  17.949  0.00  0.00    +0.000 A 
ATOM     14  C   UNL     1       4.896   5.848  18.041  0.00  0.00    +0.000 A 
ATOM     15  C   UNL     1       4.111   5.973  19.300  0.00  0.00    +0.000 A 
ATOM     16  O   UNL     1       4.441   5.295  20.272  0.00  0.00    +0.000 OA
ATOM     17  H   UNL     1       0.258   9.439  19.470  0.00  0.00    +0.000 HD
ENDROOT
BRANCH   1  18
ATOM     18  C   UNL     1       2.465  10.044  18.175  0.00  0.00    +0.000 C 
BRANCH  18  19
ATOM     19  C   UNL     1       1.649  11.270  18.607  0.00  0.00    +0.000 C 
BRANCH  19  21
ATOM     20  C   UNL     1       2.345  13.711  19.737  0.00  0.00    +0.000 C 
ATOM     21  S   UNL     1       2.595  12.783  18.202  0.00  0.00    +0.000 S 
ENDBRANCH  19  21
ENDBRANCH  18  19
ENDBRANCH   1  18
BRANCH   5  22
ATOM     22  C   UNL     1       1.068   5.882  20.637  0.00  0.00    +0.000 C 
BRANCH  22  23
ATOM     23  C   UNL     1       1.273   4.392  20.287  0.00  0.00    +0.000 A 
ATOM     24  C   UNL     1       1.442   3.472  21.321  0.00  0.00    +0.000 A 
ATOM     25  N   UNL     1       1.621   2.242  20.760  0.00  0.00    +0.000 N 
ATOM     26  C   UNL     1       2.233   2.442  19.554  0.00  0.00    +0.000 A 
ATOM     27  C   UNL     1       3.132   1.628  18.853  0.00  0.00    +0.000 A 
ATOM     28  C   UNL     1       3.385   1.963  17.530  0.00  0.00    +0.000 A 
ATOM     29  C   UNL     1       2.657   2.985  16.930  0.00  0.00    +0.000 A 
ATOM     30  C   UNL     1       1.818   3.838  17.689  0.00  0.00    +0.000 A 
ATOM     31  C   UNL     1       1.693   3.649  19.084  0.00  0.00    +0.000 A 
ATOM     32  H   UNL     1       0.992   1.465  20.917  0.00  0.00    +0.000 HD
ENDBRANCH  22  23
ENDBRANCH   5  22
TORSDOF 5
ENDMDL
MODEL 2
REMARK VINA RESULT:      -7.0      3.692      7.042
REMARK  Name = 
REMARK  6 active torsions:
REMARK  status: ('A' for Active; 'I' for Inactive)
REMARK    1  A    between atoms: C_1  and  S_2
REMARK    2  A    between atoms: S_2  and  C_3
REMARK    3  A    between atoms: C_3  and  C_4
REMARK    4  A    between atoms: C_4  and  C_5
REMARK    5  A    between atoms: C_9  and  C_10
REMARK    6  A    between atoms: C_10  and  C_11
REMARK                            x       y       z     vdW  Elec       q    Type
REMARK                         _______ _______ _______ _____ _____    ______ ____
ROOT
ATOM      1  C   UNL     1       0.121  13.130  20.189  0.00  0.00    +0.000 C 
ATOM      2  N   UNL     1       1.419  12.489  20.047  0.00  0.00    +0.000 N 
ATOM      3  C   UNL     1       1.662  11.872  18.836  0.00  0.00    +0.000 C 
ATOM      4  O   UNL     1       2.680  12.106  18.202  0.00  0.00    +0.000 OA
ATOM      5  C   UNL     1       0.683  10.761  18.508  0.00  0.00    +0.000 C 
ATOM      6  N   UNL     1      -0.733  11.298  18.712  0.00  0.00    +0.000 N 
ATOM      7  C   UNL     1      -1.023  12.261  19.676  0.00  0.00    +0.000 A 
ATOM      8  N   UNL     1      -2.217  12.609  20.032  0.00  0.00    +0.000 NA
ATOM      9  C   UNL     1      -3.309  12.076  19.350  0.00  0.00    +0.000 A 
ATOM     10  C   UNL     1      -4.570  12.642  19.607  0.00  0.00    +0.000 A 
ATOM     11  C   UNL     1      -5.704  12.256  18.876  0.00  0.00    +0.000 A 
ATOM     12  C   UNL     1      -5.551  11.301  17.869  0.00  0.00    +0.000 A 
ATOM     13  C   UNL     1      -4.286  10.750  17.589  0.00  0.00    +0.000 A 
ATOM     14  C   UNL     1      -3.166  11.153  18.319  0.00  0.00    +0.000 A 
ATOM     15  C   UNL     1      -1.788  10.661  18.044  0.00  0.00    +0.000 A 
ATOM     16  O   UNL     1      -1.638   9.738  17.244  0.00  0.00    +0.000 OA
ATOM     17  H   UNL     1       2.194  13.083  20.317  0.00  0.00    +0.000 HD
ENDROOT
BRANCH   1  18
ATOM     18  C   UNL     1       0.148  14.503  19.473  0.00  0.00    +0.000 C 
BRANCH  18  19
ATOM     19  C   UNL     1       1.282  15.453  19.884  0.00  0.00    +0.000 C 
BRANCH  19  21
ATOM     20  C   UNL     1       3.278  15.681  17.965  0.00  0.00    +0.000 C 
ATOM     21  S   UNL     1       1.732  16.492  18.446  0.00  0.00    +0.000 S 
ENDBRANCH  19  21
ENDBRANCH  18  19
ENDBRANCH   1  18
BRANCH   5  22
ATOM     22  C   UNL     1       1.033   9.547  19.408  0.00  0.00    +0.000 C 
BRANCH  22  23
ATOM     23  C   UNL     1       1.977   8.394  19.003  0.00  0.00    +0.000 A 
ATOM     24  C   UNL     1       2.638   8.463  17.776  0.00  0.00    +0.000 A 
ATOM     25  N   UNL     1       3.388   7.332  17.644  0.00  0.00    +0.000 N 
ATOM     26  C   UNL     1       2.732   6.339  18.318  0.00  0.00    +0.000 A 
ATOM     27  C   UNL     1       2.683   4.961  18.072  0.00  0.00    +0.000 A 
ATOM     28  C   UNL     1       2.154   4.161  19.075  0.00  0.00    +0.000 A 
ATOM     29  C   UNL     1       1.823   4.727  20.302  0.00  0.00    +0.000 A 
ATOM     30  C   UNL     1       1.808   6.132  20.487  0.00  0.00    +0.000 A 
ATOM     31  C   UNL     1       2.150   6.990  19.417  0.00  0.00    +0.000 A 
ATOM     32  H   UNL     1       4.397   7.342  17.559  0.00  0.00    +0.000 HD
ENDBRANCH  22  23
ENDBRANCH   5  22
TORSDOF 5
ENDMDL
MODEL 3
REMARK VINA RESULT:      -7.0      6.479     10.188
REMARK  Name = 
REMARK  6 active torsions:
REMARK  status: ('A' for Active; 'I' for Inactive)
REMARK    1  A    between atoms: C_1  and  S_2
REMARK    2  A    between atoms: S_2  and  C_3
REMARK    3  A    between atoms: C_3  and  C_4
REMARK    4  A    between atoms: C_4  and  C_5
REMARK    5  A    between atoms: C_9  and  C_10
REMARK    6  A    between atoms: C_10  and  C_11
REMARK                            x       y       z     vdW  Elec       q    Type
REMARK                         _______ _______ _______ _____ _____    ______ ____
ROOT
ATOM      1  C   UNL     1      -1.536  11.866  18.430  0.00  0.00    +0.000 C 
ATOM      2  N   UNL     1      -0.133  11.586  18.175  0.00  0.00    +0.000 N 
ATOM      3  C   UNL     1       0.500  10.771  19.092  0.00  0.00    +0.000 C 
ATOM      4  O   UNL     1       1.138   9.793  18.733  0.00  0.00    +0.000 OA
ATOM      5  C   UNL     1       0.503  11.325  20.504  0.00  0.00    +0.000 C 
ATOM      6  N   UNL     1      -0.924  11.743  20.854  0.00  0.00    +0.000 N 
ATOM      7  C   UNL     1      -1.810  12.216  19.889  0.00  0.00    +0.000 A 
ATOM      8  N   UNL     1      -2.952  12.768  20.146  0.00  0.00    +0.000 NA
ATOM      9  C   UNL     1      -3.401  12.812  21.464  0.00  0.00    +0.000 A 
ATOM     10  C   UNL     1      -4.733  13.208  21.681  0.00  0.00    +0.000 A 
ATOM     11  C   UNL     1      -5.308  13.162  22.959  0.00  0.00    +0.000 A 
ATOM     12  C   UNL     1      -4.529  12.696  24.021  0.00  0.00    +0.000 A 
ATOM     13  C   UNL     1      -3.203  12.273  23.806  0.00  0.00    +0.000 A 
ATOM     14  C   UNL     1      -2.649  12.316  22.525  0.00  0.00    +0.000 A 
ATOM     15  C   UNL     1      -1.278  11.832  22.208  0.00  0.00    +0.000 A 
ATOM     16  O   UNL     1      -0.530  11.525  23.135  0.00  0.00    +0.000 OA
ATOM     17  H   UNL     1       0.053  11.282  17.227  0.00  0.00    +0.000 HD
ENDROOT
BRANCH   1  18
ATOM     18  C   UNL     1      -2.389  10.657  17.973  0.00  0.00    +0.000 C 
BRANCH  18  19
ATOM     19  C   UNL     1      -2.067  10.094  16.582  0.00  0.00    +0.000 C 
BRANCH  19  21
ATOM     20  C   UNL     1      -4.538  11.364  16.603  0.00  0.00    +0.000 C 
ATOM     21  S   UNL     1      -3.430  10.528  15.440  0.00  0.00    +0.000 S 
ENDBRANCH  19  21
ENDBRANCH  18  19
ENDBRANCH   1  18
BRANCH   5  22
ATOM     22  C   UNL     1       1.529  12.488  20.549  0.00  0.00    +0.000 C 
BRANCH  22  23
ATOM     23  C   UNL     1       1.802  13.466  19.386  0.00  0.00    +0.000 A 
ATOM     24  C   UNL     1       3.072  13.492  18.810  0.00  0.00    +0.000 A 
ATOM     25  N   UNL     1       3.065  14.439  17.829  0.00  0.00    +0.000 N 
ATOM     26  C   UNL     1       2.174  15.402  18.214  0.00  0.00    +0.000 A 
ATOM     27  C   UNL     1       2.168  16.779  17.959  0.00  0.00    +0.000 A 
ATOM     28  C   UNL     1       0.998  17.469  18.249  0.00  0.00    +0.000 A 
ATOM     29  C   UNL     1      -0.132  16.764  18.648  0.00  0.00    +0.000 A 
ATOM     30  C   UNL     1      -0.067  15.386  18.975  0.00  0.00    +0.000 A 
ATOM     31  C   UNL     1       1.162  14.695  18.881  0.00  0.00    +0.000 A 
ATOM     32  H   UNL     1       3.234  14.228  16.853  0.00  0.00    +0.000 HD
ENDBRANCH  22  23
ENDBRANCH   5  22
TORSDOF 5
ENDMDL
MODEL 4
REMARK VINA RESULT:      -7.0      2.919      6.400
REMARK  Name = 
REMARK  6 active torsions:
REMARK  status: ('A' for Active; 'I' for Inactive)
REMARK    1  A    between atoms: C_1  and  S_2
REMARK    2  A    between atoms: S_2  and  C_3
REMARK    3  A    between atoms: C_3  and  C_4
REMARK    4  A    between atoms: C_4  and  C_5
REMARK    5  A    between atoms: C_9  and  C_10
REMARK    6  A    between atoms: C_10  and  C_11
REMARK                            x       y       z     vdW  Elec       q    Type
REMARK                         _______ _______ _______ _____ _____    ______ ____
ROOT
ATOM      1  C   UNL     1       3.605   4.058  20.806  0.00  0.00    +0.000 C 
ATOM      2  N   UNL     1       2.406   4.664  21.363  0.00  0.00    +0.000 N 
ATOM      3  C   UNL     1       1.470   5.108  20.450  0.00  0.00    +0.000 C 
ATOM      4  O   UNL     1       0.296   4.783  20.540  0.00  0.00    +0.000 OA
ATOM      5  C   UNL     1       1.995   6.171  19.505  0.00  0.00    +0.000 C 
ATOM      6  N   UNL     1       3.317   5.678  18.919  0.00  0.00    +0.000 N 
ATOM      7  C   UNL     1       4.181   4.857  19.641  0.00  0.00    +0.000 A 
ATOM      8  N   UNL     1       5.391   4.570  19.287  0.00  0.00    +0.000 NA
ATOM      9  C   UNL     1       5.857   5.013  18.051  0.00  0.00    +0.000 A 
ATOM     10  C   UNL     1       7.085   4.497  17.600  0.00  0.00    +0.000 A 
ATOM     11  C   UNL     1       7.570   4.788  16.316  0.00  0.00    +0.000 A 
ATOM     12  C   UNL     1       6.796   5.596  15.481  0.00  0.00    +0.000 A 
ATOM     13  C   UNL     1       5.553   6.094  15.916  0.00  0.00    +0.000 A 
ATOM     14  C   UNL     1       5.079   5.786  17.193  0.00  0.00    +0.000 A 
ATOM     15  C   UNL     1       3.752   6.225  17.704  0.00  0.00    +0.000 A 
ATOM     16  O   UNL     1       3.099   7.030  17.040  0.00  0.00    +0.000 OA
ATOM     17  H   UNL     1       1.972   4.107  22.089  0.00  0.00    +0.000 HD
ENDROOT
BRANCH   1  18
ATOM     18  C   UNL     1       3.293   2.600  20.387  0.00  0.00    +0.000 C 
BRANCH  18  19
ATOM     19  C   UNL     1       3.947   2.122  19.082  0.00  0.00    +0.000 C 
BRANCH  19  21
ATOM     20  C   UNL     1       1.192   2.057  18.733  0.00  0.00    +0.000 C 
ATOM     21  S   UNL     1       2.703   2.183  17.742  0.00  0.00    +0.000 S 
ENDBRANCH  19  21
ENDBRANCH  18  19
ENDBRANCH   1  18
BRANCH   5  22
ATOM     22  C   UNL     1       2.115   7.494  20.306  0.00  0.00    +0.000 C 
BRANCH  22  23
ATOM     23  C   UNL     1       1.118   8.670  20.216  0.00  0.00    +0.000 A 
ATOM     24  C   UNL     1       1.237   9.576  19.162  0.00  0.00    +0.000 A 
ATOM     25  N   UNL     1       0.265  10.520  19.313  0.00  0.00    +0.000 N 
ATOM     26  C   UNL     1       0.039  10.646  20.656  0.00  0.00    +0.000 A 
ATOM     27  C   UNL     1      -0.360  11.761  21.404  0.00  0.00    +0.000 A 
ATOM     28  C   UNL     1      -0.769  11.530  22.710  0.00  0.00    +0.000 A 
ATOM     29  C   UNL     1      -0.885  10.223  23.172  0.00  0.00    +0.000 A 
ATOM     30  C   UNL     1      -0.395   9.127  22.419  0.00  0.00    +0.000 A 
ATOM     31  C   UNL     1       0.212   9.349  21.162  0.00  0.00    +0.000 A 
ATOM     32  H   UNL     1      -0.468  10.676  18.632  0.00  0.00    +0.000 HD
ENDBRANCH  22  23
ENDBRANCH   5  22
TORSDOF 5
ENDMDL
MODEL 5
REMARK VINA RESULT:      -6.9      3.929      7.191
REMARK  Name = 
REMARK  6 active torsions:
REMARK  status: ('A' for Active; 'I' for Inactive)
REMARK    1  A    between atoms: C_1  and  S_2
REMARK    2  A    between atoms: S_2  and  C_3
REMARK    3  A    between atoms: C_3  and  C_4
REMARK    4  A    between atoms: C_4  and  C_5
REMARK    5  A    between atoms: C_9  and  C_10
REMARK    6  A    between atoms: C_10  and  C_11
REMARK                            x       y       z     vdW  Elec       q    Type
REMARK                         _______ _______ _______ _____ _____    ______ ____
ROOT
ATOM      1  C   UNL     1      -0.018  13.181  20.205  0.00  0.00    +0.000 C 
ATOM      2  N   UNL     1       1.294  12.566  20.089  0.00  0.00    +0.000 N 
ATOM      3  C   UNL     1       1.575  11.958  18.881  0.00  0.00    +0.000 C 
ATOM      4  O   UNL     1       2.602  12.214  18.270  0.00  0.00    +0.000 OA
ATOM      5  C   UNL     1       0.626  10.830  18.528  0.00  0.00    +0.000 C 
ATOM      6  N   UNL     1      -0.804  11.339  18.703  0.00  0.00    +0.000 N 
ATOM      7  C   UNL     1      -1.133  12.293  19.663  0.00  0.00    +0.000 A 
ATOM      8  N   UNL     1      -2.341  12.616  19.995  0.00  0.00    +0.000 NA
ATOM      9  C   UNL     1      -3.408  12.066  19.288  0.00  0.00    +0.000 A 
ATOM     10  C   UNL     1      -4.685  12.606  19.519  0.00  0.00    +0.000 A 
ATOM     11  C   UNL     1      -5.795  12.202  18.762  0.00  0.00    +0.000 A 
ATOM     12  C   UNL     1      -5.603  11.254  17.756  0.00  0.00    +0.000 A 
ATOM     13  C   UNL     1      -4.322  10.728  17.501  0.00  0.00    +0.000 A 
ATOM     14  C   UNL     1      -3.225  11.149  18.256  0.00  0.00    +0.000 A 
ATOM     15  C   UNL     1      -1.832  10.685  18.009  0.00  0.00    +0.000 A 
ATOM     16  O   UNL     1      -1.647   9.768  17.210  0.00  0.00    +0.000 OA
ATOM     17  H   UNL     1       2.053  13.173  20.377  0.00  0.00    +0.000 HD
ENDROOT
BRANCH   1  18
ATOM     18  C   UNL     1      -0.002  14.557  19.494  0.00  0.00    +0.000 C 
BRANCH  18  19
ATOM     19  C   UNL     1       0.188  15.780  20.403  0.00  0.00    +0.000 C 
BRANCH  19  21
ATOM     20  C   UNL     1      -2.264  15.854  21.706  0.00  0.00    +0.000 C 
ATOM     21  S   UNL     1      -0.539  15.416  22.042  0.00  0.00    +0.000 S 
ENDBRANCH  19  21
ENDBRANCH  18  19
ENDBRANCH   1  18
BRANCH   5  22
ATOM     22  C   UNL     1       0.979   9.620  19.431  0.00  0.00    +0.000 C 
BRANCH  22  23
ATOM     23  C   UNL     1       1.917   8.462  19.023  0.00  0.00    +0.000 A 
ATOM     24  C   UNL     1       2.553   8.514  17.784  0.00  0.00    +0.000 A 
ATOM     25  N   UNL     1       3.303   7.382  17.653  0.00  0.00    +0.000 N 
ATOM     26  C   UNL     1       2.662   6.399  18.354  0.00  0.00    +0.000 A 
ATOM     27  C   UNL     1       2.610   5.017  18.129  0.00  0.00    +0.000 A 
ATOM     28  C   UNL     1       2.103   4.230  19.155  0.00  0.00    +0.000 A 
ATOM     29  C   UNL     1       1.796   4.814  20.379  0.00  0.00    +0.000 A 
ATOM     30  C   UNL     1       1.781   6.221  20.544  0.00  0.00    +0.000 A 
ATOM     31  C   UNL     1       2.101   7.064  19.455  0.00  0.00    +0.000 A 
ATOM     32  H   UNL     1       4.310   7.393  17.548  0.00  0.00    +0.000 HD
ENDBRANCH  22  23
ENDBRANCH   5  22
TORSDOF 5
ENDMDL
MODEL 6
REMARK VINA RESULT:      -6.7      3.632      6.905
REMARK  Name = 
REMARK  6 active torsions:
REMARK  status: ('A' for Active; 'I' for Inactive)
REMARK    1  A    between atoms: C_1  and  S_2
REMARK    2  A    between atoms: S_2  and  C_3
REMARK    3  A    between atoms: C_3  and  C_4
REMARK    4  A    between atoms: C_4  and  C_5
REMARK    5  A    between atoms: C_9  and  C_10
REMARK    6  A    between atoms: C_10  and  C_11
REMARK                            x       y       z     vdW  Elec       q    Type
REMARK                         _______ _______ _______ _____ _____    ______ ____
ROOT
ATOM      1  C   UNL     1       1.152  12.557  18.984  0.00  0.00    +0.000 C 
ATOM      2  N   UNL     1       0.436  13.405  19.924  0.00  0.00    +0.000 N 
ATOM      3  C   UNL     1       0.633  13.128  21.262  0.00  0.00    +0.000 C 
ATOM      4  O   UNL     1       0.947  14.008  22.049  0.00  0.00    +0.000 OA
ATOM      5  C   UNL     1       0.216  11.727  21.665  0.00  0.00    +0.000 C 
ATOM      6  N   UNL     1       0.843  10.741  20.680  0.00  0.00    +0.000 N 
ATOM      7  C   UNL     1       1.070  11.077  19.348  0.00  0.00    +0.000 A 
ATOM      8  N   UNL     1       1.408  10.236  18.424  0.00  0.00    +0.000 NA
ATOM      9  C   UNL     1       1.672   8.915  18.777  0.00  0.00    +0.000 A 
ATOM     10  C   UNL     1       2.253   8.088  17.798  0.00  0.00    +0.000 A 
ATOM     11  C   UNL     1       2.668   6.783  18.101  0.00  0.00    +0.000 A 
ATOM     12  C   UNL     1       2.506   6.321  19.408  0.00  0.00    +0.000 A 
ATOM     13  C   UNL     1       1.950   7.152  20.399  0.00  0.00    +0.000 A 
ATOM     14  C   UNL     1       1.551   8.453  20.084  0.00  0.00    +0.000 A 
ATOM     15  C   UNL     1       1.011   9.411  21.087  0.00  0.00    +0.000 A 
ATOM     16  O   UNL     1       0.749   8.999  22.217  0.00  0.00    +0.000 OA
ATOM     17  H   UNL     1       0.541  14.395  19.736  0.00  0.00    +0.000 HD
ENDROOT
BRANCH   1  18
ATOM     18  C   UNL     1       2.622  13.030  18.885  0.00  0.00    +0.000 C 
BRANCH  18  19
ATOM     19  C   UNL     1       2.855  14.350  18.136  0.00  0.00    +0.000 C 
BRANCH  19  21
ATOM     20  C   UNL     1       5.572  14.844  17.840  0.00  0.00    +0.000 C 
ATOM     21  S   UNL     1       4.210  15.264  18.958  0.00  0.00    +0.000 S 
ENDBRANCH  19  21
ENDBRANCH  18  19
ENDBRANCH   1  18
BRANCH   5  22
ATOM     22  C   UNL     1      -1.335  11.689  21.694  0.00  0.00    +0.000 C 
BRANCH  22  23
ATOM     23  C   UNL     1      -2.247  12.136  20.531  0.00  0.00    +0.000 A 
ATOM     24  C   UNL     1      -3.273  13.045  20.787  0.00  0.00    +0.000 A 
ATOM     25  N   UNL     1      -3.939  13.263  19.618  0.00  0.00    +0.000 N 
ATOM     26  C   UNL     1      -3.849  12.109  18.889  0.00  0.00    +0.000 A 
ATOM     27  C   UNL     1      -4.744  11.554  17.966  0.00  0.00    +0.000 A 
ATOM     28  C   UNL     1      -4.272  10.511  17.181  0.00  0.00    +0.000 A 
ATOM     29  C   UNL     1      -2.929  10.154  17.248  0.00  0.00    +0.000 A 
ATOM     30  C   UNL     1      -2.075  10.680  18.249  0.00  0.00    +0.000 A 
ATOM     31  C   UNL     1      -2.578  11.600  19.196  0.00  0.00    +0.000 A 
ATOM     32  H   UNL     1      -3.997  14.171  19.174  0.00  0.00    +0.000 HD
ENDBRANCH  22  23
ENDBRANCH   5  22
TORSDOF 5
ENDMDL
MODEL 7
REMARK VINA RESULT:      -6.7      3.599      6.458
REMARK  Name = 
REMARK  6 active torsions:
REMARK  status: ('A' for Active; 'I' for Inactive)
REMARK    1  A    between atoms: C_1  and  S_2
REMARK    2  A    between atoms: S_2  and  C_3
REMARK    3  A    between atoms: C_3  and  C_4
REMARK    4  A    between atoms: C_4  and  C_5
REMARK    5  A    between atoms: C_9  and  C_10
REMARK    6  A    between atoms: C_10  and  C_11
REMARK                            x       y       z     vdW  Elec       q    Type
REMARK                         _______ _______ _______ _____ _____    ______ ____
ROOT
ATOM      1  C   UNL     1      -1.132  12.806  20.933  0.00  0.00    +0.000 C 
ATOM      2  N   UNL     1       0.105  12.448  21.607  0.00  0.00    +0.000 N 
ATOM      3  C   UNL     1       1.156  12.079  20.790  0.00  0.00    +0.000 C 
ATOM      4  O   UNL     1       2.259  12.592  20.910  0.00  0.00    +0.000 OA
ATOM      5  C   UNL     1       0.863  10.868  19.926  0.00  0.00    +0.000 C 
ATOM      6  N   UNL     1      -0.477  11.094  19.228  0.00  0.00    +0.000 N 
ATOM      7  C   UNL     1      -1.501  11.828  19.822  0.00  0.00    +0.000 A 
ATOM      8  N   UNL     1      -2.715  11.889  19.379  0.00  0.00    +0.000 NA
ATOM      9  C   UNL     1      -3.026  11.273  18.169  0.00  0.00    +0.000 A 
ATOM     10  C   UNL     1      -4.285  11.548  17.607  0.00  0.00    +0.000 A 
ATOM     11  C   UNL     1      -4.634  11.074  16.334  0.00  0.00    +0.000 A 
ATOM     12  C   UNL     1      -3.693  10.329  15.622  0.00  0.00    +0.000 A 
ATOM     13  C   UNL     1      -2.420  10.072  16.167  0.00  0.00    +0.000 A 
ATOM     14  C   UNL     1      -2.084  10.561  17.431  0.00  0.00    +0.000 A 
ATOM     15  C   UNL     1      -0.742  10.382  18.050  0.00  0.00    +0.000 A 
ATOM     16  O   UNL     1       0.068   9.636  17.500  0.00  0.00    +0.000 OA
ATOM     17  H   UNL     1       0.401  13.127  22.298  0.00  0.00    +0.000 HD
ENDROOT
BRANCH   1  18
ATOM     18  C   UNL     1      -1.019  14.253  20.392  0.00  0.00    +0.000 C 
BRANCH  18  19
ATOM     19  C   UNL     1      -0.431  15.289  21.361  0.00  0.00    +0.000 C 
BRANCH  19  21
ATOM     20  C   UNL     1      -0.353  16.326  18.786  0.00  0.00    +0.000 C 
ATOM     21  S   UNL     1      -0.314  16.901  20.503  0.00  0.00    +0.000 S 
ENDBRANCH  19  21
ENDBRANCH  18  19
ENDBRANCH   1  18
BRANCH   5  22
ATOM     22  C   UNL     1       0.893   9.618  20.843  0.00  0.00    +0.000 C 
BRANCH  22  23
ATOM     23  C   UNL     1       1.326   8.206  20.391  0.00  0.00    +0.000 A 
ATOM     24  C   UNL     1       1.273   7.158  21.310  0.00  0.00    +0.000 A 
ATOM     25  N   UNL     1       1.717   6.031  20.682  0.00  0.00    +0.000 N 
ATOM     26  C   UNL     1       2.630   6.433  19.747  0.00  0.00    +0.000 A 
ATOM     27  C   UNL     1       3.764   5.775  19.252  0.00  0.00    +0.000 A 
ATOM     28  C   UNL     1       4.355   6.308  18.114  0.00  0.00    +0.000 A 
ATOM     29  C   UNL     1       3.741   7.367  17.454  0.00  0.00    +0.000 A 
ATOM     30  C   UNL     1       2.644   8.058  18.026  0.00  0.00    +0.000 A 
ATOM     31  C   UNL     1       2.141   7.665  19.287  0.00  0.00    +0.000 A 
ATOM     32  H   UNL     1       1.143   5.208  20.549  0.00  0.00    +0.000 HD
ENDBRANCH  22  23
ENDBRANCH   5  22
TORSDOF 5
ENDMDL
MODEL 8
REMARK VINA RESULT:      -6.6      6.306     10.408
REMARK  Name = 
REMARK  6 active torsions:
REMARK  status: ('A' for Active; 'I' for Inactive)
REMARK    1  A    between atoms: C_1  and  S_2
REMARK    2  A    between atoms: S_2  and  C_3
REMARK    3  A    between atoms: C_3  and  C_4
REMARK    4  A    between atoms: C_4  and  C_5
REMARK    5  A    between atoms: C_9  and  C_10
REMARK    6  A    between atoms: C_10  and  C_11
REMARK                            x       y       z     vdW  Elec       q    Type
REMARK                         _______ _______ _______ _____ _____    ______ ____
ROOT
ATOM      1  C   UNL     1      -1.560  11.601  18.416  0.00  0.00    +0.000 C 
ATOM      2  N   UNL     1      -0.160  11.292  18.175  0.00  0.00    +0.000 N 
ATOM      3  C   UNL     1       0.466  10.522  19.136  0.00  0.00    +0.000 C 
ATOM      4  O   UNL     1       1.092   9.518  18.831  0.00  0.00    +0.000 OA
ATOM      5  C   UNL     1       0.477  11.154  20.514  0.00  0.00    +0.000 C 
ATOM      6  N   UNL     1      -0.945  11.607  20.843  0.00  0.00    +0.000 N 
ATOM      7  C   UNL     1      -1.827  12.035  19.854  0.00  0.00    +0.000 A 
ATOM      8  N   UNL     1      -2.963  12.613  20.081  0.00  0.00    +0.000 NA
ATOM      9  C   UNL     1      -3.409  12.735  21.395  0.00  0.00    +0.000 A 
ATOM     10  C   UNL     1      -4.736  13.157  21.591  0.00  0.00    +0.000 A 
ATOM     11  C   UNL     1      -5.309  13.188  22.871  0.00  0.00    +0.000 A 
ATOM     12  C   UNL     1      -4.533  12.774  23.955  0.00  0.00    +0.000 A 
ATOM     13  C   UNL     1      -3.213  12.325  23.763  0.00  0.00    +0.000 A 
ATOM     14  C   UNL     1      -2.661  12.290  22.481  0.00  0.00    +0.000 A 
ATOM     15  C   UNL     1      -1.295  11.774  22.190  0.00  0.00    +0.000 A 
ATOM     16  O   UNL     1      -0.549  11.511  23.132  0.00  0.00    +0.000 OA
ATOM     17  H   UNL     1       0.021  10.933  17.245  0.00  0.00    +0.000 HD
ENDROOT
BRANCH   1  18
ATOM     18  C   UNL     1      -2.427  10.378  18.029  0.00  0.00    +0.000 C 
BRANCH  18  19
ATOM     19  C   UNL     1      -2.230   9.838  16.605  0.00  0.00    +0.000 C 
BRANCH  19  21
ATOM     20  C   UNL     1      -4.563  11.345  16.623  0.00  0.00    +0.000 C 
ATOM     21  S   UNL     1      -3.290  10.794  15.459  0.00  0.00    +0.000 S 
ENDBRANCH  19  21
ENDBRANCH  18  19
ENDBRANCH   1  18
BRANCH   5  22
ATOM     22  C   UNL     1       1.516  12.306  20.494  0.00  0.00    +0.000 C 
BRANCH  22  23
ATOM     23  C   UNL     1       1.173  13.796  20.277  0.00  0.00    +0.000 A 
ATOM     24  C   UNL     1       1.654  14.440  19.137  0.00  0.00    +0.000 A 
ATOM     25  N   UNL     1       1.236  15.737  19.184  0.00  0.00    +0.000 N 
ATOM     26  C   UNL     1       1.149  16.078  20.506  0.00  0.00    +0.000 A 
ATOM     27  C   UNL     1       1.340  17.316  21.133  0.00  0.00    +0.000 A 
ATOM     28  C   UNL     1       0.925  17.424  22.453  0.00  0.00    +0.000 A 
ATOM     29  C   UNL     1       0.237  16.370  23.045  0.00  0.00    +0.000 A 
ATOM     30  C   UNL     1       0.134  15.107  22.411  0.00  0.00    +0.000 A 
ATOM     31  C   UNL     1       0.723  14.902  21.142  0.00  0.00    +0.000 A 
ATOM     32  H   UNL     1       0.630  16.150  18.486  0.00  0.00    +0.000 HD
ENDBRANCH  22  23
ENDBRANCH   5  22
TORSDOF 5
ENDMDL
MODEL 9
REMARK VINA RESULT:      -6.6      3.793      7.428
REMARK  Name = 
REMARK  6 active torsions:
REMARK  status: ('A' for Active; 'I' for Inactive)
REMARK    1  A    between atoms: C_1  and  S_2
REMARK    2  A    between atoms: S_2  and  C_3
REMARK    3  A    between atoms: C_3  and  C_4
REMARK    4  A    between atoms: C_4  and  C_5
REMARK    5  A    between atoms: C_9  and  C_10
REMARK    6  A    between atoms: C_10  and  C_11
REMARK                            x       y       z     vdW  Elec       q    Type
REMARK                         _______ _______ _______ _____ _____    ______ ____
ROOT
ATOM      1  C   UNL     1      -1.577  12.205  21.531  0.00  0.00    +0.000 C 
ATOM      2  N   UNL     1      -1.156  10.823  21.700  0.00  0.00    +0.000 N 
ATOM      3  C   UNL     1       0.204  10.612  21.813  0.00  0.00    +0.000 C 
ATOM      4  O   UNL     1       0.666   9.952  22.732  0.00  0.00    +0.000 OA
ATOM      5  C   UNL     1       0.997  11.077  20.608  0.00  0.00    +0.000 C 
ATOM      6  N   UNL     1       0.568  12.505  20.276  0.00  0.00    +0.000 N 
ATOM      7  C   UNL     1      -0.728  12.957  20.511  0.00  0.00    +0.000 A 
ATOM      8  N   UNL     1      -1.207  14.077  20.076  0.00  0.00    +0.000 NA
ATOM      9  C   UNL     1      -0.361  14.963  19.412  0.00  0.00    +0.000 A 
ATOM     10  C   UNL     1      -0.850  16.256  19.155  0.00  0.00    +0.000 A 
ATOM     11  C   UNL     1      -0.026  17.250  18.606  0.00  0.00    +0.000 A 
ATOM     12  C   UNL     1       1.305  16.932  18.330  0.00  0.00    +0.000 A 
ATOM     13  C   UNL     1       1.808  15.647  18.608  0.00  0.00    +0.000 A 
ATOM     14  C   UNL     1       0.978  14.672  19.166  0.00  0.00    +0.000 A 
ATOM     15  C   UNL     1       1.450  13.311  19.543  0.00  0.00    +0.000 A 
ATOM     16  O   UNL     1       2.582  12.964  19.208  0.00  0.00    +0.000 OA
ATOM     17  H   UNL     1      -1.664  10.332  22.426  0.00  0.00    +0.000 HD
ENDROOT
BRANCH   1  18
ATOM     18  C   UNL     1      -1.562  12.915  22.907  0.00  0.00    +0.000 C 
BRANCH  18  19
ATOM     19  C   UNL     1      -2.866  12.844  23.715  0.00  0.00    +0.000 C 
BRANCH  19  21
ATOM     20  C   UNL     1      -5.635  13.052  23.781  0.00  0.00    +0.000 C 
ATOM     21  S   UNL     1      -4.274  13.163  22.591  0.00  0.00    +0.000 S 
ENDBRANCH  19  21
ENDBRANCH  18  19
ENDBRANCH   1  18
BRANCH   5  22
ATOM     22  C   UNL     1       0.747  10.061  19.462  0.00  0.00    +0.000 C 
BRANCH  22  23
ATOM     23  C   UNL     1       1.713   8.923  19.069  0.00  0.00    +0.000 A 
ATOM     24  C   UNL     1       2.301   8.941  17.805  0.00  0.00    +0.000 A 
ATOM     25  N   UNL     1       3.088   7.834  17.695  0.00  0.00    +0.000 N 
ATOM     26  C   UNL     1       2.513   6.860  18.463  0.00  0.00    +0.000 A 
ATOM     27  C   UNL     1       2.507   5.468  18.302  0.00  0.00    +0.000 A 
ATOM     28  C   UNL     1       2.070   4.711  19.380  0.00  0.00    +0.000 A 
ATOM     29  C   UNL     1       1.786   5.338  20.588  0.00  0.00    +0.000 A 
ATOM     30  C   UNL     1       1.723   6.750  20.691  0.00  0.00    +0.000 A 
ATOM     31  C   UNL     1       1.968   7.553  19.555  0.00  0.00    +0.000 A 
ATOM     32  H   UNL     1       4.089   7.877  17.550  0.00  0.00    +0.000 HD
ENDBRANCH  22  23
ENDBRANCH   5  22
TORSDOF 5
ENDMDL
