MODEL 1
REMARK VINA RESULT:      -9.6      0.000      0.000
REMARK  Name = 
REMARK  4 active torsions:
REMARK  status: ('A' for Active; 'I' for Inactive)
REMARK    1  A    between atoms: C_2  and  C_10
REMARK    2  A    between atoms: N_3  and  C_4
REMARK    3  A    between atoms: C_15  and  C_16
REMARK    4  A    between atoms: C_21  and  C_22
REMARK                            x       y       z     vdW  Elec       q    Type
REMARK                         _______ _______ _______ _____ _____    ______ ____
ROOT
ATOM      1  C   UNL     1       5.856   5.209  17.153  0.00  0.00    +0.000 A 
ATOM      2  C   UNL     1       6.640   4.671  18.185  0.00  0.00    +0.000 A 
ATOM      3  C   UNL     1       7.622   5.441  18.820  0.00  0.00    +0.000 A 
ATOM      4  C   UNL     1       7.783   6.772  18.412  0.00  0.00    +0.000 A 
ATOM      5  N   UNL     1       8.631   7.737  18.892  0.00  0.00    +0.000 NA
ATOM      6  C   UNL     1       8.344   8.831  18.214  0.00  0.00    +0.000 A 
ATOM      7  N   UNL     1       7.382   8.572  17.265  0.00  0.00    +0.000 N 
ATOM      8  C   UNL     1       6.996   7.269  17.381  0.00  0.00    +0.000 A 
ATOM      9  C   UNL     1       6.036   6.521  16.702  0.00  0.00    +0.000 A 
ATOM     10  H   UNL     1       7.009   9.243  16.610  0.00  0.00    +0.000 HD
ENDROOT
BRANCH   6  11
ATOM     11  C   UNL     1       8.939  10.145  18.401  0.00  0.00    +0.000 A 
ATOM     12  C   UNL     1      10.221  10.258  18.960  0.00  0.00    +0.000 A 
ATOM     13  C   UNL     1      10.812  11.512  19.135  0.00  0.00    +0.000 A 
ATOM     14  C   UNL     1      10.111  12.659  18.772  0.00  0.00    +0.000 A 
ATOM     15  O   UNL     1      10.720  13.864  18.987  0.00  0.00    +0.000 OA
ATOM     16  C   UNL     1      10.007  15.021  18.711  0.00  0.00    +0.000 A 
ATOM     17  C   UNL     1       8.783  15.040  18.161  0.00  0.00    +0.000 A 
ATOM     18  C   UNL     1       8.115  13.770  17.859  0.00  0.00    +0.000 A 
ATOM     19  O   UNL     1       7.003  13.743  17.333  0.00  0.00    +0.000 OA
ATOM     20  C   UNL     1       8.836  12.550  18.227  0.00  0.00    +0.000 A 
ATOM     21  C   UNL     1       8.243  11.304  18.041  0.00  0.00    +0.000 A 
BRANCH  16  22
ATOM     22  C   UNL     1      10.716  16.264  19.066  0.00  0.00    +0.000 A 
ATOM     23  C   UNL     1      11.359  16.407  20.305  0.00  0.00    +0.000 A 
ATOM     24  C   UNL     1      12.033  17.584  20.628  0.00  0.00    +0.000 A 
ATOM     25  C   UNL     1      12.088  18.629  19.710  0.00  0.00    +0.000 A 
ATOM     26  C   UNL     1      11.473  18.498  18.467  0.00  0.00    +0.000 A 
ATOM     27  C   UNL     1      10.793  17.322  18.147  0.00  0.00    +0.000 A 
ENDBRANCH  16  22
ENDBRANCH   6  11
BRANCH   1  29
ATOM     28  N   UNL     1       4.940   3.809  15.442  0.00  0.00    +0.000 NA
ATOM     29  C   UNL     1       4.749   4.396  16.575  0.00  0.00    +0.000 C 
ATOM     30  N   UNL     1       3.570   4.376  17.267  0.00  0.00    +0.000 N 
ATOM     31  H   UNL     1       4.073   3.355  15.151  0.00  0.00    +0.000 HD
ATOM     32  H   UNL     1       3.472   5.101  17.971  0.00  0.00    +0.000 HD
BRANCH  30  33
ATOM     33  C   UNL     1       2.633   3.272  17.389  0.00  0.00    +0.000 C 
ATOM     34  C   UNL     1       3.291   2.121  18.173  0.00  0.00    +0.000 C 
ATOM     35  C   UNL     1       3.571   2.475  19.638  0.00  0.00    +0.000 C 
ATOM     36  C   UNL     1       2.338   3.030  20.346  0.00  0.00    +0.000 C 
ATOM     37  C   UNL     1       1.667   4.151  19.558  0.00  0.00    +0.000 C 
ATOM     38  C   UNL     1       1.370   3.728  18.119  0.00  0.00    +0.000 C 
ENDBRANCH  30  33
ENDBRANCH   1  29
TORSDOF 4
ENDMDL
MODEL 2
REMARK VINA RESULT:      -9.5      0.938      1.897
REMARK  Name = 
REMARK  4 active torsions:
REMARK  status: ('A' for Active; 'I' for Inactive)
REMARK    1  A    between atoms: C_2  and  C_10
REMARK    2  A    between atoms: N_3  and  C_4
REMARK    3  A    between atoms: C_15  and  C_16
REMARK    4  A    between atoms: C_21  and  C_22
REMARK                            x       y       z     vdW  Elec       q    Type
REMARK                         _______ _______ _______ _____ _____    ______ ____
ROOT
ATOM      1  C   UNL     1       5.737   4.956  17.384  0.00  0.00    +0.000 A 
ATOM      2  C   UNL     1       6.688   4.556  18.336  0.00  0.00    +0.000 A 
ATOM      3  C   UNL     1       7.653   5.453  18.810  0.00  0.00    +0.000 A 
ATOM      4  C   UNL     1       7.628   6.767  18.326  0.00  0.00    +0.000 A 
ATOM      5  N   UNL     1       8.422   7.835  18.654  0.00  0.00    +0.000 NA
ATOM      6  C   UNL     1       7.946   8.856  17.968  0.00  0.00    +0.000 A 
ATOM      7  N   UNL     1       6.912   8.452  17.156  0.00  0.00    +0.000 N 
ATOM      8  C   UNL     1       6.678   7.126  17.377  0.00  0.00    +0.000 A 
ATOM      9  C   UNL     1       5.727   6.251  16.855  0.00  0.00    +0.000 A 
ATOM     10  H   UNL     1       6.397   9.044  16.522  0.00  0.00    +0.000 HD
ENDROOT
BRANCH   6  11
ATOM     11  C   UNL     1       8.421  10.230  18.021  0.00  0.00    +0.000 A 
ATOM     12  C   UNL     1       7.774  11.222  17.269  0.00  0.00    +0.000 A 
ATOM     13  C   UNL     1       8.210  12.548  17.318  0.00  0.00    +0.000 A 
ATOM     14  C   UNL     1       9.310  12.882  18.104  0.00  0.00    +0.000 A 
ATOM     15  O   UNL     1       9.715  14.188  18.099  0.00  0.00    +0.000 OA
ATOM     16  C   UNL     1      10.859  14.525  18.807  0.00  0.00    +0.000 A 
ATOM     17  C   UNL     1      11.550  13.670  19.575  0.00  0.00    +0.000 A 
ATOM     18  C   UNL     1      11.118  12.271  19.657  0.00  0.00    +0.000 A 
ATOM     19  O   UNL     1      11.710  11.459  20.367  0.00  0.00    +0.000 OA
ATOM     20  C   UNL     1       9.959  11.898  18.842  0.00  0.00    +0.000 A 
ATOM     21  C   UNL     1       9.526  10.576  18.806  0.00  0.00    +0.000 A 
BRANCH  16  22
ATOM     22  C   UNL     1      11.263  15.935  18.660  0.00  0.00    +0.000 A 
ATOM     23  C   UNL     1      10.942  16.669  17.508  0.00  0.00    +0.000 A 
ATOM     24  C   UNL     1      11.323  18.004  17.382  0.00  0.00    +0.000 A 
ATOM     25  C   UNL     1      12.016  18.630  18.414  0.00  0.00    +0.000 A 
ATOM     26  C   UNL     1      12.327  17.924  19.574  0.00  0.00    +0.000 A 
ATOM     27  C   UNL     1      11.951  16.586  19.696  0.00  0.00    +0.000 A 
ENDBRANCH  16  22
ENDBRANCH   6  11
BRANCH   1  29
ATOM     28  N   UNL     1       4.934   3.090  16.118  0.00  0.00    +0.000 NA
ATOM     29  C   UNL     1       4.660   4.008  16.983  0.00  0.00    +0.000 C 
ATOM     30  N   UNL     1       3.421   4.215  17.524  0.00  0.00    +0.000 N 
ATOM     31  H   UNL     1       4.082   2.572  15.899  0.00  0.00    +0.000 HD
ATOM     32  H   UNL     1       3.284   5.126  17.950  0.00  0.00    +0.000 HD
BRANCH  30  33
ATOM     33  C   UNL     1       2.436   3.211  17.893  0.00  0.00    +0.000 C 
ATOM     34  C   UNL     1       3.150   1.978  18.478  0.00  0.00    +0.000 C 
ATOM     35  C   UNL     1       3.843   2.263  19.816  0.00  0.00    +0.000 C 
ATOM     36  C   UNL     1       2.906   2.926  20.824  0.00  0.00    +0.000 C 
ATOM     37  C   UNL     1       2.175   4.130  20.237  0.00  0.00    +0.000 C 
ATOM     38  C   UNL     1       1.467   3.778  18.930  0.00  0.00    +0.000 C 
ENDBRANCH  30  33
ENDBRANCH   1  29
TORSDOF 4
ENDMDL
MODEL 3
REMARK VINA RESULT:      -9.3      9.496     12.972
REMARK  Name = 
REMARK  4 active torsions:
REMARK  status: ('A' for Active; 'I' for Inactive)
REMARK    1  A    between atoms: C_2  and  C_10
REMARK    2  A    between atoms: N_3  and  C_4
REMARK    3  A    between atoms: C_15  and  C_16
REMARK    4  A    between atoms: C_21  and  C_22
REMARK                            x       y       z     vdW  Elec       q    Type
REMARK                         _______ _______ _______ _____ _____    ______ ____
ROOT
ATOM      1  C   UNL     1      -3.258  14.776  23.460  0.00  0.00    +0.000 A 
ATOM      2  C   UNL     1      -2.079  15.533  23.367  0.00  0.00    +0.000 A 
ATOM      3  C   UNL     1      -0.878  14.946  22.951  0.00  0.00    +0.000 A 
ATOM      4  C   UNL     1      -0.891  13.588  22.607  0.00  0.00    +0.000 A 
ATOM      5  N   UNL     1       0.124  12.796  22.136  0.00  0.00    +0.000 NA
ATOM      6  C   UNL     1      -0.422  11.618  21.906  0.00  0.00    +0.000 A 
ATOM      7  N   UNL     1      -1.745  11.617  22.284  0.00  0.00    +0.000 N 
ATOM      8  C   UNL     1      -2.074  12.867  22.720  0.00  0.00    +0.000 A 
ATOM      9  C   UNL     1      -3.277  13.408  23.165  0.00  0.00    +0.000 A 
ATOM     10  H   UNL     1      -2.372  10.829  22.224  0.00  0.00    +0.000 HD
ENDROOT
BRANCH   6  11
ATOM     11  C   UNL     1       0.242  10.452  21.343  0.00  0.00    +0.000 A 
ATOM     12  C   UNL     1       0.389   9.291  22.117  0.00  0.00    +0.000 A 
ATOM     13  C   UNL     1       1.014   8.159  21.588  0.00  0.00    +0.000 A 
ATOM     14  C   UNL     1       1.513   8.194  20.289  0.00  0.00    +0.000 A 
ATOM     15  O   UNL     1       2.139   7.069  19.824  0.00  0.00    +0.000 OA
ATOM     16  C   UNL     1       2.717   7.112  18.565  0.00  0.00    +0.000 A 
ATOM     17  C   UNL     1       2.628   8.156  17.727  0.00  0.00    +0.000 A 
ATOM     18  C   UNL     1       1.915   9.362  18.161  0.00  0.00    +0.000 A 
ATOM     19  O   UNL     1       1.790  10.333  17.416  0.00  0.00    +0.000 OA
ATOM     20  C   UNL     1       1.377   9.347  19.523  0.00  0.00    +0.000 A 
ATOM     21  C   UNL     1       0.748  10.476  20.039  0.00  0.00    +0.000 A 
BRANCH  16  22
ATOM     22  C   UNL     1       3.448   5.885  18.197  0.00  0.00    +0.000 A 
ATOM     23  C   UNL     1       3.356   4.721  18.977  0.00  0.00    +0.000 A 
ATOM     24  C   UNL     1       4.045   3.564  18.616  0.00  0.00    +0.000 A 
ATOM     25  C   UNL     1       4.823   3.548  17.462  0.00  0.00    +0.000 A 
ATOM     26  C   UNL     1       4.910   4.686  16.664  0.00  0.00    +0.000 A 
ATOM     27  C   UNL     1       4.225   5.847  17.029  0.00  0.00    +0.000 A 
ENDBRANCH  16  22
ENDBRANCH   6  11
BRANCH   1  29
ATOM     28  N   UNL     1      -4.563  16.746  23.842  0.00  0.00    +0.000 NA
ATOM     29  C   UNL     1      -4.539  15.456  23.802  0.00  0.00    +0.000 C 
ATOM     30  N   UNL     1      -5.601  14.654  24.113  0.00  0.00    +0.000 N 
ATOM     31  H   UNL     1      -5.483  17.053  24.156  0.00  0.00    +0.000 HD
ATOM     32  H   UNL     1      -5.366  13.688  24.321  0.00  0.00    +0.000 HD
BRANCH  30  33
ATOM     33  C   UNL     1      -7.007  14.894  23.827  0.00  0.00    +0.000 C 
ATOM     34  C   UNL     1      -7.205  15.046  22.307  0.00  0.00    +0.000 C 
ATOM     35  C   UNL     1      -6.930  13.752  21.532  0.00  0.00    +0.000 C 
ATOM     36  C   UNL     1      -7.697  12.561  22.102  0.00  0.00    +0.000 C 
ATOM     37  C   UNL     1      -7.526  12.425  23.612  0.00  0.00    +0.000 C 
ATOM     38  C   UNL     1      -7.856  13.730  24.337  0.00  0.00    +0.000 C 
ENDBRANCH  30  33
ENDBRANCH   1  29
TORSDOF 4
ENDMDL
MODEL 4
REMARK VINA RESULT:      -9.2      7.142      9.718
REMARK  Name = 
REMARK  4 active torsions:
REMARK  status: ('A' for Active; 'I' for Inactive)
REMARK    1  A    between atoms: C_2  and  C_10
REMARK    2  A    between atoms: N_3  and  C_4
REMARK    3  A    between atoms: C_15  and  C_16
REMARK    4  A    between atoms: C_21  and  C_22
REMARK                            x       y       z     vdW  Elec       q    Type
REMARK                         _______ _______ _______ _____ _____    ______ ____
ROOT
ATOM      1  C   UNL     1       3.514   4.495  19.213  0.00  0.00    +0.000 A 
ATOM      2  C   UNL     1       2.478   3.721  19.760  0.00  0.00    +0.000 A 
ATOM      3  C   UNL     1       1.425   4.321  20.461  0.00  0.00    +0.000 A 
ATOM      4  C   UNL     1       1.422   5.717  20.581  0.00  0.00    +0.000 A 
ATOM      5  N   UNL     1       0.501   6.541  21.173  0.00  0.00    +0.000 NA
ATOM      6  C   UNL     1       0.930   7.769  20.955  0.00  0.00    +0.000 A 
ATOM      7  N   UNL     1       2.140   7.748  20.300  0.00  0.00    +0.000 N 
ATOM      8  C   UNL     1       2.468   6.450  20.035  0.00  0.00    +0.000 A 
ATOM      9  C   UNL     1       3.550   5.885  19.363  0.00  0.00    +0.000 A 
ATOM     10  H   UNL     1       2.679   8.559  20.037  0.00  0.00    +0.000 HD
ENDROOT
BRANCH   6  11
ATOM     11  C   UNL     1       0.260   9.001  21.343  0.00  0.00    +0.000 A 
ATOM     12  C   UNL     1      -0.056   9.230  22.690  0.00  0.00    +0.000 A 
ATOM     13  C   UNL     1      -0.688  10.413  23.080  0.00  0.00    +0.000 A 
ATOM     14  C   UNL     1      -1.026  11.362  22.118  0.00  0.00    +0.000 A 
ATOM     15  O   UNL     1      -1.667  12.492  22.546  0.00  0.00    +0.000 OA
ATOM     16  C   UNL     1      -2.087  13.409  21.594  0.00  0.00    +0.000 A 
ATOM     17  C   UNL     1      -1.828  13.309  20.282  0.00  0.00    +0.000 A 
ATOM     18  C   UNL     1      -1.091  12.142  19.785  0.00  0.00    +0.000 A 
ATOM     19  O   UNL     1      -0.813  12.021  18.593  0.00  0.00    +0.000 OA
ATOM     20  C   UNL     1      -0.722  11.133  20.780  0.00  0.00    +0.000 A 
ATOM     21  C   UNL     1      -0.084   9.961  20.384  0.00  0.00    +0.000 A 
BRANCH  16  22
ATOM     22  C   UNL     1      -2.850  14.543  22.149  0.00  0.00    +0.000 A 
ATOM     23  C   UNL     1      -2.760  15.826  21.586  0.00  0.00    +0.000 A 
ATOM     24  C   UNL     1      -3.492  16.890  22.112  0.00  0.00    +0.000 A 
ATOM     25  C   UNL     1      -4.335  16.683  23.200  0.00  0.00    +0.000 A 
ATOM     26  C   UNL     1      -4.453  15.413  23.759  0.00  0.00    +0.000 A 
ATOM     27  C   UNL     1      -3.716  14.350  23.236  0.00  0.00    +0.000 A 
ENDBRANCH  16  22
ENDBRANCH   6  11
BRANCH   1  29
ATOM     28  N   UNL     1       4.201   2.902  17.563  0.00  0.00    +0.000 NA
ATOM     29  C   UNL     1       4.559   3.835  18.381  0.00  0.00    +0.000 C 
ATOM     30  N   UNL     1       5.852   4.227  18.586  0.00  0.00    +0.000 N 
ATOM     31  H   UNL     1       5.032   2.506  17.124  0.00  0.00    +0.000 HD
ATOM     32  H   UNL     1       6.014   4.746  19.444  0.00  0.00    +0.000 HD
BRANCH  30  33
ATOM     33  C   UNL     1       6.916   4.327  17.600  0.00  0.00    +0.000 C 
ATOM     34  C   UNL     1       6.458   5.231  16.438  0.00  0.00    +0.000 C 
ATOM     35  C   UNL     1       6.260   6.693  16.856  0.00  0.00    +0.000 C 
ATOM     36  C   UNL     1       7.477   7.256  17.586  0.00  0.00    +0.000 C 
ATOM     37  C   UNL     1       7.950   6.349  18.718  0.00  0.00    +0.000 C 
ATOM     38  C   UNL     1       8.174   4.916  18.237  0.00  0.00    +0.000 C 
ENDBRANCH  30  33
ENDBRANCH   1  29
TORSDOF 4
ENDMDL
MODEL 5
REMARK VINA RESULT:      -9.1      8.599     12.286
REMARK  Name = 
REMARK  4 active torsions:
REMARK  status: ('A' for Active; 'I' for Inactive)
REMARK    1  A    between atoms: C_2  and  C_10
REMARK    2  A    between atoms: N_3  and  C_4
REMARK    3  A    between atoms: C_15  and  C_16
REMARK    4  A    between atoms: C_21  and  C_22
REMARK                            x       y       z     vdW  Elec       q    Type
REMARK                         _______ _______ _______ _____ _____    ______ ____
ROOT
ATOM      1  C   UNL     1      -2.992  13.091  22.317  0.00  0.00    +0.000 A 
ATOM      2  C   UNL     1      -2.487  12.516  23.494  0.00  0.00    +0.000 A 
ATOM      3  C   UNL     1      -1.526  11.499  23.443  0.00  0.00    +0.000 A 
ATOM      4  C   UNL     1      -1.065  11.089  22.185  0.00  0.00    +0.000 A 
ATOM      5  N   UNL     1      -0.112  10.157  21.864  0.00  0.00    +0.000 NA
ATOM      6  C   UNL     1      -0.004  10.197  20.550  0.00  0.00    +0.000 A 
ATOM      7  N   UNL     1      -0.915  11.080  20.018  0.00  0.00    +0.000 N 
ATOM      8  C   UNL     1      -1.593  11.675  21.041  0.00  0.00    +0.000 A 
ATOM      9  C   UNL     1      -2.576  12.662  21.053  0.00  0.00    +0.000 A 
ATOM     10  H   UNL     1      -1.040  11.272  19.035  0.00  0.00    +0.000 HD
ENDROOT
BRANCH   6  11
ATOM     11  C   UNL     1       0.923   9.427  19.735  0.00  0.00    +0.000 A 
ATOM     12  C   UNL     1       1.401   9.960  18.529  0.00  0.00    +0.000 A 
ATOM     13  C   UNL     1       2.301   9.239  17.741  0.00  0.00    +0.000 A 
ATOM     14  C   UNL     1       2.708   7.970  18.147  0.00  0.00    +0.000 A 
ATOM     15  O   UNL     1       3.569   7.292  17.328  0.00  0.00    +0.000 OA
ATOM     16  C   UNL     1       3.919   5.996  17.672  0.00  0.00    +0.000 A 
ATOM     17  C   UNL     1       3.540   5.386  18.806  0.00  0.00    +0.000 A 
ATOM     18  C   UNL     1       2.663   6.097  19.742  0.00  0.00    +0.000 A 
ATOM     19  O   UNL     1       2.311   5.584  20.802  0.00  0.00    +0.000 OA
ATOM     20  C   UNL     1       2.227   7.435  19.337  0.00  0.00    +0.000 A 
ATOM     21  C   UNL     1       1.337   8.151  20.133  0.00  0.00    +0.000 A 
BRANCH  16  22
ATOM     22  C   UNL     1       4.774   5.320  16.678  0.00  0.00    +0.000 A 
ATOM     23  C   UNL     1       4.943   3.927  16.689  0.00  0.00    +0.000 A 
ATOM     24  C   UNL     1       5.747   3.297  15.740  0.00  0.00    +0.000 A 
ATOM     25  C   UNL     1       6.382   4.050  14.757  0.00  0.00    +0.000 A 
ATOM     26  C   UNL     1       6.211   5.432  14.717  0.00  0.00    +0.000 A 
ATOM     27  C   UNL     1       5.411   6.063  15.671  0.00  0.00    +0.000 A 
ENDBRANCH  16  22
ENDBRANCH   6  11
BRANCH   1  29
ATOM     28  N   UNL     1      -3.575  15.376  21.907  0.00  0.00    +0.000 NA
ATOM     29  C   UNL     1      -3.932  14.244  22.412  0.00  0.00    +0.000 C 
ATOM     30  N   UNL     1      -5.101  14.034  23.090  0.00  0.00    +0.000 N 
ATOM     31  H   UNL     1      -4.290  16.074  22.114  0.00  0.00    +0.000 HD
ATOM     32  H   UNL     1      -5.118  13.202  23.672  0.00  0.00    +0.000 HD
BRANCH  30  33
ATOM     33  C   UNL     1      -6.405  14.613  22.809  0.00  0.00    +0.000 C 
ATOM     34  C   UNL     1      -6.724  14.459  21.309  0.00  0.00    +0.000 C 
ATOM     35  C   UNL     1      -6.915  12.999  20.882  0.00  0.00    +0.000 C 
ATOM     36  C   UNL     1      -7.916  12.262  21.768  0.00  0.00    +0.000 C 
ATOM     37  C   UNL     1      -7.619  12.437  23.255  0.00  0.00    +0.000 C 
ATOM     38  C   UNL     1      -7.484  13.911  23.633  0.00  0.00    +0.000 C 
ENDBRANCH  30  33
ENDBRANCH   1  29
TORSDOF 4
ENDMDL
MODEL 6
REMARK VINA RESULT:      -9.0      6.888      9.221
REMARK  Name = 
REMARK  4 active torsions:
REMARK  status: ('A' for Active; 'I' for Inactive)
REMARK    1  A    between atoms: C_2  and  C_10
REMARK    2  A    between atoms: N_3  and  C_4
REMARK    3  A    between atoms: C_15  and  C_16
REMARK    4  A    between atoms: C_21  and  C_22
REMARK                            x       y       z     vdW  Elec       q    Type
REMARK                         _______ _______ _______ _____ _____    ______ ____
ROOT
ATOM      1  C   UNL     1       3.393   4.389  19.172  0.00  0.00    +0.000 A 
ATOM      2  C   UNL     1       2.237   3.690  19.554  0.00  0.00    +0.000 A 
ATOM      3  C   UNL     1       1.204   4.333  20.248  0.00  0.00    +0.000 A 
ATOM      4  C   UNL     1       1.346   5.699  20.528  0.00  0.00    +0.000 A 
ATOM      5  N   UNL     1       0.478   6.559  21.147  0.00  0.00    +0.000 NA
ATOM      6  C   UNL     1       1.057   7.743  21.101  0.00  0.00    +0.000 A 
ATOM      7  N   UNL     1       2.305   7.648  20.531  0.00  0.00    +0.000 N 
ATOM      8  C   UNL     1       2.508   6.356  20.142  0.00  0.00    +0.000 A 
ATOM      9  C   UNL     1       3.571   5.741  19.484  0.00  0.00    +0.000 A 
ATOM     10  H   UNL     1       2.951   8.412  20.401  0.00  0.00    +0.000 HD
ENDROOT
BRANCH   6  11
ATOM     11  C   UNL     1       0.499   8.998  21.582  0.00  0.00    +0.000 A 
ATOM     12  C   UNL     1      -0.402   8.996  22.657  0.00  0.00    +0.000 A 
ATOM     13  C   UNL     1      -0.937  10.192  23.138  0.00  0.00    +0.000 A 
ATOM     14  C   UNL     1      -0.588  11.395  22.530  0.00  0.00    +0.000 A 
ATOM     15  O   UNL     1      -1.159  12.538  23.020  0.00  0.00    +0.000 OA
ATOM     16  C   UNL     1      -0.890  13.736  22.375  0.00  0.00    +0.000 A 
ATOM     17  C   UNL     1      -0.034  13.866  21.350  0.00  0.00    +0.000 A 
ATOM     18  C   UNL     1       0.645  12.676  20.829  0.00  0.00    +0.000 A 
ATOM     19  O   UNL     1       1.454  12.755  19.906  0.00  0.00    +0.000 OA
ATOM     20  C   UNL     1       0.297  11.399  21.458  0.00  0.00    +0.000 A 
ATOM     21  C   UNL     1       0.842  10.212  20.977  0.00  0.00    +0.000 A 
BRANCH  16  22
ATOM     22  C   UNL     1      -1.627  14.891  22.921  0.00  0.00    +0.000 A 
ATOM     23  C   UNL     1      -2.424  15.702  22.098  0.00  0.00    +0.000 A 
ATOM     24  C   UNL     1      -3.122  16.787  22.626  0.00  0.00    +0.000 A 
ATOM     25  C   UNL     1      -3.046  17.068  23.987  0.00  0.00    +0.000 A 
ATOM     26  C   UNL     1      -2.277  16.263  24.823  0.00  0.00    +0.000 A 
ATOM     27  C   UNL     1      -1.573  15.180  24.293  0.00  0.00    +0.000 A 
ENDBRANCH  16  22
ENDBRANCH   6  11
BRANCH   1  29
ATOM     28  N   UNL     1       4.049   2.736  17.570  0.00  0.00    +0.000 NA
ATOM     29  C   UNL     1       4.421   3.701  18.342  0.00  0.00    +0.000 C 
ATOM     30  N   UNL     1       5.717   4.106  18.502  0.00  0.00    +0.000 N 
ATOM     31  H   UNL     1       4.872   2.327  17.126  0.00  0.00    +0.000 HD
ATOM     32  H   UNL     1       5.896   4.658  19.335  0.00  0.00    +0.000 HD
BRANCH  30  33
ATOM     33  C   UNL     1       6.757   4.173  17.488  0.00  0.00    +0.000 C 
ATOM     34  C   UNL     1       6.285   5.064  16.323  0.00  0.00    +0.000 C 
ATOM     35  C   UNL     1       6.121   6.535  16.720  0.00  0.00    +0.000 C 
ATOM     36  C   UNL     1       7.364   7.092  17.410  0.00  0.00    +0.000 C 
ATOM     37  C   UNL     1       7.851   6.196  18.545  0.00  0.00    +0.000 C 
ATOM     38  C   UNL     1       8.040   4.752  18.083  0.00  0.00    +0.000 C 
ENDBRANCH  30  33
ENDBRANCH   1  29
TORSDOF 4
ENDMDL
MODEL 7
REMARK VINA RESULT:      -9.0      7.372      9.611
REMARK  Name = 
REMARK  4 active torsions:
REMARK  status: ('A' for Active; 'I' for Inactive)
REMARK    1  A    between atoms: C_2  and  C_10
REMARK    2  A    between atoms: N_3  and  C_4
REMARK    3  A    between atoms: C_15  and  C_16
REMARK    4  A    between atoms: C_21  and  C_22
REMARK                            x       y       z     vdW  Elec       q    Type
REMARK                         _______ _______ _______ _____ _____    ______ ____
ROOT
ATOM      1  C   UNL     1       3.201   4.954  18.918  0.00  0.00    +0.000 A 
ATOM      2  C   UNL     1       2.409   4.164  19.766  0.00  0.00    +0.000 A 
ATOM      3  C   UNL     1       1.515   4.752  20.670  0.00  0.00    +0.000 A 
ATOM      4  C   UNL     1       1.416   6.149  20.687  0.00  0.00    +0.000 A 
ATOM      5  N   UNL     1       0.602   6.959  21.435  0.00  0.00    +0.000 NA
ATOM      6  C   UNL     1       0.850   8.188  21.027  0.00  0.00    +0.000 A 
ATOM      7  N   UNL     1       1.855   8.190  20.087  0.00  0.00    +0.000 N 
ATOM      8  C   UNL     1       2.222   6.900  19.840  0.00  0.00    +0.000 A 
ATOM      9  C   UNL     1       3.148   6.352  18.955  0.00  0.00    +0.000 A 
ATOM     10  H   UNL     1       2.236   9.009  19.638  0.00  0.00    +0.000 HD
ENDROOT
BRANCH   6  11
ATOM     11  C   UNL     1       0.190   9.401  21.485  0.00  0.00    +0.000 A 
ATOM     12  C   UNL     1      -0.391   9.441  22.761  0.00  0.00    +0.000 A 
ATOM     13  C   UNL     1      -1.018  10.602  23.220  0.00  0.00    +0.000 A 
ATOM     14  C   UNL     1      -1.084  11.720  22.393  0.00  0.00    +0.000 A 
ATOM     15  O   UNL     1      -1.731  12.824  22.877  0.00  0.00    +0.000 OA
ATOM     16  C   UNL     1      -1.882  13.918  22.038  0.00  0.00    +0.000 A 
ATOM     17  C   UNL     1      -1.356  14.004  20.807  0.00  0.00    +0.000 A 
ATOM     18  C   UNL     1      -0.604  12.866  20.269  0.00  0.00    +0.000 A 
ATOM     19  O   UNL     1      -0.087  12.911  19.154  0.00  0.00    +0.000 OA
ATOM     20  C   UNL     1      -0.517  11.680  21.124  0.00  0.00    +0.000 A 
ATOM     21  C   UNL     1       0.117  10.530  20.662  0.00  0.00    +0.000 A 
BRANCH  16  22
ATOM     22  C   UNL     1      -2.674  15.017  22.620  0.00  0.00    +0.000 A 
ATOM     23  C   UNL     1      -2.887  15.107  24.005  0.00  0.00    +0.000 A 
ATOM     24  C   UNL     1      -3.632  16.155  24.546  0.00  0.00    +0.000 A 
ATOM     25  C   UNL     1      -4.160  17.136  23.712  0.00  0.00    +0.000 A 
ATOM     26  C   UNL     1      -3.942  17.075  22.338  0.00  0.00    +0.000 A 
ATOM     27  C   UNL     1      -3.203  16.023  21.796  0.00  0.00    +0.000 A 
ENDBRANCH  16  22
ENDBRANCH   6  11
BRANCH   1  29
ATOM     28  N   UNL     1       3.493   3.716  16.890  0.00  0.00    +0.000 NA
ATOM     29  C   UNL     1       4.060   4.294  17.895  0.00  0.00    +0.000 C 
ATOM     30  N   UNL     1       5.408   4.295  18.126  0.00  0.00    +0.000 N 
ATOM     31  H   UNL     1       4.205   3.256  16.324  0.00  0.00    +0.000 HD
ATOM     32  H   UNL     1       5.682   4.522  19.077  0.00  0.00    +0.000 HD
BRANCH  30  33
ATOM     33  C   UNL     1       6.475   4.382  17.143  0.00  0.00    +0.000 C 
ATOM     34  C   UNL     1       6.196   5.551  16.179  0.00  0.00    +0.000 C 
ATOM     35  C   UNL     1       6.267   6.922  16.862  0.00  0.00    +0.000 C 
ATOM     36  C   UNL     1       7.563   7.112  17.646  0.00  0.00    +0.000 C 
ATOM     37  C   UNL     1       7.858   5.942  18.579  0.00  0.00    +0.000 C 
ATOM     38  C   UNL     1       7.818   4.605  17.838  0.00  0.00    +0.000 C 
ENDBRANCH  30  33
ENDBRANCH   1  29
TORSDOF 4
ENDMDL
MODEL 8
REMARK VINA RESULT:      -9.0      8.761     12.401
REMARK  Name = 
REMARK  4 active torsions:
REMARK  status: ('A' for Active; 'I' for Inactive)
REMARK    1  A    between atoms: C_2  and  C_10
REMARK    2  A    between atoms: N_3  and  C_4
REMARK    3  A    between atoms: C_15  and  C_16
REMARK    4  A    between atoms: C_21  and  C_22
REMARK                            x       y       z     vdW  Elec       q    Type
REMARK                         _______ _______ _______ _____ _____    ______ ____
ROOT
ATOM      1  C   UNL     1      -3.141  13.391  22.228  0.00  0.00    +0.000 A 
ATOM      2  C   UNL     1      -2.641  12.846  23.421  0.00  0.00    +0.000 A 
ATOM      3  C   UNL     1      -1.682  11.826  23.401  0.00  0.00    +0.000 A 
ATOM      4  C   UNL     1      -1.218  11.381  22.157  0.00  0.00    +0.000 A 
ATOM      5  N   UNL     1      -0.266  10.439  21.864  0.00  0.00    +0.000 NA
ATOM      6  C   UNL     1      -0.154  10.442  20.551  0.00  0.00    +0.000 A 
ATOM      7  N   UNL     1      -1.061  11.312  19.991  0.00  0.00    +0.000 N 
ATOM      8  C   UNL     1      -1.741  11.937  20.995  0.00  0.00    +0.000 A 
ATOM      9  C   UNL     1      -2.722  12.926  20.977  0.00  0.00    +0.000 A 
ATOM     10  H   UNL     1      -1.182  11.478  19.003  0.00  0.00    +0.000 HD
ENDROOT
BRANCH   6  11
ATOM     11  C   UNL     1       0.774   9.647  19.760  0.00  0.00    +0.000 A 
ATOM     12  C   UNL     1       1.287  10.161  18.560  0.00  0.00    +0.000 A 
ATOM     13  C   UNL     1       2.187   9.417  17.795  0.00  0.00    +0.000 A 
ATOM     14  C   UNL     1       2.561   8.144  18.219  0.00  0.00    +0.000 A 
ATOM     15  O   UNL     1       3.425   7.443  17.423  0.00  0.00    +0.000 OA
ATOM     16  C   UNL     1       3.743   6.143  17.784  0.00  0.00    +0.000 A 
ATOM     17  C   UNL     1       3.330   5.550  18.914  0.00  0.00    +0.000 A 
ATOM     18  C   UNL     1       2.449   6.285  19.827  0.00  0.00    +0.000 A 
ATOM     19  O   UNL     1       2.065   5.787  20.884  0.00  0.00    +0.000 OA
ATOM     20  C   UNL     1       2.046   7.628  19.404  0.00  0.00    +0.000 A 
ATOM     21  C   UNL     1       1.155   8.367  20.176  0.00  0.00    +0.000 A 
BRANCH  16  22
ATOM     22  C   UNL     1       4.604   5.443  16.812  0.00  0.00    +0.000 A 
ATOM     23  C   UNL     1       5.216   6.132  15.753  0.00  0.00    +0.000 A 
ATOM     24  C   UNL     1       6.034   5.462  14.844  0.00  0.00    +0.000 A 
ATOM     25  C   UNL     1       6.266   4.098  14.991  0.00  0.00    +0.000 A 
ATOM     26  C   UNL     1       5.685   3.401  16.047  0.00  0.00    +0.000 A 
ATOM     27  C   UNL     1       4.860   4.070  16.953  0.00  0.00    +0.000 A 
ENDBRANCH  16  22
ENDBRANCH   6  11
BRANCH   1  29
ATOM     28  N   UNL     1      -3.590  15.732  22.447  0.00  0.00    +0.000 NA
ATOM     29  C   UNL     1      -4.078  14.548  22.288  0.00  0.00    +0.000 C 
ATOM     30  N   UNL     1      -5.414  14.264  22.229  0.00  0.00    +0.000 N 
ATOM     31  H   UNL     1      -4.356  16.399  22.537  0.00  0.00    +0.000 HD
ATOM     32  H   UNL     1      -5.656  13.292  22.395  0.00  0.00    +0.000 HD
BRANCH  30  33
ATOM     33  C   UNL     1      -6.463  15.060  21.610  0.00  0.00    +0.000 C 
ATOM     34  C   UNL     1      -6.164  15.229  20.109  0.00  0.00    +0.000 C 
ATOM     35  C   UNL     1      -6.247  13.913  19.327  0.00  0.00    +0.000 C 
ATOM     36  C   UNL     1      -7.559  13.172  19.579  0.00  0.00    +0.000 C 
ATOM     37  C   UNL     1      -7.872  13.029  21.065  0.00  0.00    +0.000 C 
ATOM     38  C   UNL     1      -7.818  14.376  21.785  0.00  0.00    +0.000 C 
ENDBRANCH  30  33
ENDBRANCH   1  29
TORSDOF 4
ENDMDL
MODEL 9
REMARK VINA RESULT:      -8.9      8.899     10.682
REMARK  Name = 
REMARK  4 active torsions:
REMARK  status: ('A' for Active; 'I' for Inactive)
REMARK    1  A    between atoms: C_2  and  C_10
REMARK    2  A    between atoms: N_3  and  C_4
REMARK    3  A    between atoms: C_15  and  C_16
REMARK    4  A    between atoms: C_21  and  C_22
REMARK                            x       y       z     vdW  Elec       q    Type
REMARK                         _______ _______ _______ _____ _____    ______ ____
ROOT
ATOM      1  C   UNL     1       2.627   6.976  19.262  0.00  0.00    +0.000 A 
ATOM      2  C   UNL     1       2.753   7.593  18.008  0.00  0.00    +0.000 A 
ATOM      3  C   UNL     1       2.101   8.802  17.732  0.00  0.00    +0.000 A 
ATOM      4  C   UNL     1       1.340   9.389  18.751  0.00  0.00    +0.000 A 
ATOM      5  N   UNL     1       0.648  10.572  18.755  0.00  0.00    +0.000 NA
ATOM      6  C   UNL     1       0.160  10.695  19.973  0.00  0.00    +0.000 A 
ATOM      7  N   UNL     1       0.464   9.587  20.729  0.00  0.00    +0.000 N 
ATOM      8  C   UNL     1       1.231   8.745  19.978  0.00  0.00    +0.000 A 
ATOM      9  C   UNL     1       1.834   7.525  20.275  0.00  0.00    +0.000 A 
ATOM     10  H   UNL     1       0.187   9.436  21.688  0.00  0.00    +0.000 HD
ENDROOT
BRANCH   6  11
ATOM     11  C   UNL     1      -0.606  11.820  20.489  0.00  0.00    +0.000 A 
ATOM     12  C   UNL     1      -0.502  13.077  19.874  0.00  0.00    +0.000 A 
ATOM     13  C   UNL     1      -1.240  14.163  20.349  0.00  0.00    +0.000 A 
ATOM     14  C   UNL     1      -2.068  14.001  21.456  0.00  0.00    +0.000 A 
ATOM     15  O   UNL     1      -2.750  15.101  21.900  0.00  0.00    +0.000 OA
ATOM     16  C   UNL     1      -3.513  14.980  23.051  0.00  0.00    +0.000 A 
ATOM     17  C   UNL     1      -3.702  13.830  23.715  0.00  0.00    +0.000 A 
ATOM     18  C   UNL     1      -3.038  12.612  23.241  0.00  0.00    +0.000 A 
ATOM     19  O   UNL     1      -3.202  11.532  23.807  0.00  0.00    +0.000 OA
ATOM     20  C   UNL     1      -2.165  12.758  22.074  0.00  0.00    +0.000 A 
ATOM     21  C   UNL     1      -1.440  11.668  21.602  0.00  0.00    +0.000 A 
BRANCH  16  22
ATOM     22  C   UNL     1      -4.130  16.243  23.498  0.00  0.00    +0.000 A 
ATOM     23  C   UNL     1      -4.570  17.205  22.576  0.00  0.00    +0.000 A 
ATOM     24  C   UNL     1      -5.159  18.392  23.009  0.00  0.00    +0.000 A 
ATOM     25  C   UNL     1      -5.330  18.629  24.369  0.00  0.00    +0.000 A 
ATOM     26  C   UNL     1      -4.918  17.677  25.300  0.00  0.00    +0.000 A 
ATOM     27  C   UNL     1      -4.322  16.492  24.866  0.00  0.00    +0.000 A 
ENDBRANCH  16  22
ENDBRANCH   6  11
BRANCH   1  29
ATOM     28  N   UNL     1       2.840   4.766  20.159  0.00  0.00    +0.000 NA
ATOM     29  C   UNL     1       3.420   5.749  19.555  0.00  0.00    +0.000 C 
ATOM     30  N   UNL     1       4.744   5.772  19.213  0.00  0.00    +0.000 N 
ATOM     31  H   UNL     1       3.528   4.037  20.348  0.00  0.00    +0.000 HD
ATOM     32  H   UNL     1       5.123   6.693  19.019  0.00  0.00    +0.000 HD
BRANCH  30  33
ATOM     33  C   UNL     1       5.556   4.663  18.739  0.00  0.00    +0.000 C 
ATOM     34  C   UNL     1       4.969   4.119  17.423  0.00  0.00    +0.000 C 
ATOM     35  C   UNL     1       5.068   5.117  16.263  0.00  0.00    +0.000 C 
ATOM     36  C   UNL     1       6.484   5.661  16.087  0.00  0.00    +0.000 C 
ATOM     37  C   UNL     1       7.079   6.173  17.395  0.00  0.00    +0.000 C 
ATOM     38  C   UNL     1       6.994   5.124  18.503  0.00  0.00    +0.000 C 
ENDBRANCH  30  33
ENDBRANCH   1  29
TORSDOF 4
ENDMDL
