MODEL 1
REMARK VINA RESULT:      -8.8      0.000      0.000
REMARK  Name = 
REMARK  14 active torsions:
REMARK  status: ('A' for Active; 'I' for Inactive)
REMARK    1  A    between atoms: C_1  and  C_2
REMARK    2  A    between atoms: C_2  and  C_3
REMARK    3  A    between atoms: C_3  and  C_4
REMARK    4  A    between atoms: C_4  and  C_5
REMARK    5  A    between atoms: C_5  and  C_6
REMARK    6  A    between atoms: C_6  and  C_7
REMARK    7  A    between atoms: C_7  and  C_8
REMARK    8  A    between atoms: C_8  and  S_9
REMARK    9  A    between atoms: S_9  and  N_12
REMARK   10  A    between atoms: N_12  and  C_13
REMARK   11  A    between atoms: C_15  and  C_16
REMARK   12  A    between atoms: C_19  and  C_20
REMARK   13  A    between atoms: C_30  and  C_31
REMARK   14  A    between atoms: C_31  and  O_33
REMARK                            x       y       z     vdW  Elec       q    Type
REMARK                         _______ _______ _______ _____ _____    ______ ____
ROOT
ATOM      1  C   UNL     1       4.728   4.743  18.821  0.00  0.00    +0.000 A 
ATOM      2  C   UNL     1       4.182   6.037  18.754  0.00  0.00    +0.000 A 
ATOM      3  C   UNL     1       2.806   6.248  18.532  0.00  0.00    +0.000 A 
ATOM      4  C   UNL     1       2.035   5.131  18.176  0.00  0.00    +0.000 A 
ATOM      5  C   UNL     1       2.576   3.845  18.186  0.00  0.00    +0.000 A 
ATOM      6  C   UNL     1       3.902   3.635  18.582  0.00  0.00    +0.000 A 
ENDROOT
BRANCH   3   7
ATOM      7  C   UNL     1       2.162   7.561  18.775  0.00  0.00    +0.000 A 
ATOM      8  C   UNL     1       1.637   7.916  20.025  0.00  0.00    +0.000 A 
ATOM      9  C   UNL     1       1.115   9.195  20.265  0.00  0.00    +0.000 A 
ATOM     10  C   UNL     1       1.098  10.188  19.272  0.00  0.00    +0.000 A 
ATOM     11  C   UNL     1       1.630   9.834  18.024  0.00  0.00    +0.000 A 
ATOM     12  C   UNL     1       2.149   8.552  17.782  0.00  0.00    +0.000 A 
BRANCH  10  13
ATOM     13  C   UNL     1       0.526  11.531  19.531  0.00  0.00    +0.000 A 
ATOM     14  C   UNL     1      -0.090  11.842  20.759  0.00  0.00    +0.000 A 
ATOM     15  C   UNL     1      -0.692  13.084  20.984  0.00  0.00    +0.000 A 
ATOM     16  C   UNL     1      -0.672  14.058  19.992  0.00  0.00    +0.000 A 
ATOM     17  C   UNL     1      -0.044  13.793  18.780  0.00  0.00    +0.000 A 
ATOM     18  C   UNL     1       0.546  12.544  18.553  0.00  0.00    +0.000 A 
ENDBRANCH  10  13
ENDBRANCH   3   7
BRANCH   1  19
ATOM     19  N   UNL     1       6.141   4.633  19.136  0.00  0.00    +0.000 N 
ATOM     20  H   UNL     1       6.410   5.312  19.858  0.00  0.00    +0.000 HD
BRANCH  19  21
ATOM     21  S   UNL     1       7.194   5.029  17.802  0.00  0.00    +0.000 S 
ATOM     22  O   UNL     1       6.323   5.245  16.665  0.00  0.00    +0.000 OA
ATOM     23  O   UNL     1       8.282   4.084  17.794  0.00  0.00    +0.000 OA
BRANCH  21  24
ATOM     24  C   UNL     1       7.780   6.619  18.418  0.00  0.00    +0.000 C 
BRANCH  24  25
ATOM     25  C   UNL     1       7.239   7.783  17.595  0.00  0.00    +0.000 C 
BRANCH  25  26
ATOM     26  C   UNL     1       8.146   9.018  17.666  0.00  0.00    +0.000 C 
BRANCH  26  27
ATOM     27  C   UNL     1       8.878   9.082  19.010  0.00  0.00    +0.000 C 
BRANCH  27  28
ATOM     28  C   UNL     1       9.318  10.505  19.354  0.00  0.00    +0.000 C 
BRANCH  28  29
ATOM     29  C   UNL     1       9.530  11.339  18.090  0.00  0.00    +0.000 C 
BRANCH  29  31
ATOM     30  C   UNL     1      11.742  12.055  19.058  0.00  0.00    +0.000 C 
ATOM     31  C   UNL     1      11.016  11.566  17.815  0.00  0.00    +0.000 C 
ENDBRANCH  29  31
ENDBRANCH  28  29
ENDBRANCH  27  28
ENDBRANCH  26  27
ENDBRANCH  25  26
ENDBRANCH  24  25
ENDBRANCH  21  24
ENDBRANCH  19  21
ENDBRANCH   1  19
BRANCH   6  32
ATOM     32  C   UNL     1       4.254   2.217  18.851  0.00  0.00    +0.000 C 
ATOM     33  O   UNL     1       3.675   1.283  18.330  0.00  0.00    +0.000 OA
BRANCH  32  34
ATOM     34  O   UNL     1       5.121   2.058  19.885  0.00  0.00    +0.000 OA
ATOM     35  H   UNL     1       4.967   1.205  20.339  0.00  0.00    +0.000 HD
ENDBRANCH  32  34
ENDBRANCH   6  32
TORSDOF 13
ENDMDL
MODEL 2
REMARK VINA RESULT:      -8.6      0.658      1.246
REMARK  Name = 
REMARK  14 active torsions:
REMARK  status: ('A' for Active; 'I' for Inactive)
REMARK    1  A    between atoms: C_1  and  C_2
REMARK    2  A    between atoms: C_2  and  C_3
REMARK    3  A    between atoms: C_3  and  C_4
REMARK    4  A    between atoms: C_4  and  C_5
REMARK    5  A    between atoms: C_5  and  C_6
REMARK    6  A    between atoms: C_6  and  C_7
REMARK    7  A    between atoms: C_7  and  C_8
REMARK    8  A    between atoms: C_8  and  S_9
REMARK    9  A    between atoms: S_9  and  N_12
REMARK   10  A    between atoms: N_12  and  C_13
REMARK   11  A    between atoms: C_15  and  C_16
REMARK   12  A    between atoms: C_19  and  C_20
REMARK   13  A    between atoms: C_30  and  C_31
REMARK   14  A    between atoms: C_31  and  O_33
REMARK                            x       y       z     vdW  Elec       q    Type
REMARK                         _______ _______ _______ _____ _____    ______ ____
ROOT
ATOM      1  C   UNL     1       4.793   4.376  18.848  0.00  0.00    +0.000 A 
ATOM      2  C   UNL     1       4.291   5.681  18.709  0.00  0.00    +0.000 A 
ATOM      3  C   UNL     1       2.906   5.942  18.692  0.00  0.00    +0.000 A 
ATOM      4  C   UNL     1       2.045   4.837  18.613  0.00  0.00    +0.000 A 
ATOM      5  C   UNL     1       2.534   3.532  18.697  0.00  0.00    +0.000 A 
ATOM      6  C   UNL     1       3.900   3.296  18.891  0.00  0.00    +0.000 A 
ENDROOT
BRANCH   3   7
ATOM      7  C   UNL     1       2.361   7.309  18.869  0.00  0.00    +0.000 A 
ATOM      8  C   UNL     1       2.228   8.206  17.800  0.00  0.00    +0.000 A 
ATOM      9  C   UNL     1       1.624   9.461  17.965  0.00  0.00    +0.000 A 
ATOM     10  C   UNL     1       1.117   9.883  19.205  0.00  0.00    +0.000 A 
ATOM     11  C   UNL     1       1.243   8.982  20.272  0.00  0.00    +0.000 A 
ATOM     12  C   UNL     1       1.851   7.727  20.108  0.00  0.00    +0.000 A 
BRANCH  10  13
ATOM     13  C   UNL     1       0.498  11.220  19.372  0.00  0.00    +0.000 A 
ATOM     14  C   UNL     1      -0.876  11.364  19.645  0.00  0.00    +0.000 A 
ATOM     15  C   UNL     1      -1.477  12.624  19.735  0.00  0.00    +0.000 A 
ATOM     16  C   UNL     1      -0.713  13.774  19.578  0.00  0.00    +0.000 A 
ATOM     17  C   UNL     1       0.653  13.665  19.339  0.00  0.00    +0.000 A 
ATOM     18  C   UNL     1       1.249  12.403  19.236  0.00  0.00    +0.000 A 
ENDBRANCH  10  13
ENDBRANCH   3   7
BRANCH   1  19
ATOM     19  N   UNL     1       6.234   4.223  18.937  0.00  0.00    +0.000 N 
ATOM     20  H   UNL     1       6.598   4.662  19.791  0.00  0.00    +0.000 HD
BRANCH  19  21
ATOM     21  S   UNL     1       7.110   5.039  17.666  0.00  0.00    +0.000 S 
ATOM     22  O   UNL     1       6.100   5.610  16.799  0.00  0.00    +0.000 OA
ATOM     23  O   UNL     1       8.145   4.153  17.196  0.00  0.00    +0.000 OA
BRANCH  21  24
ATOM     24  C   UNL     1       7.843   6.342  18.672  0.00  0.00    +0.000 C 
BRANCH  24  25
ATOM     25  C   UNL     1       7.811   7.694  17.967  0.00  0.00    +0.000 C 
BRANCH  25  26
ATOM     26  C   UNL     1       8.687   8.739  18.667  0.00  0.00    +0.000 C 
BRANCH  26  27
ATOM     27  C   UNL     1       8.451  10.133  18.078  0.00  0.00    +0.000 C 
BRANCH  27  28
ATOM     28  C   UNL     1       9.407  11.171  18.667  0.00  0.00    +0.000 C 
BRANCH  28  29
ATOM     29  C   UNL     1      10.594  11.421  17.735  0.00  0.00    +0.000 C 
BRANCH  29  31
ATOM     30  C   UNL     1      11.599  12.152  19.925  0.00  0.00    +0.000 C 
ATOM     31  C   UNL     1      11.661  12.280  18.412  0.00  0.00    +0.000 C 
ENDBRANCH  29  31
ENDBRANCH  28  29
ENDBRANCH  27  28
ENDBRANCH  26  27
ENDBRANCH  25  26
ENDBRANCH  24  25
ENDBRANCH  21  24
ENDBRANCH  19  21
ENDBRANCH   1  19
BRANCH   6  32
ATOM     32  C   UNL     1       4.241   1.902  19.276  0.00  0.00    +0.000 C 
ATOM     33  O   UNL     1       4.984   1.635  20.202  0.00  0.00    +0.000 OA
BRANCH  32  34
ATOM     34  O   UNL     1       3.830   0.973  18.374  0.00  0.00    +0.000 OA
ATOM     35  H   UNL     1       4.495   0.859  17.665  0.00  0.00    +0.000 HD
ENDBRANCH  32  34
ENDBRANCH   6  32
TORSDOF 13
ENDMDL
MODEL 3
REMARK VINA RESULT:      -8.5      3.268      4.882
REMARK  Name = 
REMARK  14 active torsions:
REMARK  status: ('A' for Active; 'I' for Inactive)
REMARK    1  A    between atoms: C_1  and  C_2
REMARK    2  A    between atoms: C_2  and  C_3
REMARK    3  A    between atoms: C_3  and  C_4
REMARK    4  A    between atoms: C_4  and  C_5
REMARK    5  A    between atoms: C_5  and  C_6
REMARK    6  A    between atoms: C_6  and  C_7
REMARK    7  A    between atoms: C_7  and  C_8
REMARK    8  A    between atoms: C_8  and  S_9
REMARK    9  A    between atoms: S_9  and  N_12
REMARK   10  A    between atoms: N_12  and  C_13
REMARK   11  A    between atoms: C_15  and  C_16
REMARK   12  A    between atoms: C_19  and  C_20
REMARK   13  A    between atoms: C_30  and  C_31
REMARK   14  A    between atoms: C_31  and  O_33
REMARK                            x       y       z     vdW  Elec       q    Type
REMARK                         _______ _______ _______ _____ _____    ______ ____
ROOT
ATOM      1  C   UNL     1       4.556   4.789  18.914  0.00  0.00    +0.000 A 
ATOM      2  C   UNL     1       4.042   6.096  18.875  0.00  0.00    +0.000 A 
ATOM      3  C   UNL     1       2.700   6.353  18.529  0.00  0.00    +0.000 A 
ATOM      4  C   UNL     1       1.950   5.278  18.027  0.00  0.00    +0.000 A 
ATOM      5  C   UNL     1       2.465   3.981  18.010  0.00  0.00    +0.000 A 
ATOM      6  C   UNL     1       3.740   3.717  18.523  0.00  0.00    +0.000 A 
ENDROOT
BRANCH   3   7
ATOM      7  C   UNL     1       2.057   7.663  18.789  0.00  0.00    +0.000 A 
ATOM      8  C   UNL     1       1.576   8.021  20.056  0.00  0.00    +0.000 A 
ATOM      9  C   UNL     1       1.055   9.299  20.308  0.00  0.00    +0.000 A 
ATOM     10  C   UNL     1       0.995  10.286  19.311  0.00  0.00    +0.000 A 
ATOM     11  C   UNL     1       1.484   9.929  18.046  0.00  0.00    +0.000 A 
ATOM     12  C   UNL     1       2.001   8.649  17.792  0.00  0.00    +0.000 A 
BRANCH  10  13
ATOM     13  C   UNL     1       0.425  11.627  19.585  0.00  0.00    +0.000 A 
ATOM     14  C   UNL     1       0.198  12.554  18.550  0.00  0.00    +0.000 A 
ATOM     15  C   UNL     1      -0.275  13.845  18.810  0.00  0.00    +0.000 A 
ATOM     16  C   UNL     1      -0.556  14.233  20.115  0.00  0.00    +0.000 A 
ATOM     17  C   UNL     1      -0.372  13.330  21.156  0.00  0.00    +0.000 A 
ATOM     18  C   UNL     1       0.114  12.044  20.894  0.00  0.00    +0.000 A 
ENDBRANCH  10  13
ENDBRANCH   3   7
BRANCH   1  19
ATOM     19  N   UNL     1       5.927   4.626  19.362  0.00  0.00    +0.000 N 
ATOM     20  H   UNL     1       6.128   5.240  20.160  0.00  0.00    +0.000 HD
BRANCH  19  21
ATOM     21  S   UNL     1       7.118   5.106  18.179  0.00  0.00    +0.000 S 
ATOM     22  O   UNL     1       8.365   4.511  18.615  0.00  0.00    +0.000 OA
ATOM     23  O   UNL     1       6.961   6.517  17.934  0.00  0.00    +0.000 OA
BRANCH  21  24
ATOM     24  C   UNL     1       6.464   4.175  16.782  0.00  0.00    +0.000 C 
BRANCH  24  25
ATOM     25  C   UNL     1       7.058   4.642  15.457  0.00  0.00    +0.000 C 
BRANCH  25  26
ATOM     26  C   UNL     1       5.985   5.131  14.477  0.00  0.00    +0.000 C 
BRANCH  26  27
ATOM     27  C   UNL     1       5.344   3.954  13.737  0.00  0.00    +0.000 C 
BRANCH  27  28
ATOM     28  C   UNL     1       5.974   3.732  12.362  0.00  0.00    +0.000 C 
BRANCH  28  29
ATOM     29  C   UNL     1       5.178   2.710  11.547  0.00  0.00    +0.000 C 
BRANCH  29  31
ATOM     30  C   UNL     1       3.472   3.803  10.052  0.00  0.00    +0.000 C 
ATOM     31  C   UNL     1       3.718   3.136  11.395  0.00  0.00    +0.000 C 
ENDBRANCH  29  31
ENDBRANCH  28  29
ENDBRANCH  27  28
ENDBRANCH  26  27
ENDBRANCH  25  26
ENDBRANCH  24  25
ENDBRANCH  21  24
ENDBRANCH  19  21
ENDBRANCH   1  19
BRANCH   6  32
ATOM     32  C   UNL     1       4.038   2.277  18.736  0.00  0.00    +0.000 C 
ATOM     33  O   UNL     1       3.403   1.386  18.205  0.00  0.00    +0.000 OA
BRANCH  32  34
ATOM     34  O   UNL     1       4.930   2.048  19.735  0.00  0.00    +0.000 OA
ATOM     35  H   UNL     1       5.693   1.530  19.407  0.00  0.00    +0.000 HD
ENDBRANCH  32  34
ENDBRANCH   6  32
TORSDOF 13
ENDMDL
MODEL 4
REMARK VINA RESULT:      -8.4      1.011      1.315
REMARK  Name = 
REMARK  14 active torsions:
REMARK  status: ('A' for Active; 'I' for Inactive)
REMARK    1  A    between atoms: C_1  and  C_2
REMARK    2  A    between atoms: C_2  and  C_3
REMARK    3  A    between atoms: C_3  and  C_4
REMARK    4  A    between atoms: C_4  and  C_5
REMARK    5  A    between atoms: C_5  and  C_6
REMARK    6  A    between atoms: C_6  and  C_7
REMARK    7  A    between atoms: C_7  and  C_8
REMARK    8  A    between atoms: C_8  and  S_9
REMARK    9  A    between atoms: S_9  and  N_12
REMARK   10  A    between atoms: N_12  and  C_13
REMARK   11  A    between atoms: C_15  and  C_16
REMARK   12  A    between atoms: C_19  and  C_20
REMARK   13  A    between atoms: C_30  and  C_31
REMARK   14  A    between atoms: C_31  and  O_33
REMARK                            x       y       z     vdW  Elec       q    Type
REMARK                         _______ _______ _______ _____ _____    ______ ____
ROOT
ATOM      1  C   UNL     1       4.421   4.356  18.195  0.00  0.00    +0.000 A 
ATOM      2  C   UNL     1       3.816   5.608  17.990  0.00  0.00    +0.000 A 
ATOM      3  C   UNL     1       2.668   6.001  18.707  0.00  0.00    +0.000 A 
ATOM      4  C   UNL     1       2.030   5.021  19.483  0.00  0.00    +0.000 A 
ATOM      5  C   UNL     1       2.591   3.755  19.654  0.00  0.00    +0.000 A 
ATOM      6  C   UNL     1       3.826   3.441  19.075  0.00  0.00    +0.000 A 
ENDROOT
BRANCH   3   7
ATOM      7  C   UNL     1       2.209   7.410  18.747  0.00  0.00    +0.000 A 
ATOM      8  C   UNL     1       1.638   7.977  19.894  0.00  0.00    +0.000 A 
ATOM      9  C   UNL     1       1.295   9.336  19.947  0.00  0.00    +0.000 A 
ATOM     10  C   UNL     1       1.510  10.199  18.860  0.00  0.00    +0.000 A 
ATOM     11  C   UNL     1       2.088   9.632  17.716  0.00  0.00    +0.000 A 
ATOM     12  C   UNL     1       2.428   8.271  17.661  0.00  0.00    +0.000 A 
BRANCH  10  13
ATOM     13  C   UNL     1       1.125  11.630  18.921  0.00  0.00    +0.000 A 
ATOM     14  C   UNL     1      -0.199  12.023  19.197  0.00  0.00    +0.000 A 
ATOM     15  C   UNL     1      -0.582  13.368  19.187  0.00  0.00    +0.000 A 
ATOM     16  C   UNL     1       0.357  14.358  18.924  0.00  0.00    +0.000 A 
ATOM     17  C   UNL     1       1.679  14.004  18.678  0.00  0.00    +0.000 A 
ATOM     18  C   UNL     1       2.057  12.656  18.675  0.00  0.00    +0.000 A 
ENDBRANCH  10  13
ENDBRANCH   3   7
BRANCH   1  19
ATOM     19  N   UNL     1       5.647   4.082  17.467  0.00  0.00    +0.000 N 
ATOM     20  H   UNL     1       5.901   3.089  17.536  0.00  0.00    +0.000 HD
BRANCH  19  21
ATOM     21  S   UNL     1       7.049   4.898  18.110  0.00  0.00    +0.000 S 
ATOM     22  O   UNL     1       8.187   4.097  17.710  0.00  0.00    +0.000 OA
ATOM     23  O   UNL     1       6.773   5.248  19.480  0.00  0.00    +0.000 OA
BRANCH  21  24
ATOM     24  C   UNL     1       6.964   6.376  17.082  0.00  0.00    +0.000 C 
BRANCH  24  25
ATOM     25  C   UNL     1       7.028   7.653  17.912  0.00  0.00    +0.000 C 
BRANCH  25  26
ATOM     26  C   UNL     1       8.175   8.574  17.479  0.00  0.00    +0.000 C 
BRANCH  26  27
ATOM     27  C   UNL     1       8.679   9.410  18.659  0.00  0.00    +0.000 C 
BRANCH  27  28
ATOM     28  C   UNL     1       8.909  10.871  18.268  0.00  0.00    +0.000 C 
BRANCH  28  29
ATOM     29  C   UNL     1      10.367  11.116  17.876  0.00  0.00    +0.000 C 
BRANCH  29  31
ATOM     30  C   UNL     1      10.914  11.794  20.238  0.00  0.00    +0.000 C 
ATOM     31  C   UNL     1      11.013  12.173  18.769  0.00  0.00    +0.000 C 
ENDBRANCH  29  31
ENDBRANCH  28  29
ENDBRANCH  27  28
ENDBRANCH  26  27
ENDBRANCH  25  26
ENDBRANCH  24  25
ENDBRANCH  21  24
ENDBRANCH  19  21
ENDBRANCH   1  19
BRANCH   6  32
ATOM     32  C   UNL     1       4.454   2.195  19.586  0.00  0.00    +0.000 C 
ATOM     33  O   UNL     1       5.121   2.160  20.602  0.00  0.00    +0.000 OA
BRANCH  32  34
ATOM     34  O   UNL     1       4.399   1.159  18.708  0.00  0.00    +0.000 OA
ATOM     35  H   UNL     1       5.129   0.528  18.870  0.00  0.00    +0.000 HD
ENDBRANCH  32  34
ENDBRANCH   6  32
TORSDOF 13
ENDMDL
MODEL 5
REMARK VINA RESULT:      -8.4      3.569      5.221
REMARK  Name = 
REMARK  14 active torsions:
REMARK  status: ('A' for Active; 'I' for Inactive)
REMARK    1  A    between atoms: C_1  and  C_2
REMARK    2  A    between atoms: C_2  and  C_3
REMARK    3  A    between atoms: C_3  and  C_4
REMARK    4  A    between atoms: C_4  and  C_5
REMARK    5  A    between atoms: C_5  and  C_6
REMARK    6  A    between atoms: C_6  and  C_7
REMARK    7  A    between atoms: C_7  and  C_8
REMARK    8  A    between atoms: C_8  and  S_9
REMARK    9  A    between atoms: S_9  and  N_12
REMARK   10  A    between atoms: N_12  and  C_13
REMARK   11  A    between atoms: C_15  and  C_16
REMARK   12  A    between atoms: C_19  and  C_20
REMARK   13  A    between atoms: C_30  and  C_31
REMARK   14  A    between atoms: C_31  and  O_33
REMARK                            x       y       z     vdW  Elec       q    Type
REMARK                         _______ _______ _______ _____ _____    ______ ____
ROOT
ATOM      1  C   UNL     1       3.566   5.066  18.150  0.00  0.00    +0.000 A 
ATOM      2  C   UNL     1       2.839   6.268  18.120  0.00  0.00    +0.000 A 
ATOM      3  C   UNL     1       2.174   6.759  19.262  0.00  0.00    +0.000 A 
ATOM      4  C   UNL     1       2.092   5.905  20.373  0.00  0.00    +0.000 A 
ATOM      5  C   UNL     1       2.764   4.682  20.397  0.00  0.00    +0.000 A 
ATOM      6  C   UNL     1       3.566   4.291  19.318  0.00  0.00    +0.000 A 
ENDROOT
BRANCH   3   7
ATOM      7  C   UNL     1       1.683   8.154  19.348  0.00  0.00    +0.000 A 
ATOM      8  C   UNL     1       1.167   8.694  20.534  0.00  0.00    +0.000 A 
ATOM      9  C   UNL     1       0.793  10.043  20.625  0.00  0.00    +0.000 A 
ATOM     10  C   UNL     1       0.921  10.923  19.539  0.00  0.00    +0.000 A 
ATOM     11  C   UNL     1       1.444  10.384  18.354  0.00  0.00    +0.000 A 
ATOM     12  C   UNL     1       1.815   9.033  18.262  0.00  0.00    +0.000 A 
BRANCH  10  13
ATOM     13  C   UNL     1       0.504  12.342  19.641  0.00  0.00    +0.000 A 
ATOM     14  C   UNL     1      -0.404  12.772  20.628  0.00  0.00    +0.000 A 
ATOM     15  C   UNL     1      -0.854  14.095  20.686  0.00  0.00    +0.000 A 
ATOM     16  C   UNL     1      -0.387  15.030  19.769  0.00  0.00    +0.000 A 
ATOM     17  C   UNL     1       0.534  14.644  18.801  0.00  0.00    +0.000 A 
ATOM     18  C   UNL     1       0.971  13.316  18.738  0.00  0.00    +0.000 A 
ENDBRANCH  10  13
ENDBRANCH   3   7
BRANCH   1  19
ATOM     19  N   UNL     1       4.282   4.691  16.944  0.00  0.00    +0.000 N 
ATOM     20  H   UNL     1       4.689   3.752  17.035  0.00  0.00    +0.000 HD
BRANCH  19  21
ATOM     21  S   UNL     1       5.668   5.695  16.605  0.00  0.00    +0.000 S 
ATOM     22  O   UNL     1       6.198   6.081  17.897  0.00  0.00    +0.000 OA
ATOM     23  O   UNL     1       5.295   6.646  15.589  0.00  0.00    +0.000 OA
BRANCH  21  24
ATOM     24  C   UNL     1       6.720   4.423  15.881  0.00  0.00    +0.000 C 
BRANCH  24  25
ATOM     25  C   UNL     1       6.197   3.951  14.529  0.00  0.00    +0.000 C 
BRANCH  25  26
ATOM     26  C   UNL     1       7.185   4.234  13.391  0.00  0.00    +0.000 C 
BRANCH  26  27
ATOM     27  C   UNL     1       6.515   4.046  12.027  0.00  0.00    +0.000 C 
BRANCH  27  28
ATOM     28  C   UNL     1       5.457   2.942  12.057  0.00  0.00    +0.000 C 
BRANCH  28  29
ATOM     29  C   UNL     1       4.063   3.505  11.773  0.00  0.00    +0.000 C 
BRANCH  29  31
ATOM     30  C   UNL     1       2.942   4.203   9.628  0.00  0.00    +0.000 C 
ATOM     31  C   UNL     1       3.544   3.047  10.411  0.00  0.00    +0.000 C 
ENDBRANCH  29  31
ENDBRANCH  28  29
ENDBRANCH  27  28
ENDBRANCH  26  27
ENDBRANCH  25  26
ENDBRANCH  24  25
ENDBRANCH  21  24
ENDBRANCH  19  21
ENDBRANCH   1  19
BRANCH   6  32
ATOM     32  C   UNL     1       4.465   3.141  19.597  0.00  0.00    +0.000 C 
ATOM     33  O   UNL     1       4.188   2.264  20.393  0.00  0.00    +0.000 OA
BRANCH  32  34
ATOM     34  O   UNL     1       5.703   3.274  19.054  0.00  0.00    +0.000 OA
ATOM     35  H   UNL     1       6.296   2.559  19.363  0.00  0.00    +0.000 HD
ENDBRANCH  32  34
ENDBRANCH   6  32
TORSDOF 13
ENDMDL
MODEL 6
REMARK VINA RESULT:      -8.3      0.786      1.253
REMARK  Name = 
REMARK  14 active torsions:
REMARK  status: ('A' for Active; 'I' for Inactive)
REMARK    1  A    between atoms: C_1  and  C_2
REMARK    2  A    between atoms: C_2  and  C_3
REMARK    3  A    between atoms: C_3  and  C_4
REMARK    4  A    between atoms: C_4  and  C_5
REMARK    5  A    between atoms: C_5  and  C_6
REMARK    6  A    between atoms: C_6  and  C_7
REMARK    7  A    between atoms: C_7  and  C_8
REMARK    8  A    between atoms: C_8  and  S_9
REMARK    9  A    between atoms: S_9  and  N_12
REMARK   10  A    between atoms: N_12  and  C_13
REMARK   11  A    between atoms: C_15  and  C_16
REMARK   12  A    between atoms: C_19  and  C_20
REMARK   13  A    between atoms: C_30  and  C_31
REMARK   14  A    between atoms: C_31  and  O_33
REMARK                            x       y       z     vdW  Elec       q    Type
REMARK                         _______ _______ _______ _____ _____    ______ ____
ROOT
ATOM      1  C   UNL     1       4.695   4.603  18.666  0.00  0.00    +0.000 A 
ATOM      2  C   UNL     1       4.178   5.910  18.627  0.00  0.00    +0.000 A 
ATOM      3  C   UNL     1       2.806   6.156  18.422  0.00  0.00    +0.000 A 
ATOM      4  C   UNL     1       2.006   5.063  18.054  0.00  0.00    +0.000 A 
ATOM      5  C   UNL     1       2.518   3.765  18.035  0.00  0.00    +0.000 A 
ATOM      6  C   UNL     1       3.843   3.519  18.415  0.00  0.00    +0.000 A 
ENDROOT
BRANCH   3   7
ATOM      7  C   UNL     1       2.194   7.478  18.694  0.00  0.00    +0.000 A 
ATOM      8  C   UNL     1       1.665   7.813  19.949  0.00  0.00    +0.000 A 
ATOM      9  C   UNL     1       1.175   9.099  20.219  0.00  0.00    +0.000 A 
ATOM     10  C   UNL     1       1.193  10.118  19.252  0.00  0.00    +0.000 A 
ATOM     11  C   UNL     1       1.729   9.784  18.000  0.00  0.00    +0.000 A 
ATOM     12  C   UNL     1       2.216   8.496  17.729  0.00  0.00    +0.000 A 
BRANCH  10  13
ATOM     13  C   UNL     1       0.654  11.468  19.543  0.00  0.00    +0.000 A 
ATOM     14  C   UNL     1      -0.069  12.194  18.577  0.00  0.00    +0.000 A 
ATOM     15  C   UNL     1      -0.520  13.495  18.822  0.00  0.00    +0.000 A 
ATOM     16  C   UNL     1      -0.279  14.095  20.053  0.00  0.00    +0.000 A 
ATOM     17  C   UNL     1       0.404  13.392  21.039  0.00  0.00    +0.000 A 
ATOM     18  C   UNL     1       0.866  12.096  20.786  0.00  0.00    +0.000 A 
ENDBRANCH  10  13
ENDBRANCH   3   7
BRANCH   1  19
ATOM     19  N   UNL     1       6.108   4.456  18.965  0.00  0.00    +0.000 N 
ATOM     20  H   UNL     1       6.364   4.989  19.805  0.00  0.00    +0.000 HD
BRANCH  19  21
ATOM     21  S   UNL     1       7.163   5.113  17.739  0.00  0.00    +0.000 S 
ATOM     22  O   UNL     1       6.287   5.651  16.718  0.00  0.00    +0.000 OA
ATOM     23  O   UNL     1       8.191   4.141  17.465  0.00  0.00    +0.000 OA
BRANCH  21  24
ATOM     24  C   UNL     1       7.854   6.465  18.710  0.00  0.00    +0.000 C 
BRANCH  24  25
ATOM     25  C   UNL     1       7.934   7.760  17.909  0.00  0.00    +0.000 C 
BRANCH  25  26
ATOM     26  C   UNL     1       8.735   8.846  18.636  0.00  0.00    +0.000 C 
BRANCH  26  27
ATOM     27  C   UNL     1       8.429  10.230  18.056  0.00  0.00    +0.000 C 
BRANCH  27  28
ATOM     28  C   UNL     1       9.674  11.116  18.003  0.00  0.00    +0.000 C 
BRANCH  28  29
ATOM     29  C   UNL     1      10.235  11.366  19.404  0.00  0.00    +0.000 C 
BRANCH  29  31
ATOM     30  C   UNL     1       9.263  12.097  21.609  0.00  0.00    +0.000 C 
ATOM     31  C   UNL     1       9.437  12.442  20.139  0.00  0.00    +0.000 C 
ENDBRANCH  29  31
ENDBRANCH  28  29
ENDBRANCH  27  28
ENDBRANCH  26  27
ENDBRANCH  25  26
ENDBRANCH  24  25
ENDBRANCH  21  24
ENDBRANCH  19  21
ENDBRANCH   1  19
BRANCH   6  32
ATOM     32  C   UNL     1       4.165   2.088  18.655  0.00  0.00    +0.000 C 
ATOM     33  O   UNL     1       3.585   1.177  18.095  0.00  0.00    +0.000 OA
BRANCH  32  34
ATOM     34  O   UNL     1       5.003   1.888  19.706  0.00  0.00    +0.000 OA
ATOM     35  H   UNL     1       5.554   1.092  19.564  0.00  0.00    +0.000 HD
ENDBRANCH  32  34
ENDBRANCH   6  32
TORSDOF 13
ENDMDL
MODEL 7
REMARK VINA RESULT:      -8.3      3.183      4.648
REMARK  Name = 
REMARK  14 active torsions:
REMARK  status: ('A' for Active; 'I' for Inactive)
REMARK    1  A    between atoms: C_1  and  C_2
REMARK    2  A    between atoms: C_2  and  C_3
REMARK    3  A    between atoms: C_3  and  C_4
REMARK    4  A    between atoms: C_4  and  C_5
REMARK    5  A    between atoms: C_5  and  C_6
REMARK    6  A    between atoms: C_6  and  C_7
REMARK    7  A    between atoms: C_7  and  C_8
REMARK    8  A    between atoms: C_8  and  S_9
REMARK    9  A    between atoms: S_9  and  N_12
REMARK   10  A    between atoms: N_12  and  C_13
REMARK   11  A    between atoms: C_15  and  C_16
REMARK   12  A    between atoms: C_19  and  C_20
REMARK   13  A    between atoms: C_30  and  C_31
REMARK   14  A    between atoms: C_31  and  O_33
REMARK                            x       y       z     vdW  Elec       q    Type
REMARK                         _______ _______ _______ _____ _____    ______ ____
ROOT
ATOM      1  C   UNL     1       4.734   4.696  19.196  0.00  0.00    +0.000 A 
ATOM      2  C   UNL     1       4.191   5.984  19.052  0.00  0.00    +0.000 A 
ATOM      3  C   UNL     1       2.865   6.184  18.619  0.00  0.00    +0.000 A 
ATOM      4  C   UNL     1       2.171   5.062  18.141  0.00  0.00    +0.000 A 
ATOM      5  C   UNL     1       2.718   3.781  18.228  0.00  0.00    +0.000 A 
ATOM      6  C   UNL     1       3.968   3.582  18.825  0.00  0.00    +0.000 A 
ENDROOT
BRANCH   3   7
ATOM      7  C   UNL     1       2.177   7.488  18.765  0.00  0.00    +0.000 A 
ATOM      8  C   UNL     1       1.706   7.950  20.002  0.00  0.00    +0.000 A 
ATOM      9  C   UNL     1       1.141   9.226  20.142  0.00  0.00    +0.000 A 
ATOM     10  C   UNL     1       1.023  10.109  19.056  0.00  0.00    +0.000 A 
ATOM     11  C   UNL     1       1.502   9.649  17.821  0.00  0.00    +0.000 A 
ATOM     12  C   UNL     1       2.064   8.370  17.680  0.00  0.00    +0.000 A 
BRANCH  10  13
ATOM     13  C   UNL     1       0.407  11.448  19.212  0.00  0.00    +0.000 A 
ATOM     14  C   UNL     1       1.175  12.625  19.124  0.00  0.00    +0.000 A 
ATOM     15  C   UNL     1       0.611  13.887  19.339  0.00  0.00    +0.000 A 
ATOM     16  C   UNL     1      -0.744  14.005  19.625  0.00  0.00    +0.000 A 
ATOM     17  C   UNL     1      -1.536  12.863  19.687  0.00  0.00    +0.000 A 
ATOM     18  C   UNL     1      -0.966  11.601  19.485  0.00  0.00    +0.000 A 
ENDBRANCH  10  13
ENDBRANCH   3   7
BRANCH   1  19
ATOM     19  N   UNL     1       6.081   4.597  19.727  0.00  0.00    +0.000 N 
ATOM     20  H   UNL     1       6.151   5.062  20.641  0.00  0.00    +0.000 HD
BRANCH  19  21
ATOM     21  S   UNL     1       7.282   5.425  18.767  0.00  0.00    +0.000 S 
ATOM     22  O   UNL     1       8.528   5.283  19.491  0.00  0.00    +0.000 OA
ATOM     23  O   UNL     1       6.738   6.699  18.372  0.00  0.00    +0.000 OA
BRANCH  21  24
ATOM     24  C   UNL     1       7.278   4.304  17.355  0.00  0.00    +0.000 C 
BRANCH  24  25
ATOM     25  C   UNL     1       6.625   4.934  16.129  0.00  0.00    +0.000 C 
BRANCH  25  26
ATOM     26  C   UNL     1       5.531   4.042  15.530  0.00  0.00    +0.000 C 
BRANCH  26  27
ATOM     27  C   UNL     1       5.448   4.226  14.011  0.00  0.00    +0.000 C 
BRANCH  27  28
ATOM     28  C   UNL     1       6.820   4.106  13.345  0.00  0.00    +0.000 C 
BRANCH  28  29
ATOM     29  C   UNL     1       6.692   3.614  11.902  0.00  0.00    +0.000 C 
BRANCH  29  31
ATOM     30  C   UNL     1       6.151   1.265  11.174  0.00  0.00    +0.000 C 
ATOM     31  C   UNL     1       5.603   2.551  11.771  0.00  0.00    +0.000 C 
ENDBRANCH  29  31
ENDBRANCH  28  29
ENDBRANCH  27  28
ENDBRANCH  26  27
ENDBRANCH  25  26
ENDBRANCH  24  25
ENDBRANCH  21  24
ENDBRANCH  19  21
ENDBRANCH   1  19
BRANCH   6  32
ATOM     32  C   UNL     1       4.289   2.165  19.138  0.00  0.00    +0.000 C 
ATOM     33  O   UNL     1       4.995   1.838  20.073  0.00  0.00    +0.000 OA
BRANCH  32  34
ATOM     34  O   UNL     1       3.908   1.294  18.167  0.00  0.00    +0.000 OA
ATOM     35  H   UNL     1       3.177   0.723  18.480  0.00  0.00    +0.000 HD
ENDBRANCH  32  34
ENDBRANCH   6  32
TORSDOF 13
ENDMDL
MODEL 8
REMARK VINA RESULT:      -8.2      1.087      1.453
REMARK  Name = 
REMARK  14 active torsions:
REMARK  status: ('A' for Active; 'I' for Inactive)
REMARK    1  A    between atoms: C_1  and  C_2
REMARK    2  A    between atoms: C_2  and  C_3
REMARK    3  A    between atoms: C_3  and  C_4
REMARK    4  A    between atoms: C_4  and  C_5
REMARK    5  A    between atoms: C_5  and  C_6
REMARK    6  A    between atoms: C_6  and  C_7
REMARK    7  A    between atoms: C_7  and  C_8
REMARK    8  A    between atoms: C_8  and  S_9
REMARK    9  A    between atoms: S_9  and  N_12
REMARK   10  A    between atoms: N_12  and  C_13
REMARK   11  A    between atoms: C_15  and  C_16
REMARK   12  A    between atoms: C_19  and  C_20
REMARK   13  A    between atoms: C_30  and  C_31
REMARK   14  A    between atoms: C_31  and  O_33
REMARK                            x       y       z     vdW  Elec       q    Type
REMARK                         _______ _______ _______ _____ _____    ______ ____
ROOT
ATOM      1  C   UNL     1       4.329   4.711  17.649  0.00  0.00    +0.000 A 
ATOM      2  C   UNL     1       3.772   6.001  17.639  0.00  0.00    +0.000 A 
ATOM      3  C   UNL     1       2.568   6.293  18.313  0.00  0.00    +0.000 A 
ATOM      4  C   UNL     1       1.839   5.207  18.822  0.00  0.00    +0.000 A 
ATOM      5  C   UNL     1       2.355   3.911  18.792  0.00  0.00    +0.000 A 
ATOM      6  C   UNL     1       3.633   3.667  18.275  0.00  0.00    +0.000 A 
ENDROOT
BRANCH   3   7
ATOM      7  C   UNL     1       2.136   7.684  18.586  0.00  0.00    +0.000 A 
ATOM      8  C   UNL     1       1.628   8.077  19.832  0.00  0.00    +0.000 A 
ATOM      9  C   UNL     1       1.311   9.416  20.105  0.00  0.00    +0.000 A 
ATOM     10  C   UNL     1       1.492  10.431  19.151  0.00  0.00    +0.000 A 
ATOM     11  C   UNL     1       2.008  10.038  17.908  0.00  0.00    +0.000 A 
ATOM     12  C   UNL     1       2.322   8.697  17.633  0.00  0.00    +0.000 A 
BRANCH  10  13
ATOM     13  C   UNL     1       1.135  11.840  19.445  0.00  0.00    +0.000 A 
ATOM     14  C   UNL     1       1.791  12.912  18.809  0.00  0.00    +0.000 A 
ATOM     15  C   UNL     1       1.507  14.242  19.133  0.00  0.00    +0.000 A 
ATOM     16  C   UNL     1       0.540  14.535  20.087  0.00  0.00    +0.000 A 
ATOM     17  C   UNL     1      -0.148  13.500  20.710  0.00  0.00    +0.000 A 
ATOM     18  C   UNL     1       0.148  12.169  20.394  0.00  0.00    +0.000 A 
ENDBRANCH  10  13
ENDBRANCH   3   7
BRANCH   1  19
ATOM     19  N   UNL     1       5.612   4.535  16.994  0.00  0.00    +0.000 N 
ATOM     20  H   UNL     1       5.785   3.544  16.785  0.00  0.00    +0.000 HD
BRANCH  19  21
ATOM     21  S   UNL     1       6.978   4.978  17.987  0.00  0.00    +0.000 S 
ATOM     22  O   UNL     1       8.089   4.185  17.500  0.00  0.00    +0.000 OA
ATOM     23  O   UNL     1       6.550   4.976  19.363  0.00  0.00    +0.000 OA
BRANCH  21  24
ATOM     24  C   UNL     1       7.157   6.677  17.412  0.00  0.00    +0.000 C 
BRANCH  24  25
ATOM     25  C   UNL     1       8.011   7.512  18.360  0.00  0.00    +0.000 C 
BRANCH  25  26
ATOM     26  C   UNL     1       8.053   8.991  17.957  0.00  0.00    +0.000 C 
BRANCH  26  27
ATOM     27  C   UNL     1       9.070   9.759  18.806  0.00  0.00    +0.000 C 
BRANCH  27  28
ATOM     28  C   UNL     1       9.524  11.051  18.125  0.00  0.00    +0.000 C 
BRANCH  28  29
ATOM     29  C   UNL     1       9.334  12.258  19.046  0.00  0.00    +0.000 C 
BRANCH  29  31
ATOM     30  C   UNL     1      10.542  13.589  20.809  0.00  0.00    +0.000 C 
ATOM     31  C   UNL     1      10.288  12.204  20.238  0.00  0.00    +0.000 C 
ENDBRANCH  29  31
ENDBRANCH  28  29
ENDBRANCH  27  28
ENDBRANCH  26  27
ENDBRANCH  25  26
ENDBRANCH  24  25
ENDBRANCH  21  24
ENDBRANCH  19  21
ENDBRANCH   1  19
BRANCH   6  32
ATOM     32  C   UNL     1       4.184   2.322  18.587  0.00  0.00    +0.000 C 
ATOM     33  O   UNL     1       3.665   1.291  18.203  0.00  0.00    +0.000 OA
BRANCH  32  34
ATOM     34  O   UNL     1       5.178   2.342  19.512  0.00  0.00    +0.000 OA
ATOM     35  H   UNL     1       5.421   1.433  19.781  0.00  0.00    +0.000 HD
ENDBRANCH  32  34
ENDBRANCH   6  32
TORSDOF 13
ENDMDL
MODEL 9
REMARK VINA RESULT:      -8.2      1.177      1.847
REMARK  Name = 
REMARK  14 active torsions:
REMARK  status: ('A' for Active; 'I' for Inactive)
REMARK    1  A    between atoms: C_1  and  C_2
REMARK    2  A    between atoms: C_2  and  C_3
REMARK    3  A    between atoms: C_3  and  C_4
REMARK    4  A    between atoms: C_4  and  C_5
REMARK    5  A    between atoms: C_5  and  C_6
REMARK    6  A    between atoms: C_6  and  C_7
REMARK    7  A    between atoms: C_7  and  C_8
REMARK    8  A    between atoms: C_8  and  S_9
REMARK    9  A    between atoms: S_9  and  N_12
REMARK   10  A    between atoms: N_12  and  C_13
REMARK   11  A    between atoms: C_15  and  C_16
REMARK   12  A    between atoms: C_19  and  C_20
REMARK   13  A    between atoms: C_30  and  C_31
REMARK   14  A    between atoms: C_31  and  O_33
REMARK                            x       y       z     vdW  Elec       q    Type
REMARK                         _______ _______ _______ _____ _____    ______ ____
ROOT
ATOM      1  C   UNL     1       4.269   4.463  18.651  0.00  0.00    +0.000 A 
ATOM      2  C   UNL     1       3.860   5.765  18.988  0.00  0.00    +0.000 A 
ATOM      3  C   UNL     1       2.527   6.188  18.817  0.00  0.00    +0.000 A 
ATOM      4  C   UNL     1       1.668   5.334  18.110  0.00  0.00    +0.000 A 
ATOM      5  C   UNL     1       2.076   4.057  17.721  0.00  0.00    +0.000 A 
ATOM      6  C   UNL     1       3.351   3.586  18.056  0.00  0.00    +0.000 A 
ENDROOT
BRANCH   3   7
ATOM      7  C   UNL     1       2.006   7.422  19.452  0.00  0.00    +0.000 A 
ATOM      8  C   UNL     1       1.826   8.613  18.735  0.00  0.00    +0.000 A 
ATOM      9  C   UNL     1       1.245   9.745  19.325  0.00  0.00    +0.000 A 
ATOM     10  C   UNL     1       0.808   9.744  20.660  0.00  0.00    +0.000 A 
ATOM     11  C   UNL     1       0.981   8.550  21.374  0.00  0.00    +0.000 A 
ATOM     12  C   UNL     1       1.567   7.418  20.784  0.00  0.00    +0.000 A 
BRANCH  10  13
ATOM     13  C   UNL     1       0.213  10.952  21.279  0.00  0.00    +0.000 A 
ATOM     14  C   UNL     1       0.505  12.243  20.799  0.00  0.00    +0.000 A 
ATOM     15  C   UNL     1       0.002  13.389  21.422  0.00  0.00    +0.000 A 
ATOM     16  C   UNL     1      -0.828  13.272  22.531  0.00  0.00    +0.000 A 
ATOM     17  C   UNL     1      -1.161  12.010  23.011  0.00  0.00    +0.000 A 
ATOM     18  C   UNL     1      -0.645  10.865  22.393  0.00  0.00    +0.000 A 
ENDBRANCH  10  13
ENDBRANCH   3   7
BRANCH   1  19
ATOM     19  N   UNL     1       5.644   4.101  18.943  0.00  0.00    +0.000 N 
ATOM     20  H   UNL     1       5.965   4.544  19.812  0.00  0.00    +0.000 HD
BRANCH  19  21
ATOM     21  S   UNL     1       6.791   4.672  17.758  0.00  0.00    +0.000 S 
ATOM     22  O   UNL     1       6.349   4.127  16.490  0.00  0.00    +0.000 OA
ATOM     23  O   UNL     1       8.117   4.471  18.284  0.00  0.00    +0.000 OA
BRANCH  21  24
ATOM     24  C   UNL     1       6.371   6.423  17.836  0.00  0.00    +0.000 C 
BRANCH  24  25
ATOM     25  C   UNL     1       7.498   7.304  17.307  0.00  0.00    +0.000 C 
BRANCH  25  26
ATOM     26  C   UNL     1       8.296   7.970  18.434  0.00  0.00    +0.000 C 
BRANCH  26  27
ATOM     27  C   UNL     1       8.509   9.459  18.147  0.00  0.00    +0.000 C 
BRANCH  27  28
ATOM     28  C   UNL     1       9.129  10.189  19.339  0.00  0.00    +0.000 C 
BRANCH  28  29
ATOM     29  C   UNL     1      10.235  11.145  18.887  0.00  0.00    +0.000 C 
BRANCH  29  31
ATOM     30  C   UNL     1      10.861  12.900  17.193  0.00  0.00    +0.000 C 
ATOM     31  C   UNL     1       9.719  12.142  17.850  0.00  0.00    +0.000 C 
ENDBRANCH  29  31
ENDBRANCH  28  29
ENDBRANCH  27  28
ENDBRANCH  26  27
ENDBRANCH  25  26
ENDBRANCH  24  25
ENDBRANCH  21  24
ENDBRANCH  19  21
ENDBRANCH   1  19
BRANCH   6  32
ATOM     32  C   UNL     1       3.543   2.125  17.868  0.00  0.00    +0.000 C 
ATOM     33  O   UNL     1       3.058   1.293  18.611  0.00  0.00    +0.000 OA
BRANCH  32  34
ATOM     34  O   UNL     1       4.479   1.815  16.933  0.00  0.00    +0.000 OA
ATOM     35  H   UNL     1       4.059   1.634  16.067  0.00  0.00    +0.000 HD
ENDBRANCH  32  34
ENDBRANCH   6  32
TORSDOF 13
ENDMDL
