MODEL 1
REMARK VINA RESULT:      -7.8      0.000      0.000
REMARK  Name = 
REMARK  6 active torsions:
REMARK  status: ('A' for Active; 'I' for Inactive)
REMARK    1  A    between atoms: C_2  and  C_3
REMARK    2  A    between atoms: C_4  and  C_5
REMARK    3  A    between atoms: C_8  and  C_9
REMARK    4  A    between atoms: C_9  and  O_10
REMARK    5  A    between atoms: O_10  and  C_11
REMARK    6  A    between atoms: N_19  and  O_20
REMARK                            x       y       z     vdW  Elec       q    Type
REMARK                         _______ _______ _______ _____ _____    ______ ____
ROOT
ATOM      1  C   UNL     1       5.732   4.754  15.638  0.00  0.00    +0.000 A 
ATOM      2  C   UNL     1       5.488   3.972  16.772  0.00  0.00    +0.000 A 
ATOM      3  C   UNL     1       4.836   4.515  17.885  0.00  0.00    +0.000 A 
ATOM      4  C   UNL     1       4.410   5.850  17.879  0.00  0.00    +0.000 A 
ATOM      5  C   UNL     1       4.650   6.628  16.735  0.00  0.00    +0.000 A 
ATOM      6  C   UNL     1       5.299   6.082  15.621  0.00  0.00    +0.000 A 
ENDROOT
BRANCH   1   8
ATOM      7  C   UNL     1       5.801   3.911  13.340  0.00  0.00    +0.000 C 
ATOM      8  C   UNL     1       6.437   4.183  14.489  0.00  0.00    +0.000 C 
BRANCH   7  10
ATOM      9  O   UNL     1       7.395   3.853  11.552  0.00  0.00    +0.000 OA
ATOM     10  C   UNL     1       6.517   3.291  12.198  0.00  0.00    +0.000 C 
ATOM     11  N   UNL     1       6.105   2.010  11.943  0.00  0.00    +0.000 N 
ATOM     12  H   UNL     1       5.392   1.507  12.458  0.00  0.00    +0.000 HD
BRANCH  11  13
ATOM     13  O   UNL     1       6.745   1.313  10.897  0.00  0.00    +0.000 OA
ATOM     14  H   UNL     1       6.755   1.977  10.174  0.00  0.00    +0.000 HD
ENDBRANCH  11  13
ENDBRANCH   7  10
ENDBRANCH   1   8
BRANCH   4  15
ATOM     15  C   UNL     1       3.747   6.459  19.094  0.00  0.00    +0.000 C 
BRANCH  15  16
ATOM     16  O   UNL     1       2.353   6.145  19.059  0.00  0.00    +0.000 OA
BRANCH  16  17
ATOM     17  C   UNL     1       1.988   4.964  19.651  0.00  0.00    +0.000 A 
ATOM     18  C   UNL     1       1.418   4.016  18.796  0.00  0.00    +0.000 A 
ATOM     19  C   UNL     1       1.017   2.766  19.281  0.00  0.00    +0.000 A 
ATOM     20  C   UNL     1       1.204   2.455  20.626  0.00  0.00    +0.000 A 
ATOM     21  C   UNL     1       1.792   3.387  21.479  0.00  0.00    +0.000 A 
ATOM     22  C   UNL     1       2.185   4.639  20.994  0.00  0.00    +0.000 A 
ENDBRANCH  16  17
ENDBRANCH  15  16
ENDBRANCH   4  15
TORSDOF 6
ENDMDL
MODEL 2
REMARK VINA RESULT:      -7.7      0.164      1.087
REMARK  Name = 
REMARK  6 active torsions:
REMARK  status: ('A' for Active; 'I' for Inactive)
REMARK    1  A    between atoms: C_2  and  C_3
REMARK    2  A    between atoms: C_4  and  C_5
REMARK    3  A    between atoms: C_8  and  C_9
REMARK    4  A    between atoms: C_9  and  O_10
REMARK    5  A    between atoms: O_10  and  C_11
REMARK    6  A    between atoms: N_19  and  O_20
REMARK                            x       y       z     vdW  Elec       q    Type
REMARK                         _______ _______ _______ _____ _____    ______ ____
ROOT
ATOM      1  C   UNL     1       5.672   4.720  15.748  0.00  0.00    +0.000 A 
ATOM      2  C   UNL     1       5.557   4.000  16.941  0.00  0.00    +0.000 A 
ATOM      3  C   UNL     1       4.917   4.561  18.052  0.00  0.00    +0.000 A 
ATOM      4  C   UNL     1       4.375   5.851  17.986  0.00  0.00    +0.000 A 
ATOM      5  C   UNL     1       4.485   6.567  16.783  0.00  0.00    +0.000 A 
ATOM      6  C   UNL     1       5.122   6.003  15.671  0.00  0.00    +0.000 A 
ENDROOT
BRANCH   1   8
ATOM      7  C   UNL     1       5.745   3.950  13.424  0.00  0.00    +0.000 C 
ATOM      8  C   UNL     1       6.365   4.134  14.599  0.00  0.00    +0.000 C 
BRANCH   7  10
ATOM      9  O   UNL     1       7.337   3.855  11.636  0.00  0.00    +0.000 OA
ATOM     10  C   UNL     1       6.445   3.314  12.281  0.00  0.00    +0.000 C 
ATOM     11  N   UNL     1       6.001   2.044  12.025  0.00  0.00    +0.000 N 
ATOM     12  H   UNL     1       5.275   1.559  12.539  0.00  0.00    +0.000 HD
BRANCH  11  13
ATOM     13  O   UNL     1       6.623   1.333  10.977  0.00  0.00    +0.000 OA
ATOM     14  H   UNL     1       7.428   1.869  10.804  0.00  0.00    +0.000 HD
ENDBRANCH  11  13
ENDBRANCH   7  10
ENDBRANCH   1   8
BRANCH   4  15
ATOM     15  C   UNL     1       3.723   6.483  19.196  0.00  0.00    +0.000 C 
BRANCH  15  16
ATOM     16  O   UNL     1       2.330   6.165  19.182  0.00  0.00    +0.000 OA
BRANCH  16  17
ATOM     17  C   UNL     1       1.992   4.924  19.653  0.00  0.00    +0.000 A 
ATOM     18  C   UNL     1       2.307   4.684  20.993  0.00  0.00    +0.000 A 
ATOM     19  C   UNL     1       1.998   3.458  21.592  0.00  0.00    +0.000 A 
ATOM     20  C   UNL     1       1.355   2.469  20.850  0.00  0.00    +0.000 A 
ATOM     21  C   UNL     1       1.018   2.709  19.519  0.00  0.00    +0.000 A 
ATOM     22  C   UNL     1       1.334   3.933  18.920  0.00  0.00    +0.000 A 
ENDBRANCH  16  17
ENDBRANCH  15  16
ENDBRANCH   4  15
TORSDOF 6
ENDMDL
MODEL 3
REMARK VINA RESULT:      -7.7      0.507      1.568
REMARK  Name = 
REMARK  6 active torsions:
REMARK  status: ('A' for Active; 'I' for Inactive)
REMARK    1  A    between atoms: C_2  and  C_3
REMARK    2  A    between atoms: C_4  and  C_5
REMARK    3  A    between atoms: C_8  and  C_9
REMARK    4  A    between atoms: C_9  and  O_10
REMARK    5  A    between atoms: O_10  and  C_11
REMARK    6  A    between atoms: N_19  and  O_20
REMARK                            x       y       z     vdW  Elec       q    Type
REMARK                         _______ _______ _______ _____ _____    ______ ____
ROOT
ATOM      1  C   UNL     1       5.970   4.951  15.707  0.00  0.00    +0.000 A 
ATOM      2  C   UNL     1       5.149   6.083  15.690  0.00  0.00    +0.000 A 
ATOM      3  C   UNL     1       4.533   6.532  16.864  0.00  0.00    +0.000 A 
ATOM      4  C   UNL     1       4.733   5.859  18.077  0.00  0.00    +0.000 A 
ATOM      5  C   UNL     1       5.565   4.729  18.089  0.00  0.00    +0.000 A 
ATOM      6  C   UNL     1       6.185   4.282  16.916  0.00  0.00    +0.000 A 
ENDROOT
BRANCH   1   8
ATOM      7  C   UNL     1       5.869   3.880  13.507  0.00  0.00    +0.000 C 
ATOM      8  C   UNL     1       6.590   4.474  14.469  0.00  0.00    +0.000 C 
BRANCH   7  10
ATOM      9  O   UNL     1       7.279   4.015  11.575  0.00  0.00    +0.000 OA
ATOM     10  C   UNL     1       6.516   3.361  12.276  0.00  0.00    +0.000 C 
ATOM     11  N   UNL     1       6.182   2.060  12.008  0.00  0.00    +0.000 N 
ATOM     12  H   UNL     1       5.565   1.482  12.566  0.00  0.00    +0.000 HD
BRANCH  11  13
ATOM     13  O   UNL     1       6.769   1.455  10.877  0.00  0.00    +0.000 OA
ATOM     14  H   UNL     1       6.057   1.524  10.205  0.00  0.00    +0.000 HD
ENDBRANCH  11  13
ENDBRANCH   7  10
ENDBRANCH   1   8
BRANCH   4  15
ATOM     15  C   UNL     1       4.034   6.311  19.340  0.00  0.00    +0.000 C 
BRANCH  15  16
ATOM     16  O   UNL     1       2.623   6.241  19.131  0.00  0.00    +0.000 OA
BRANCH  16  17
ATOM     17  C   UNL     1       2.058   4.999  19.249  0.00  0.00    +0.000 A 
ATOM     18  C   UNL     1       1.730   4.610  20.551  0.00  0.00    +0.000 A 
ATOM     19  C   UNL     1       1.135   3.368  20.798  0.00  0.00    +0.000 A 
ATOM     20  C   UNL     1       0.850   2.515  19.733  0.00  0.00    +0.000 A 
ATOM     21  C   UNL     1       1.154   2.905  18.431  0.00  0.00    +0.000 A 
ATOM     22  C   UNL     1       1.755   4.144  18.187  0.00  0.00    +0.000 A 
ENDBRANCH  16  17
ENDBRANCH  15  16
ENDBRANCH   4  15
TORSDOF 6
ENDMDL
MODEL 4
REMARK VINA RESULT:      -7.5      4.769      5.978
REMARK  Name = 
REMARK  6 active torsions:
REMARK  status: ('A' for Active; 'I' for Inactive)
REMARK    1  A    between atoms: C_2  and  C_3
REMARK    2  A    between atoms: C_4  and  C_5
REMARK    3  A    between atoms: C_8  and  C_9
REMARK    4  A    between atoms: C_9  and  O_10
REMARK    5  A    between atoms: O_10  and  C_11
REMARK    6  A    between atoms: N_19  and  O_20
REMARK                            x       y       z     vdW  Elec       q    Type
REMARK                         _______ _______ _______ _____ _____    ______ ____
ROOT
ATOM      1  C   UNL     1       7.546   7.085  18.110  0.00  0.00    +0.000 A 
ATOM      2  C   UNL     1       7.596   5.821  18.705  0.00  0.00    +0.000 A 
ATOM      3  C   UNL     1       6.664   4.834  18.360  0.00  0.00    +0.000 A 
ATOM      4  C   UNL     1       5.669   5.096  17.408  0.00  0.00    +0.000 A 
ATOM      5  C   UNL     1       5.629   6.364  16.808  0.00  0.00    +0.000 A 
ATOM      6  C   UNL     1       6.564   7.349  17.150  0.00  0.00    +0.000 A 
ENDROOT
BRANCH   1   8
ATOM      7  C   UNL     1       8.326   9.406  18.170  0.00  0.00    +0.000 C 
ATOM      8  C   UNL     1       8.510   8.117  18.496  0.00  0.00    +0.000 C 
BRANCH   7  10
ATOM      9  O   UNL     1       9.966  11.090  17.707  0.00  0.00    +0.000 OA
ATOM     10  C   UNL     1       9.332  10.436  18.528  0.00  0.00    +0.000 C 
ATOM     11  N   UNL     1       9.475  10.593  19.881  0.00  0.00    +0.000 N 
ATOM     12  H   UNL     1       8.965  10.081  20.591  0.00  0.00    +0.000 HD
BRANCH  11  13
ATOM     13  O   UNL     1      10.384  11.573  20.333  0.00  0.00    +0.000 OA
ATOM     14  H   UNL     1      10.725  11.179  21.165  0.00  0.00    +0.000 HD
ENDBRANCH  11  13
ENDBRANCH   7  10
ENDBRANCH   1   8
BRANCH   4  15
ATOM     15  C   UNL     1       4.630   4.052  17.064  0.00  0.00    +0.000 C 
BRANCH  15  16
ATOM     16  O   UNL     1       3.337   4.658  17.123  0.00  0.00    +0.000 OA
BRANCH  16  17
ATOM     17  C   UNL     1       2.607   4.405  18.254  0.00  0.00    +0.000 A 
ATOM     18  C   UNL     1       1.762   3.294  18.187  0.00  0.00    +0.000 A 
ATOM     19  C   UNL     1       0.976   2.926  19.284  0.00  0.00    +0.000 A 
ATOM     20  C   UNL     1       1.047   3.665  20.464  0.00  0.00    +0.000 A 
ATOM     21  C   UNL     1       1.904   4.762  20.545  0.00  0.00    +0.000 A 
ATOM     22  C   UNL     1       2.683   5.132  19.444  0.00  0.00    +0.000 A 
ENDBRANCH  16  17
ENDBRANCH  15  16
ENDBRANCH   4  15
TORSDOF 6
ENDMDL
MODEL 5
REMARK VINA RESULT:      -7.5      0.305      1.115
REMARK  Name = 
REMARK  6 active torsions:
REMARK  status: ('A' for Active; 'I' for Inactive)
REMARK    1  A    between atoms: C_2  and  C_3
REMARK    2  A    between atoms: C_4  and  C_5
REMARK    3  A    between atoms: C_8  and  C_9
REMARK    4  A    between atoms: C_9  and  O_10
REMARK    5  A    between atoms: O_10  and  C_11
REMARK    6  A    between atoms: N_19  and  O_20
REMARK                            x       y       z     vdW  Elec       q    Type
REMARK                         _______ _______ _______ _____ _____    ______ ____
ROOT
ATOM      1  C   UNL     1       5.538   5.195  15.450  0.00  0.00    +0.000 A 
ATOM      2  C   UNL     1       5.182   6.532  15.656  0.00  0.00    +0.000 A 
ATOM      3  C   UNL     1       4.589   6.933  16.860  0.00  0.00    +0.000 A 
ATOM      4  C   UNL     1       4.348   6.003  17.880  0.00  0.00    +0.000 A 
ATOM      5  C   UNL     1       4.715   4.664  17.670  0.00  0.00    +0.000 A 
ATOM      6  C   UNL     1       5.312   4.265  16.468  0.00  0.00    +0.000 A 
ENDROOT
BRANCH   1   8
ATOM      7  C   UNL     1       5.788   3.631  13.583  0.00  0.00    +0.000 C 
ATOM      8  C   UNL     1       6.134   4.782  14.178  0.00  0.00    +0.000 C 
BRANCH   7  10
ATOM      9  O   UNL     1       7.243   3.879  11.696  0.00  0.00    +0.000 OA
ATOM     10  C   UNL     1       6.433   3.201  12.317  0.00  0.00    +0.000 C 
ATOM     11  N   UNL     1       6.037   1.953  11.916  0.00  0.00    +0.000 N 
ATOM     12  H   UNL     1       5.379   1.357  12.404  0.00  0.00    +0.000 HD
BRANCH  11  13
ATOM     13  O   UNL     1       6.615   1.430  10.739  0.00  0.00    +0.000 OA
ATOM     14  H   UNL     1       6.903   2.241  10.265  0.00  0.00    +0.000 HD
ENDBRANCH  11  13
ENDBRANCH   7  10
ENDBRANCH   1   8
BRANCH   4  15
ATOM     15  C   UNL     1       3.666   6.418  19.164  0.00  0.00    +0.000 C 
BRANCH  15  16
ATOM     16  O   UNL     1       2.288   6.046  19.091  0.00  0.00    +0.000 OA
BRANCH  16  17
ATOM     17  C   UNL     1       1.954   4.857  19.684  0.00  0.00    +0.000 A 
ATOM     18  C   UNL     1       1.397   3.898  18.833  0.00  0.00    +0.000 A 
ATOM     19  C   UNL     1       1.029   2.639  19.320  0.00  0.00    +0.000 A 
ATOM     20  C   UNL     1       1.234   2.330  20.663  0.00  0.00    +0.000 A 
ATOM     21  C   UNL     1       1.809   3.274  21.512  0.00  0.00    +0.000 A 
ATOM     22  C   UNL     1       2.170   4.535  21.025  0.00  0.00    +0.000 A 
ENDBRANCH  16  17
ENDBRANCH  15  16
ENDBRANCH   4  15
TORSDOF 6
ENDMDL
MODEL 6
REMARK VINA RESULT:      -7.5      4.754      6.047
REMARK  Name = 
REMARK  6 active torsions:
REMARK  status: ('A' for Active; 'I' for Inactive)
REMARK    1  A    between atoms: C_2  and  C_3
REMARK    2  A    between atoms: C_4  and  C_5
REMARK    3  A    between atoms: C_8  and  C_9
REMARK    4  A    between atoms: C_9  and  O_10
REMARK    5  A    between atoms: O_10  and  C_11
REMARK    6  A    between atoms: N_19  and  O_20
REMARK                            x       y       z     vdW  Elec       q    Type
REMARK                         _______ _______ _______ _____ _____    ______ ____
ROOT
ATOM      1  C   UNL     1       7.438   6.997  17.976  0.00  0.00    +0.000 A 
ATOM      2  C   UNL     1       7.531   5.690  18.463  0.00  0.00    +0.000 A 
ATOM      3  C   UNL     1       6.603   4.716  18.072  0.00  0.00    +0.000 A 
ATOM      4  C   UNL     1       5.570   5.035  17.182  0.00  0.00    +0.000 A 
ATOM      5  C   UNL     1       5.487   6.346  16.688  0.00  0.00    +0.000 A 
ATOM      6  C   UNL     1       6.417   7.318  17.077  0.00  0.00    +0.000 A 
ENDROOT
BRANCH   1   8
ATOM      7  C   UNL     1       8.233   9.309  18.106  0.00  0.00    +0.000 C 
ATOM      8  C   UNL     1       8.398   8.013  18.410  0.00  0.00    +0.000 C 
BRANCH   7  10
ATOM      9  O   UNL     1       9.905  10.983  17.724  0.00  0.00    +0.000 OA
ATOM     10  C   UNL     1       9.237  10.324  18.513  0.00  0.00    +0.000 C 
ATOM     11  N   UNL     1       9.332  10.461  19.873  0.00  0.00    +0.000 N 
ATOM     12  H   UNL     1       8.793   9.945  20.557  0.00  0.00    +0.000 HD
BRANCH  11  13
ATOM     13  O   UNL     1      10.235  11.425  20.370  0.00  0.00    +0.000 OA
ATOM     14  H   UNL     1      10.819  11.589  19.598  0.00  0.00    +0.000 HD
ENDBRANCH  11  13
ENDBRANCH   7  10
ENDBRANCH   1   8
BRANCH   4  15
ATOM     15  C   UNL     1       4.536   4.002  16.790  0.00  0.00    +0.000 C 
BRANCH  15  16
ATOM     16  O   UNL     1       4.407   3.059  17.856  0.00  0.00    +0.000 OA
BRANCH  16  17
ATOM     17  C   UNL     1       3.209   3.066  18.522  0.00  0.00    +0.000 A 
ATOM     18  C   UNL     1       3.175   3.841  19.685  0.00  0.00    +0.000 A 
ATOM     19  C   UNL     1       2.004   3.939  20.444  0.00  0.00    +0.000 A 
ATOM     20  C   UNL     1       0.853   3.271  20.029  0.00  0.00    +0.000 A 
ATOM     21  C   UNL     1       0.875   2.515  18.858  0.00  0.00    +0.000 A 
ATOM     22  C   UNL     1       2.049   2.413  18.105  0.00  0.00    +0.000 A 
ENDBRANCH  16  17
ENDBRANCH  15  16
ENDBRANCH   4  15
TORSDOF 6
ENDMDL
MODEL 7
REMARK VINA RESULT:      -7.4      4.921      6.160
REMARK  Name = 
REMARK  6 active torsions:
REMARK  status: ('A' for Active; 'I' for Inactive)
REMARK    1  A    between atoms: C_2  and  C_3
REMARK    2  A    between atoms: C_4  and  C_5
REMARK    3  A    between atoms: C_8  and  C_9
REMARK    4  A    between atoms: C_9  and  O_10
REMARK    5  A    between atoms: O_10  and  C_11
REMARK    6  A    between atoms: N_19  and  O_20
REMARK                            x       y       z     vdW  Elec       q    Type
REMARK                         _______ _______ _______ _____ _____    ______ ____
ROOT
ATOM      1  C   UNL     1       7.566   7.659  17.844  0.00  0.00    +0.000 A 
ATOM      2  C   UNL     1       6.336   7.395  17.233  0.00  0.00    +0.000 A 
ATOM      3  C   UNL     1       5.634   6.219  17.525  0.00  0.00    +0.000 A 
ATOM      4  C   UNL     1       6.149   5.290  18.438  0.00  0.00    +0.000 A 
ATOM      5  C   UNL     1       7.380   5.564  19.056  0.00  0.00    +0.000 A 
ATOM      6  C   UNL     1       8.079   6.742  18.766  0.00  0.00    +0.000 A 
ENDROOT
BRANCH   1   8
ATOM      7  C   UNL     1       8.670   9.756  18.461  0.00  0.00    +0.000 C 
ATOM      8  C   UNL     1       8.304   8.879  17.514  0.00  0.00    +0.000 C 
BRANCH   7  10
ATOM      9  O   UNL     1      10.595  11.154  18.175  0.00  0.00    +0.000 OA
ATOM     10  C   UNL     1       9.379  11.011  18.109  0.00  0.00    +0.000 C 
ATOM     11  N   UNL     1       8.531  12.000  17.686  0.00  0.00    +0.000 N 
ATOM     12  H   UNL     1       7.524  11.919  17.608  0.00  0.00    +0.000 HD
BRANCH  11  13
ATOM     13  O   UNL     1       9.103  13.228  17.293  0.00  0.00    +0.000 OA
ATOM     14  H   UNL     1       8.844  13.291  16.347  0.00  0.00    +0.000 HD
ENDBRANCH  11  13
ENDBRANCH   7  10
ENDBRANCH   1   8
BRANCH   4  15
ATOM     15  C   UNL     1       5.420   3.996  18.724  0.00  0.00    +0.000 C 
BRANCH  15  16
ATOM     16  O   UNL     1       4.202   3.983  17.976  0.00  0.00    +0.000 OA
BRANCH  16  17
ATOM     17  C   UNL     1       3.072   3.651  18.676  0.00  0.00    +0.000 A 
ATOM     18  C   UNL     1       3.037   4.088  20.003  0.00  0.00    +0.000 A 
ATOM     19  C   UNL     1       1.929   3.822  20.814  0.00  0.00    +0.000 A 
ATOM     20  C   UNL     1       0.840   3.128  20.291  0.00  0.00    +0.000 A 
ATOM     21  C   UNL     1       0.859   2.707  18.962  0.00  0.00    +0.000 A 
ATOM     22  C   UNL     1       1.971   2.968  18.154  0.00  0.00    +0.000 A 
ENDBRANCH  16  17
ENDBRANCH  15  16
ENDBRANCH   4  15
TORSDOF 6
ENDMDL
MODEL 8
REMARK VINA RESULT:      -7.4      4.869      6.087
REMARK  Name = 
REMARK  6 active torsions:
REMARK  status: ('A' for Active; 'I' for Inactive)
REMARK    1  A    between atoms: C_2  and  C_3
REMARK    2  A    between atoms: C_4  and  C_5
REMARK    3  A    between atoms: C_8  and  C_9
REMARK    4  A    between atoms: C_9  and  O_10
REMARK    5  A    between atoms: O_10  and  C_11
REMARK    6  A    between atoms: N_19  and  O_20
REMARK                            x       y       z     vdW  Elec       q    Type
REMARK                         _______ _______ _______ _____ _____    ______ ____
ROOT
ATOM      1  C   UNL     1       7.477   7.633  17.799  0.00  0.00    +0.000 A 
ATOM      2  C   UNL     1       6.277   7.409  17.118  0.00  0.00    +0.000 A 
ATOM      3  C   UNL     1       5.571   6.213  17.294  0.00  0.00    +0.000 A 
ATOM      4  C   UNL     1       6.052   5.223  18.161  0.00  0.00    +0.000 A 
ATOM      5  C   UNL     1       7.253   5.457  18.849  0.00  0.00    +0.000 A 
ATOM      6  C   UNL     1       7.957   6.655  18.675  0.00  0.00    +0.000 A 
ENDROOT
BRANCH   1   8
ATOM      7  C   UNL     1       8.687   9.598  18.619  0.00  0.00    +0.000 C 
ATOM      8  C   UNL     1       8.221   8.877  17.589  0.00  0.00    +0.000 C 
BRANCH   7  10
ATOM      9  O   UNL     1      10.538  11.110  18.790  0.00  0.00    +0.000 OA
ATOM     10  C   UNL     1       9.400  10.880  18.395  0.00  0.00    +0.000 C 
ATOM     11  N   UNL     1       8.658  11.784  17.683  0.00  0.00    +0.000 N 
ATOM     12  H   UNL     1       7.720  11.630  17.331  0.00  0.00    +0.000 HD
BRANCH  11  13
ATOM     13  O   UNL     1       9.254  13.028  17.383  0.00  0.00    +0.000 OA
ATOM     14  H   UNL     1       8.522  13.514  16.944  0.00  0.00    +0.000 HD
ENDBRANCH  11  13
ENDBRANCH   7  10
ENDBRANCH   1   8
BRANCH   4  15
ATOM     15  C   UNL     1       5.321   3.909  18.322  0.00  0.00    +0.000 C 
BRANCH  15  16
ATOM     16  O   UNL     1       4.737   3.868  19.626  0.00  0.00    +0.000 OA
BRANCH  16  17
ATOM     17  C   UNL     1       3.402   3.565  19.677  0.00  0.00    +0.000 A 
ATOM     18  C   UNL     1       2.737   3.574  18.447  0.00  0.00    +0.000 A 
ATOM     19  C   UNL     1       1.375   3.267  18.369  0.00  0.00    +0.000 A 
ATOM     20  C   UNL     1       0.674   2.932  19.526  0.00  0.00    +0.000 A 
ATOM     21  C   UNL     1       1.336   2.900  20.753  0.00  0.00    +0.000 A 
ATOM     22  C   UNL     1       2.697   3.214  20.829  0.00  0.00    +0.000 A 
ENDBRANCH  16  17
ENDBRANCH  15  16
ENDBRANCH   4  15
TORSDOF 6
ENDMDL
MODEL 9
REMARK VINA RESULT:      -7.4      4.800      6.175
REMARK  Name = 
REMARK  6 active torsions:
REMARK  status: ('A' for Active; 'I' for Inactive)
REMARK    1  A    between atoms: C_2  and  C_3
REMARK    2  A    between atoms: C_4  and  C_5
REMARK    3  A    between atoms: C_8  and  C_9
REMARK    4  A    between atoms: C_9  and  O_10
REMARK    5  A    between atoms: O_10  and  C_11
REMARK    6  A    between atoms: N_19  and  O_20
REMARK                            x       y       z     vdW  Elec       q    Type
REMARK                         _______ _______ _______ _____ _____    ______ ____
ROOT
ATOM      1  C   UNL     1       7.647   7.037  18.039  0.00  0.00    +0.000 A 
ATOM      2  C   UNL     1       7.919   5.737  18.477  0.00  0.00    +0.000 A 
ATOM      3  C   UNL     1       7.203   4.648  17.964  0.00  0.00    +0.000 A 
ATOM      4  C   UNL     1       6.206   4.843  16.999  0.00  0.00    +0.000 A 
ATOM      5  C   UNL     1       5.943   6.149  16.556  0.00  0.00    +0.000 A 
ATOM      6  C   UNL     1       6.662   7.236  17.067  0.00  0.00    +0.000 A 
ENDROOT
BRANCH   1   8
ATOM      7  C   UNL     1       8.344   9.384  18.030  0.00  0.00    +0.000 C 
ATOM      8  C   UNL     1       8.384   8.171  18.600  0.00  0.00    +0.000 C 
BRANCH   7  10
ATOM      9  O   UNL     1       9.383  11.542  17.963  0.00  0.00    +0.000 OA
ATOM     10  C   UNL     1       9.131  10.515  18.583  0.00  0.00    +0.000 C 
ATOM     11  N   UNL     1       9.540  10.298  19.872  0.00  0.00    +0.000 N 
ATOM     12  H   UNL     1       9.345   9.470  20.421  0.00  0.00    +0.000 HD
BRANCH  11  13
ATOM     13  O   UNL     1      10.269  11.326  20.507  0.00  0.00    +0.000 OA
ATOM     14  H   UNL     1       9.672  12.100  20.413  0.00  0.00    +0.000 HD
ENDBRANCH  11  13
ENDBRANCH   7  10
ENDBRANCH   1   8
BRANCH   4  15
ATOM     15  C   UNL     1       5.396   3.679  16.474  0.00  0.00    +0.000 C 
BRANCH  15  16
ATOM     16  O   UNL     1       4.039   4.099  16.318  0.00  0.00    +0.000 OA
BRANCH  16  17
ATOM     17  C   UNL     1       3.166   3.681  17.287  0.00  0.00    +0.000 A 
ATOM     18  C   UNL     1       3.381   2.387  17.771  0.00  0.00    +0.000 A 
ATOM     19  C   UNL     1       2.563   1.853  18.772  0.00  0.00    +0.000 A 
ATOM     20  C   UNL     1       1.532   2.624  19.306  0.00  0.00    +0.000 A 
ATOM     21  C   UNL     1       1.326   3.923  18.843  0.00  0.00    +0.000 A 
ATOM     22  C   UNL     1       2.140   4.452  17.837  0.00  0.00    +0.000 A 
ENDBRANCH  16  17
ENDBRANCH  15  16
ENDBRANCH   4  15
TORSDOF 6
ENDMDL
