MODEL 1
REMARK VINA RESULT:      -7.2      0.000      0.000
REMARK  Name = 
REMARK  6 active torsions:
REMARK  status: ('A' for Active; 'I' for Inactive)
REMARK    1  A    between atoms: C_1  and  C_2
REMARK    2  A    between atoms: C_3  and  N_4
REMARK    3  A    between atoms: N_6  and  C_7
REMARK    4  A    between atoms: C_14  and  C_15
REMARK    5  A    between atoms: C_15  and  O_17
REMARK    6  A    between atoms: N_19  and  C_20
REMARK                            x       y       z     vdW  Elec       q    Type
REMARK                         _______ _______ _______ _____ _____    ______ ____
ROOT
ATOM      1  C   UNL     1      -0.518  13.360  20.569  0.00  0.00    +0.000 A 
ATOM      2  C   UNL     1      -0.985  13.665  21.853  0.00  0.00    +0.000 A 
ATOM      3  F   UNL     1      -0.172  14.201  22.775  0.00  0.00    +0.000 F 
ATOM      4  C   UNL     1      -2.316  13.521  22.199  0.00  0.00    +0.000 A 
ATOM      5  C   UNL     1      -3.217  12.971  21.283  0.00  0.00    +0.000 A 
ATOM      6  C   UNL     1      -4.631  12.891  21.718  0.00  0.00    +0.000 A 
ATOM      7  O   UNL     1      -4.999  13.331  22.807  0.00  0.00    +0.000 OA
ATOM      8  C   UNL     1      -5.606  12.269  20.821  0.00  0.00    +0.000 A 
ATOM      9  C   UNL     1      -5.128  11.811  19.661  0.00  0.00    +0.000 A 
ATOM     10  N   UNL     1      -3.817  11.876  19.150  0.00  0.00    +0.000 N 
ATOM     11  C   UNL     1      -2.820  12.553  19.983  0.00  0.00    +0.000 A 
ATOM     12  C   UNL     1      -1.470  12.866  19.618  0.00  0.00    +0.000 A 
ATOM     13 CL   UNL     1      -0.925  12.768  17.968  0.00  0.00    +0.000 Cl
ENDROOT
BRANCH  10  14
ATOM     14  C   UNL     1      -3.598  11.215  17.891  0.00  0.00    +0.000 A 
ATOM     15  C   UNL     1      -2.708  10.134  17.766  0.00  0.00    +0.000 A 
ATOM     16  C   UNL     1      -2.339   9.652  16.503  0.00  0.00    +0.000 A 
ATOM     17  C   UNL     1      -2.969  10.140  15.364  0.00  0.00    +0.000 A 
ATOM     18  F   UNL     1      -2.594   9.696  14.158  0.00  0.00    +0.000 F 
ATOM     19  C   UNL     1      -3.971  11.088  15.462  0.00  0.00    +0.000 A 
ATOM     20  C   UNL     1      -4.260  11.632  16.710  0.00  0.00    +0.000 A 
ATOM     21  F   UNL     1      -5.181  12.609  16.753  0.00  0.00    +0.000 F 
ENDBRANCH  10  14
BRANCH   1  26
ATOM     22  C   UNL     1       1.165  16.013  20.317  0.00  0.00    +0.000 C 
ATOM     23  C   UNL     1       1.672  14.641  19.906  0.00  0.00    +0.000 C 
ATOM     24  C   UNL     1       2.832  14.005  20.718  0.00  0.00    +0.000 C 
ATOM     25  C   UNL     1       1.991  12.719  20.715  0.00  0.00    +0.000 C 
ATOM     26  N   UNL     1       0.863  13.501  20.273  0.00  0.00    +0.000 N 
BRANCH  24  27
ATOM     27  N   UNL     1       2.887  14.521  22.102  0.00  0.00    +0.000 NA
ATOM     28  H   UNL     1       2.163  14.117  22.702  0.00  0.00    +0.000 HD
ATOM     29  H   UNL     1       2.768  15.530  22.169  0.00  0.00    +0.000 HD
ENDBRANCH  24  27
ENDBRANCH   1  26
BRANCH   8  30
ATOM     30  C   UNL     1      -7.044  12.127  21.125  0.00  0.00    +0.000 C 
ATOM     31  O   UNL     1      -7.916  12.743  20.533  0.00  0.00    +0.000 OA
BRANCH  30  32
ATOM     32  O   UNL     1      -7.328  11.258  22.118  0.00  0.00    +0.000 OA
ATOM     33  H   UNL     1      -7.171  11.614  23.026  0.00  0.00    +0.000 HD
ENDBRANCH  30  32
ENDBRANCH   8  30
TORSDOF 5
ENDMDL
MODEL 2
REMARK VINA RESULT:      -7.1      8.116      9.875
REMARK  Name = 
REMARK  6 active torsions:
REMARK  status: ('A' for Active; 'I' for Inactive)
REMARK    1  A    between atoms: C_1  and  C_2
REMARK    2  A    between atoms: C_3  and  N_4
REMARK    3  A    between atoms: N_6  and  C_7
REMARK    4  A    between atoms: C_14  and  C_15
REMARK    5  A    between atoms: C_15  and  O_17
REMARK    6  A    between atoms: N_19  and  C_20
REMARK                            x       y       z     vdW  Elec       q    Type
REMARK                         _______ _______ _______ _____ _____    ______ ____
ROOT
ATOM      1  C   UNL     1       1.514   9.003  18.987  0.00  0.00    +0.000 A 
ATOM      2  C   UNL     1       2.163   9.516  17.856  0.00  0.00    +0.000 A 
ATOM      3  F   UNL     1       1.906  10.756  17.415  0.00  0.00    +0.000 F 
ATOM      4  C   UNL     1       3.158   8.812  17.205  0.00  0.00    +0.000 A 
ATOM      5  C   UNL     1       3.477   7.515  17.616  0.00  0.00    +0.000 A 
ATOM      6  C   UNL     1       4.585   6.848  16.892  0.00  0.00    +0.000 A 
ATOM      7  O   UNL     1       5.221   7.425  16.011  0.00  0.00    +0.000 OA
ATOM      8  C   UNL     1       4.920   5.467  17.242  0.00  0.00    +0.000 A 
ATOM      9  C   UNL     1       4.180   4.909  18.204  0.00  0.00    +0.000 A 
ATOM     10  N   UNL     1       3.139   5.474  18.967  0.00  0.00    +0.000 N 
ATOM     11  C   UNL     1       2.815   6.878  18.701  0.00  0.00    +0.000 A 
ATOM     12  C   UNL     1       1.904   7.700  19.440  0.00  0.00    +0.000 A 
ATOM     13 CL   UNL     1       1.291   7.214  20.995  0.00  0.00    +0.000 Cl
ENDROOT
BRANCH  10  14
ATOM     14  C   UNL     1       2.475   4.584  19.883  0.00  0.00    +0.000 A 
ATOM     15  C   UNL     1       2.863   4.484  21.230  0.00  0.00    +0.000 A 
ATOM     16  C   UNL     1       2.362   3.459  22.046  0.00  0.00    +0.000 A 
ATOM     17  C   UNL     1       1.359   2.624  21.570  0.00  0.00    +0.000 A 
ATOM     18  F   UNL     1       0.903   1.630  22.343  0.00  0.00    +0.000 F 
ATOM     19  C   UNL     1       0.835   2.799  20.302  0.00  0.00    +0.000 A 
ATOM     20  C   UNL     1       1.406   3.753  19.467  0.00  0.00    +0.000 A 
ATOM     21  F   UNL     1       0.925   3.837  18.215  0.00  0.00    +0.000 F 
ENDBRANCH  10  14
BRANCH   1  26
ATOM     22  C   UNL     1       1.740  11.748  20.519  0.00  0.00    +0.000 C 
ATOM     23  C   UNL     1       0.497  10.876  20.515  0.00  0.00    +0.000 C 
ATOM     24  C   UNL     1      -0.776  11.402  19.800  0.00  0.00    +0.000 C 
ATOM     25  C   UNL     1      -0.872  10.006  19.166  0.00  0.00    +0.000 C 
ATOM     26  N   UNL     1       0.479   9.755  19.603  0.00  0.00    +0.000 N 
BRANCH  24  27
ATOM     27  N   UNL     1      -0.452  12.375  18.736  0.00  0.00    +0.000 NA
ATOM     28  H   UNL     1      -0.298  13.319  19.100  0.00  0.00    +0.000 HD
ATOM     29  H   UNL     1      -1.179  12.468  18.029  0.00  0.00    +0.000 HD
ENDBRANCH  24  27
ENDBRANCH   1  26
BRANCH   8  30
ATOM     30  C   UNL     1       5.999   4.686  16.606  0.00  0.00    +0.000 C 
ATOM     31  O   UNL     1       5.800   3.650  15.991  0.00  0.00    +0.000 OA
BRANCH  30  32
ATOM     32  O   UNL     1       7.237   5.204  16.757  0.00  0.00    +0.000 OA
ATOM     33  H   UNL     1       7.251   6.120  17.126  0.00  0.00    +0.000 HD
ENDBRANCH  30  32
ENDBRANCH   8  30
TORSDOF 5
ENDMDL
MODEL 3
REMARK VINA RESULT:      -6.9      8.641     10.407
REMARK  Name = 
REMARK  6 active torsions:
REMARK  status: ('A' for Active; 'I' for Inactive)
REMARK    1  A    between atoms: C_1  and  C_2
REMARK    2  A    between atoms: C_3  and  N_4
REMARK    3  A    between atoms: N_6  and  C_7
REMARK    4  A    between atoms: C_14  and  C_15
REMARK    5  A    between atoms: C_15  and  O_17
REMARK    6  A    between atoms: N_19  and  C_20
REMARK                            x       y       z     vdW  Elec       q    Type
REMARK                         _______ _______ _______ _____ _____    ______ ____
ROOT
ATOM      1  C   UNL     1       1.767   8.484  19.031  0.00  0.00    +0.000 A 
ATOM      2  C   UNL     1       2.375   9.074  17.915  0.00  0.00    +0.000 A 
ATOM      3  F   UNL     1       2.099  10.339  17.567  0.00  0.00    +0.000 F 
ATOM      4  C   UNL     1       3.349   8.421  17.184  0.00  0.00    +0.000 A 
ATOM      5  C   UNL     1       3.686   7.101  17.498  0.00  0.00    +0.000 A 
ATOM      6  C   UNL     1       4.770   6.490  16.692  0.00  0.00    +0.000 A 
ATOM      7  O   UNL     1       5.373   7.127  15.830  0.00  0.00    +0.000 OA
ATOM      8  C   UNL     1       5.122   5.090  16.938  0.00  0.00    +0.000 A 
ATOM      9  C   UNL     1       4.417   4.466  17.886  0.00  0.00    +0.000 A 
ATOM     10  N   UNL     1       3.402   4.973  18.721  0.00  0.00    +0.000 N 
ATOM     11  C   UNL     1       3.064   6.389  18.560  0.00  0.00    +0.000 A 
ATOM     12  C   UNL     1       2.177   7.156  19.383  0.00  0.00    +0.000 A 
ATOM     13 CL   UNL     1       1.621   6.565  20.923  0.00  0.00    +0.000 Cl
ENDROOT
BRANCH  10  14
ATOM     14  C   UNL     1       2.774   4.020  19.598  0.00  0.00    +0.000 A 
ATOM     15  C   UNL     1       1.381   3.832  19.610  0.00  0.00    +0.000 A 
ATOM     16  C   UNL     1       0.770   3.072  20.618  0.00  0.00    +0.000 A 
ATOM     17  C   UNL     1       1.552   2.371  21.527  0.00  0.00    +0.000 A 
ATOM     18  F   UNL     1       0.964   1.668  22.503  0.00  0.00    +0.000 F 
ATOM     19  C   UNL     1       2.932   2.399  21.442  0.00  0.00    +0.000 A 
ATOM     20  C   UNL     1       3.529   3.234  20.502  0.00  0.00    +0.000 A 
ATOM     21  F   UNL     1       4.870   3.298  20.505  0.00  0.00    +0.000 F 
ENDBRANCH  10  14
BRANCH   1  26
ATOM     22  C   UNL     1       1.823   9.557  21.993  0.00  0.00    +0.000 C 
ATOM     23  C   UNL     1       0.575   9.512  21.129  0.00  0.00    +0.000 C 
ATOM     24  C   UNL     1      -0.062  10.853  20.675  0.00  0.00    +0.000 C 
ATOM     25  C   UNL     1      -0.142  10.223  19.276  0.00  0.00    +0.000 C 
ATOM     26  N   UNL     1       0.752   9.187  19.731  0.00  0.00    +0.000 N 
BRANCH  24  27
ATOM     27  N   UNL     1       0.927  11.951  20.634  0.00  0.00    +0.000 NA
ATOM     28  H   UNL     1       1.799  11.712  21.114  0.00  0.00    +0.000 HD
ATOM     29  H   UNL     1       0.602  12.812  21.069  0.00  0.00    +0.000 HD
ENDBRANCH  24  27
ENDBRANCH   1  26
BRANCH   8  30
ATOM     30  C   UNL     1       6.180   4.359  16.214  0.00  0.00    +0.000 C 
ATOM     31  O   UNL     1       5.955   3.404  15.487  0.00  0.00    +0.000 OA
BRANCH  30  32
ATOM     32  O   UNL     1       7.430   4.825  16.419  0.00  0.00    +0.000 OA
ATOM     33  H   UNL     1       7.686   5.573  15.827  0.00  0.00    +0.000 HD
ENDBRANCH  30  32
ENDBRANCH   8  30
TORSDOF 5
ENDMDL
MODEL 4
REMARK VINA RESULT:      -6.9      2.457      3.559
REMARK  Name = 
REMARK  6 active torsions:
REMARK  status: ('A' for Active; 'I' for Inactive)
REMARK    1  A    between atoms: C_1  and  C_2
REMARK    2  A    between atoms: C_3  and  N_4
REMARK    3  A    between atoms: N_6  and  C_7
REMARK    4  A    between atoms: C_14  and  C_15
REMARK    5  A    between atoms: C_15  and  O_17
REMARK    6  A    between atoms: N_19  and  C_20
REMARK                            x       y       z     vdW  Elec       q    Type
REMARK                         _______ _______ _______ _____ _____    ______ ____
ROOT
ATOM      1  C   UNL     1       1.361  14.982  20.158  0.00  0.00    +0.000 A 
ATOM      2  C   UNL     1       1.578  15.421  21.470  0.00  0.00    +0.000 A 
ATOM      3  F   UNL     1       2.616  16.216  21.769  0.00  0.00    +0.000 F 
ATOM      4  C   UNL     1       0.691  15.138  22.491  0.00  0.00    +0.000 A 
ATOM      5  C   UNL     1      -0.413  14.316  22.245  0.00  0.00    +0.000 A 
ATOM      6  C   UNL     1      -1.337  14.098  23.384  0.00  0.00    +0.000 A 
ATOM      7  O   UNL     1      -1.168  14.651  24.469  0.00  0.00    +0.000 OA
ATOM      8  C   UNL     1      -2.476  13.198  23.198  0.00  0.00    +0.000 A 
ATOM      9  C   UNL     1      -2.588  12.632  21.993  0.00  0.00    +0.000 A 
ATOM     10  N   UNL     1      -1.784  12.808  20.849  0.00  0.00    +0.000 N 
ATOM     11  C   UNL     1      -0.672  13.754  20.966  0.00  0.00    +0.000 A 
ATOM     12  C   UNL     1       0.185  14.201  19.908  0.00  0.00    +0.000 A 
ATOM     13 CL   UNL     1      -0.204  13.915  18.236  0.00  0.00    +0.000 Cl
ENDROOT
BRANCH  10  14
ATOM     14  C   UNL     1      -2.118  11.989  19.714  0.00  0.00    +0.000 A 
ATOM     15  C   UNL     1      -3.290  12.201  18.967  0.00  0.00    +0.000 A 
ATOM     16  C   UNL     1      -3.711  11.263  18.014  0.00  0.00    +0.000 A 
ATOM     17  C   UNL     1      -2.891  10.190  17.689  0.00  0.00    +0.000 A 
ATOM     18  F   UNL     1      -3.309   9.283  16.796  0.00  0.00    +0.000 F 
ATOM     19  C   UNL     1      -1.652  10.042  18.284  0.00  0.00    +0.000 A 
ATOM     20  C   UNL     1      -1.287  10.920  19.300  0.00  0.00    +0.000 A 
ATOM     21  F   UNL     1      -0.113  10.693  19.911  0.00  0.00    +0.000 F 
ENDBRANCH  10  14
BRANCH   1  26
ATOM     22  C   UNL     1       1.637  17.607  18.437  0.00  0.00    +0.000 C 
ATOM     23  C   UNL     1       2.396  16.322  18.155  0.00  0.00    +0.000 C 
ATOM     24  C   UNL     1       3.936  16.311  18.352  0.00  0.00    +0.000 C 
ATOM     25  C   UNL     1       3.728  14.984  19.098  0.00  0.00    +0.000 C 
ATOM     26  N   UNL     1       2.317  15.277  19.152  0.00  0.00    +0.000 N 
BRANCH  24  27
ATOM     27  N   UNL     1       4.377  17.329  19.328  0.00  0.00    +0.000 NA
ATOM     28  H   UNL     1       3.912  17.232  20.235  0.00  0.00    +0.000 HD
ATOM     29  H   UNL     1       4.201  18.287  19.030  0.00  0.00    +0.000 HD
ENDBRANCH  24  27
ENDBRANCH   1  26
BRANCH   8  30
ATOM     30  C   UNL     1      -3.475  12.894  24.242  0.00  0.00    +0.000 C 
ATOM     31  O   UNL     1      -4.030  11.811  24.340  0.00  0.00    +0.000 OA
BRANCH  30  32
ATOM     32  O   UNL     1      -3.735  13.912  25.089  0.00  0.00    +0.000 OA
ATOM     33  H   UNL     1      -4.186  13.639  25.924  0.00  0.00    +0.000 HD
ENDBRANCH  30  32
ENDBRANCH   8  30
TORSDOF 5
ENDMDL
MODEL 5
REMARK VINA RESULT:      -6.8      3.792      5.365
REMARK  Name = 
REMARK  6 active torsions:
REMARK  status: ('A' for Active; 'I' for Inactive)
REMARK    1  A    between atoms: C_1  and  C_2
REMARK    2  A    between atoms: C_3  and  N_4
REMARK    3  A    between atoms: N_6  and  C_7
REMARK    4  A    between atoms: C_14  and  C_15
REMARK    5  A    between atoms: C_15  and  O_17
REMARK    6  A    between atoms: N_19  and  C_20
REMARK                            x       y       z     vdW  Elec       q    Type
REMARK                         _______ _______ _______ _____ _____    ______ ____
ROOT
ATOM      1  C   UNL     1      -2.853  13.177  21.982  0.00  0.00    +0.000 A 
ATOM      2  C   UNL     1      -1.860  13.050  22.962  0.00  0.00    +0.000 A 
ATOM      3  F   UNL     1      -1.890  13.795  24.077  0.00  0.00    +0.000 F 
ATOM      4  C   UNL     1      -0.866  12.094  22.873  0.00  0.00    +0.000 A 
ATOM      5  C   UNL     1      -0.780  11.282  21.739  0.00  0.00    +0.000 A 
ATOM      6  C   UNL     1       0.289  10.255  21.744  0.00  0.00    +0.000 A 
ATOM      7  O   UNL     1       1.025  10.094  22.715  0.00  0.00    +0.000 OA
ATOM      8  C   UNL     1       0.461   9.419  20.555  0.00  0.00    +0.000 A 
ATOM      9  C   UNL     1      -0.374   9.660  19.541  0.00  0.00    +0.000 A 
ATOM     10  N   UNL     1      -1.435  10.583  19.461  0.00  0.00    +0.000 N 
ATOM     11  C   UNL     1      -1.692  11.394  20.654  0.00  0.00    +0.000 A 
ATOM     12  C   UNL     1      -2.792  12.288  20.859  0.00  0.00    +0.000 A 
ATOM     13 CL   UNL     1      -4.184  12.278  19.814  0.00  0.00    +0.000 Cl
ENDROOT
BRANCH  10  14
ATOM     14  C   UNL     1      -2.108  10.661  18.191  0.00  0.00    +0.000 A 
ATOM     15  C   UNL     1      -3.002   9.664  17.765  0.00  0.00    +0.000 A 
ATOM     16  C   UNL     1      -3.471   9.640  16.444  0.00  0.00    +0.000 A 
ATOM     17  C   UNL     1      -3.175  10.691  15.585  0.00  0.00    +0.000 A 
ATOM     18  F   UNL     1      -3.603  10.650  14.316  0.00  0.00    +0.000 F 
ATOM     19  C   UNL     1      -2.434  11.773  16.021  0.00  0.00    +0.000 A 
ATOM     20  C   UNL     1      -1.891  11.741  17.302  0.00  0.00    +0.000 A 
ATOM     21  F   UNL     1      -1.108  12.773  17.660  0.00  0.00    +0.000 F 
ENDBRANCH  10  14
BRANCH   1  26
ATOM     22  C   UNL     1      -5.551  13.096  23.609  0.00  0.00    +0.000 C 
ATOM     23  C   UNL     1      -5.189  14.187  22.616  0.00  0.00    +0.000 C 
ATOM     24  C   UNL     1      -4.931  15.621  23.151  0.00  0.00    +0.000 C 
ATOM     25  C   UNL     1      -3.682  15.620  22.257  0.00  0.00    +0.000 C 
ATOM     26  N   UNL     1      -3.836  14.194  22.107  0.00  0.00    +0.000 N 
BRANCH  24  27
ATOM     27  N   UNL     1      -4.493  15.616  24.562  0.00  0.00    +0.000 NA
ATOM     28  H   UNL     1      -4.839  14.802  25.078  0.00  0.00    +0.000 HD
ATOM     29  H   UNL     1      -4.804  16.428  25.092  0.00  0.00    +0.000 HD
ENDBRANCH  24  27
ENDBRANCH   1  26
BRANCH   8  30
ATOM     30  C   UNL     1       1.480   8.358  20.426  0.00  0.00    +0.000 C 
ATOM     31  O   UNL     1       2.005   8.063  19.364  0.00  0.00    +0.000 OA
BRANCH  30  32
ATOM     32  O   UNL     1       1.790   7.728  21.578  0.00  0.00    +0.000 OA
ATOM     33  H   UNL     1       1.007   7.433  22.103  0.00  0.00    +0.000 HD
ENDBRANCH  30  32
ENDBRANCH   8  30
TORSDOF 5
ENDMDL
MODEL 6
REMARK VINA RESULT:      -6.8      0.730      1.515
REMARK  Name = 
REMARK  6 active torsions:
REMARK  status: ('A' for Active; 'I' for Inactive)
REMARK    1  A    between atoms: C_1  and  C_2
REMARK    2  A    between atoms: C_3  and  N_4
REMARK    3  A    between atoms: N_6  and  C_7
REMARK    4  A    between atoms: C_14  and  C_15
REMARK    5  A    between atoms: C_15  and  O_17
REMARK    6  A    between atoms: N_19  and  C_20
REMARK                            x       y       z     vdW  Elec       q    Type
REMARK                         _______ _______ _______ _____ _____    ______ ____
ROOT
ATOM      1  C   UNL     1      -0.591  13.543  20.468  0.00  0.00    +0.000 A 
ATOM      2  C   UNL     1      -1.054  13.875  21.747  0.00  0.00    +0.000 A 
ATOM      3  F   UNL     1      -0.248  14.461  22.644  0.00  0.00    +0.000 F 
ATOM      4  C   UNL     1      -2.377  13.704  22.111  0.00  0.00    +0.000 A 
ATOM      5  C   UNL     1      -3.271  13.101  21.221  0.00  0.00    +0.000 A 
ATOM      6  C   UNL     1      -4.678  12.995  21.673  0.00  0.00    +0.000 A 
ATOM      7  O   UNL     1      -5.047  13.459  22.751  0.00  0.00    +0.000 OA
ATOM      8  C   UNL     1      -5.644  12.319  20.806  0.00  0.00    +0.000 A 
ATOM      9  C   UNL     1      -5.164  11.839  19.655  0.00  0.00    +0.000 A 
ATOM     10  N   UNL     1      -3.859  11.924  19.130  0.00  0.00    +0.000 N 
ATOM     11  C   UNL     1      -2.874  12.654  19.931  0.00  0.00    +0.000 A 
ATOM     12  C   UNL     1      -1.537  12.993  19.543  0.00  0.00    +0.000 A 
ATOM     13 CL   UNL     1      -1.005  12.859  17.891  0.00  0.00    +0.000 Cl
ENDROOT
BRANCH  10  14
ATOM     14  C   UNL     1      -3.634  11.231  17.889  0.00  0.00    +0.000 A 
ATOM     15  C   UNL     1      -2.762  10.132  17.803  0.00  0.00    +0.000 A 
ATOM     16  C   UNL     1      -2.383   9.615  16.556  0.00  0.00    +0.000 A 
ATOM     17  C   UNL     1      -2.987  10.087  15.398  0.00  0.00    +0.000 A 
ATOM     18  F   UNL     1      -2.602   9.609  14.207  0.00  0.00    +0.000 F 
ATOM     19  C   UNL     1      -3.973  11.055  15.459  0.00  0.00    +0.000 A 
ATOM     20  C   UNL     1      -4.271  11.631  16.689  0.00  0.00    +0.000 A 
ATOM     21  F   UNL     1      -5.175  12.625  16.696  0.00  0.00    +0.000 F 
ENDBRANCH  10  14
BRANCH   1  26
ATOM     22  C   UNL     1       1.627  11.327  20.143  0.00  0.00    +0.000 C 
ATOM     23  C   UNL     1       1.916  12.816  20.211  0.00  0.00    +0.000 C 
ATOM     24  C   UNL     1       2.465  13.525  18.944  0.00  0.00    +0.000 C 
ATOM     25  C   UNL     1       1.419  14.614  19.225  0.00  0.00    +0.000 C 
ATOM     26  N   UNL     1       0.784  13.713  20.154  0.00  0.00    +0.000 N 
BRANCH  24  27
ATOM     27  N   UNL     1       2.080  12.819  17.704  0.00  0.00    +0.000 NA
ATOM     28  H   UNL     1       1.204  12.300  17.803  0.00  0.00    +0.000 HD
ATOM     29  H   UNL     1       2.769  12.138  17.389  0.00  0.00    +0.000 HD
ENDBRANCH  24  27
ENDBRANCH   1  26
BRANCH   8  30
ATOM     30  C   UNL     1      -7.073  12.146  21.129  0.00  0.00    +0.000 C 
ATOM     31  O   UNL     1      -7.478  11.351  21.963  0.00  0.00    +0.000 OA
BRANCH  30  32
ATOM     32  O   UNL     1      -7.912  12.936  20.426  0.00  0.00    +0.000 OA
ATOM     33  H   UNL     1      -7.528  13.290  19.587  0.00  0.00    +0.000 HD
ENDBRANCH  30  32
ENDBRANCH   8  30
TORSDOF 5
ENDMDL
MODEL 7
REMARK VINA RESULT:      -6.8      0.965      1.396
REMARK  Name = 
REMARK  6 active torsions:
REMARK  status: ('A' for Active; 'I' for Inactive)
REMARK    1  A    between atoms: C_1  and  C_2
REMARK    2  A    between atoms: C_3  and  N_4
REMARK    3  A    between atoms: N_6  and  C_7
REMARK    4  A    between atoms: C_14  and  C_15
REMARK    5  A    between atoms: C_15  and  O_17
REMARK    6  A    between atoms: N_19  and  C_20
REMARK                            x       y       z     vdW  Elec       q    Type
REMARK                         _______ _______ _______ _____ _____    ______ ____
ROOT
ATOM      1  C   UNL     1      -0.441  13.633  20.715  0.00  0.00    +0.000 A 
ATOM      2  C   UNL     1      -0.953  13.876  21.996  0.00  0.00    +0.000 A 
ATOM      3  F   UNL     1      -0.194  14.437  22.949  0.00  0.00    +0.000 F 
ATOM      4  C   UNL     1      -2.278  13.638  22.309  0.00  0.00    +0.000 A 
ATOM      5  C   UNL     1      -3.124  13.057  21.361  0.00  0.00    +0.000 A 
ATOM      6  C   UNL     1      -4.539  12.877  21.763  0.00  0.00    +0.000 A 
ATOM      7  O   UNL     1      -4.955  13.265  22.853  0.00  0.00    +0.000 OA
ATOM      8  C   UNL     1      -5.454  12.218  20.830  0.00  0.00    +0.000 A 
ATOM      9  C   UNL     1      -4.924  11.821  19.670  0.00  0.00    +0.000 A 
ATOM     10  N   UNL     1      -3.609  11.981  19.190  0.00  0.00    +0.000 N 
ATOM     11  C   UNL     1      -2.675  12.698  20.060  0.00  0.00    +0.000 A 
ATOM     12  C   UNL     1      -1.340  13.104  19.732  0.00  0.00    +0.000 A 
ATOM     13 CL   UNL     1      -0.757  13.083  18.092  0.00  0.00    +0.000 Cl
ENDROOT
BRANCH  10  14
ATOM     14  C   UNL     1      -3.324  11.368  17.920  0.00  0.00    +0.000 A 
ATOM     15  C   UNL     1      -3.981  11.763  16.742  0.00  0.00    +0.000 A 
ATOM     16  C   UNL     1      -3.858  11.011  15.565  0.00  0.00    +0.000 A 
ATOM     17  C   UNL     1      -2.961   9.951  15.512  0.00  0.00    +0.000 A 
ATOM     18  F   UNL     1      -2.866   9.219  14.395  0.00  0.00    +0.000 F 
ATOM     19  C   UNL     1      -2.173   9.636  16.604  0.00  0.00    +0.000 A 
ATOM     20  C   UNL     1      -2.374  10.325  17.796  0.00  0.00    +0.000 A 
ATOM     21  F   UNL     1      -1.648   9.935  18.857  0.00  0.00    +0.000 F 
ENDBRANCH  10  14
BRANCH   1  26
ATOM     22  C   UNL     1       1.093  16.385  20.652  0.00  0.00    +0.000 C 
ATOM     23  C   UNL     1       1.683  15.071  20.169  0.00  0.00    +0.000 C 
ATOM     24  C   UNL     1       2.865  14.453  20.964  0.00  0.00    +0.000 C 
ATOM     25  C   UNL     1       2.098  13.125  20.869  0.00  0.00    +0.000 C 
ATOM     26  N   UNL     1       0.934  13.868  20.454  0.00  0.00    +0.000 N 
BRANCH  24  27
ATOM     27  N   UNL     1       2.870  14.887  22.376  0.00  0.00    +0.000 NA
ATOM     28  H   UNL     1       3.462  15.707  22.533  0.00  0.00    +0.000 HD
ATOM     29  H   UNL     1       3.209  14.177  23.023  0.00  0.00    +0.000 HD
ENDBRANCH  24  27
ENDBRANCH   1  26
BRANCH   8  30
ATOM     30  C   UNL     1      -6.885  11.978  21.099  0.00  0.00    +0.000 C 
ATOM     31  O   UNL     1      -7.380  10.862  21.134  0.00  0.00    +0.000 OA
BRANCH  30  32
ATOM     32  O   UNL     1      -7.618  13.093  21.303  0.00  0.00    +0.000 OA
ATOM     33  H   UNL     1      -7.393  13.842  20.699  0.00  0.00    +0.000 HD
ENDBRANCH  30  32
ENDBRANCH   8  30
TORSDOF 5
ENDMDL
MODEL 8
REMARK VINA RESULT:      -6.8      2.370      3.147
REMARK  Name = 
REMARK  6 active torsions:
REMARK  status: ('A' for Active; 'I' for Inactive)
REMARK    1  A    between atoms: C_1  and  C_2
REMARK    2  A    between atoms: C_3  and  N_4
REMARK    3  A    between atoms: N_6  and  C_7
REMARK    4  A    between atoms: C_14  and  C_15
REMARK    5  A    between atoms: C_15  and  O_17
REMARK    6  A    between atoms: N_19  and  C_20
REMARK                            x       y       z     vdW  Elec       q    Type
REMARK                         _______ _______ _______ _____ _____    ______ ____
ROOT
ATOM      1  C   UNL     1       1.182  15.050  20.200  0.00  0.00    +0.000 A 
ATOM      2  C   UNL     1       1.284  15.581  21.492  0.00  0.00    +0.000 A 
ATOM      3  F   UNL     1       2.242  16.466  21.803  0.00  0.00    +0.000 F 
ATOM      4  C   UNL     1       0.354  15.293  22.474  0.00  0.00    +0.000 A 
ATOM      5  C   UNL     1      -0.672  14.381  22.215  0.00  0.00    +0.000 A 
ATOM      6  C   UNL     1      -1.650  14.163  23.307  0.00  0.00    +0.000 A 
ATOM      7  O   UNL     1      -1.590  14.789  24.364  0.00  0.00    +0.000 OA
ATOM      8  C   UNL     1      -2.710  13.172  23.111  0.00  0.00    +0.000 A 
ATOM      9  C   UNL     1      -2.704  12.530  21.939  0.00  0.00    +0.000 A 
ATOM     10  N   UNL     1      -1.843  12.696  20.837  0.00  0.00    +0.000 N 
ATOM     11  C   UNL     1      -0.809  13.727  20.960  0.00  0.00    +0.000 A 
ATOM     12  C   UNL     1       0.081  14.172  19.929  0.00  0.00    +0.000 A 
ATOM     13 CL   UNL     1      -0.179  13.761  18.258  0.00  0.00    +0.000 Cl
ENDROOT
BRANCH  10  14
ATOM     14  C   UNL     1      -2.046  11.791  19.737  0.00  0.00    +0.000 A 
ATOM     15  C   UNL     1      -1.106  10.797  19.413  0.00  0.00    +0.000 A 
ATOM     16  C   UNL     1      -1.208  10.078  18.215  0.00  0.00    +0.000 A 
ATOM     17  C   UNL     1      -2.328  10.233  17.407  0.00  0.00    +0.000 A 
ATOM     18  F   UNL     1      -2.409   9.564  16.250  0.00  0.00    +0.000 F 
ATOM     19  C   UNL     1      -3.355  11.081  17.779  0.00  0.00    +0.000 A 
ATOM     20  C   UNL     1      -3.199  11.864  18.918  0.00  0.00    +0.000 A 
ATOM     21  F   UNL     1      -4.182  12.735  19.201  0.00  0.00    +0.000 F 
ENDBRANCH  10  14
BRANCH   1  26
ATOM     22  C   UNL     1       1.491  17.667  18.471  0.00  0.00    +0.000 C 
ATOM     23  C   UNL     1       2.284  16.393  18.235  0.00  0.00    +0.000 C 
ATOM     24  C   UNL     1       3.813  16.412  18.503  0.00  0.00    +0.000 C 
ATOM     25  C   UNL     1       3.595  15.087  19.249  0.00  0.00    +0.000 C 
ATOM     26  N   UNL     1       2.178  15.355  19.236  0.00  0.00    +0.000 N 
BRANCH  24  27
ATOM     27  N   UNL     1       4.191  17.445  19.489  0.00  0.00    +0.000 NA
ATOM     28  H   UNL     1       5.204  17.574  19.555  0.00  0.00    +0.000 HD
ATOM     29  H   UNL     1       3.877  17.243  20.437  0.00  0.00    +0.000 HD
ENDBRANCH  24  27
ENDBRANCH   1  26
BRANCH   8  30
ATOM     30  C   UNL     1      -3.750  12.858  24.110  0.00  0.00    +0.000 C 
ATOM     31  O   UNL     1      -4.065  11.717  24.410  0.00  0.00    +0.000 OA
BRANCH  30  32
ATOM     32  O   UNL     1      -4.337  13.935  24.673  0.00  0.00    +0.000 OA
ATOM     33  H   UNL     1      -5.129  13.723  25.224  0.00  0.00    +0.000 HD
ENDBRANCH  30  32
ENDBRANCH   8  30
TORSDOF 5
ENDMDL
MODEL 9
REMARK VINA RESULT:      -6.6      3.460      7.523
REMARK  Name = 
REMARK  6 active torsions:
REMARK  status: ('A' for Active; 'I' for Inactive)
REMARK    1  A    between atoms: C_1  and  C_2
REMARK    2  A    between atoms: C_3  and  N_4
REMARK    3  A    between atoms: N_6  and  C_7
REMARK    4  A    between atoms: C_14  and  C_15
REMARK    5  A    between atoms: C_15  and  O_17
REMARK    6  A    between atoms: N_19  and  C_20
REMARK                            x       y       z     vdW  Elec       q    Type
REMARK                         _______ _______ _______ _____ _____    ______ ____
ROOT
ATOM      1  C   UNL     1      -5.077  12.382  18.842  0.00  0.00    +0.000 A 
ATOM      2  C   UNL     1      -4.991  11.407  17.840  0.00  0.00    +0.000 A 
ATOM      3  F   UNL     1      -6.040  11.133  17.051  0.00  0.00    +0.000 F 
ATOM      4  C   UNL     1      -3.806  10.755  17.556  0.00  0.00    +0.000 A 
ATOM      5  C   UNL     1      -2.673  10.998  18.339  0.00  0.00    +0.000 A 
ATOM      6  C   UNL     1      -1.434  10.290  17.940  0.00  0.00    +0.000 A 
ATOM      7  O   UNL     1      -1.393   9.569  16.944  0.00  0.00    +0.000 OA
ATOM      8  C   UNL     1      -0.234  10.461  18.762  0.00  0.00    +0.000 A 
ATOM      9  C   UNL     1      -0.361  11.255  19.828  0.00  0.00    +0.000 A 
ATOM     10  N   UNL     1      -1.481  11.992  20.262  0.00  0.00    +0.000 N 
ATOM     11  C   UNL     1      -2.685  11.908  19.431  0.00  0.00    +0.000 A 
ATOM     12  C   UNL     1      -3.887  12.672  19.588  0.00  0.00    +0.000 A 
ATOM     13 CL   UNL     1      -3.951  14.073  20.619  0.00  0.00    +0.000 Cl
ENDROOT
BRANCH  10  14
ATOM     14  C   UNL     1      -1.327  12.699  21.506  0.00  0.00    +0.000 A 
ATOM     15  C   UNL     1      -1.923  12.243  22.695  0.00  0.00    +0.000 A 
ATOM     16  C   UNL     1      -1.952  13.054  23.838  0.00  0.00    +0.000 A 
ATOM     17  C   UNL     1      -1.255  14.256  23.852  0.00  0.00    +0.000 A 
ATOM     18  F   UNL     1      -1.308  15.040  24.937  0.00  0.00    +0.000 F 
ATOM     19  C   UNL     1      -0.518  14.658  22.753  0.00  0.00    +0.000 A 
ATOM     20  C   UNL     1      -0.576  13.896  21.591  0.00  0.00    +0.000 A 
ATOM     21  F   UNL     1       0.087  14.363  20.520  0.00  0.00    +0.000 F 
ENDBRANCH  10  14
BRANCH   1  26
ATOM     22  C   UNL     1      -7.295  11.494  20.896  0.00  0.00    +0.000 C 
ATOM     23  C   UNL     1      -7.495  12.566  19.839  0.00  0.00    +0.000 C 
ATOM     24  C   UNL     1      -7.685  14.036  20.300  0.00  0.00    +0.000 C 
ATOM     25  C   UNL     1      -6.664  14.400  19.210  0.00  0.00    +0.000 C 
ATOM     26  N   UNL     1      -6.325  13.003  19.112  0.00  0.00    +0.000 N 
BRANCH  24  27
ATOM     27  N   UNL     1      -7.067  14.287  21.618  0.00  0.00    +0.000 NA
ATOM     28  H   UNL     1      -7.757  14.510  22.340  0.00  0.00    +0.000 HD
ATOM     29  H   UNL     1      -6.406  15.062  21.622  0.00  0.00    +0.000 HD
ENDBRANCH  24  27
ENDBRANCH   1  26
BRANCH   8  30
ATOM     30  C   UNL     1       1.065   9.821  18.479  0.00  0.00    +0.000 C 
ATOM     31  O   UNL     1       1.529   8.921  19.162  0.00  0.00    +0.000 OA
BRANCH  30  32
ATOM     32  O   UNL     1       1.714  10.309  17.401  0.00  0.00    +0.000 OA
ATOM     33  H   UNL     1       1.624  11.285  17.281  0.00  0.00    +0.000 HD
ENDBRANCH  30  32
ENDBRANCH   8  30
TORSDOF 5
ENDMDL
