MODEL 1
REMARK VINA RESULT:      -8.8      0.000      0.000
REMARK  Name = 
REMARK  8 active torsions:
REMARK  status: ('A' for Active; 'I' for Inactive)
REMARK    1  A    between atoms: C_4  and  C_5
REMARK    2  A    between atoms: C_5  and  O_6
REMARK    3  A    between atoms: O_6  and  C_7
REMARK    4  A    between atoms: C_7  and  C_9
REMARK    5  A    between atoms: N_13  and  C_14
REMARK    6  A    between atoms: C_14  and  C_15
REMARK    7  A    between atoms: C_15  and  C_16
REMARK    8  A    between atoms: N_25  and  C_26
REMARK                            x       y       z     vdW  Elec       q    Type
REMARK                         _______ _______ _______ _____ _____    ______ ____
ROOT
ATOM      1  C   UNL     1       7.906   9.411  17.862  0.00  0.00    +0.000 C 
ENDROOT
BRANCH   1   5
ATOM      2  N   UNL     1      10.044  11.536  21.544  0.00  0.00    +0.000 N 
ATOM      3  C   UNL     1       9.665  11.547  20.221  0.00  0.00    +0.000 A 
ATOM      4  N   UNL     1       9.056  10.479  19.743  0.00  0.00    +0.000 NA
ATOM      5  C   UNL     1       8.699  10.559  18.457  0.00  0.00    +0.000 A 
ATOM      6  N   UNL     1       8.977  11.591  17.655  0.00  0.00    +0.000 NA
ATOM      7  C   UNL     1       9.590  12.617  18.241  0.00  0.00    +0.000 A 
ATOM      8  N   UNL     1       9.884  13.726  17.444  0.00  0.00    +0.000 N 
ATOM      9  N   UNL     1       9.959  12.625  19.521  0.00  0.00    +0.000 NA
ATOM     10  H   UNL     1      10.112  10.594  21.915  0.00  0.00    +0.000 HD
ATOM     11  H   UNL     1      10.813  12.167  21.710  0.00  0.00    +0.000 HD
ATOM     12  H   UNL     1       9.606  13.562  16.487  0.00  0.00    +0.000 HD
BRANCH   8  13
ATOM     13  C   UNL     1       9.906  15.079  17.826  0.00  0.00    +0.000 A 
ATOM     14  C   UNL     1      11.125  15.669  18.184  0.00  0.00    +0.000 A 
ATOM     15  C   UNL     1      11.178  16.998  18.620  0.00  0.00    +0.000 A 
ATOM     16  C   UNL     1      10.013  17.760  18.684  0.00  0.00    +0.000 A 
ATOM     17  C   UNL     1       8.797  17.194  18.314  0.00  0.00    +0.000 A 
ATOM     18  C   UNL     1       8.746  15.862  17.897  0.00  0.00    +0.000 A 
ENDBRANCH   8  13
ENDBRANCH   1   5
BRANCH   1  19
ATOM     19  O   UNL     1       8.253   8.120  18.399  0.00  0.00    +0.000 OA
BRANCH  19  20
ATOM     20  C   UNL     1       7.825   7.061  17.667  0.00  0.00    +0.000 C 
ATOM     21  O   UNL     1       7.877   7.002  16.443  0.00  0.00    +0.000 OA
BRANCH  20  22
ATOM     22  C   UNL     1       7.296   5.920  18.516  0.00  0.00    +0.000 C 
ATOM     23  C   UNL     1       7.560   4.596  17.805  0.00  0.00    +0.000 C 
ATOM     24  C   UNL     1       6.276   4.370  17.047  0.00  0.00    +0.000 C 
ATOM     25  O   UNL     1       6.159   3.663  16.063  0.00  0.00    +0.000 OA
ATOM     26  N   UNL     1       5.270   5.054  17.715  0.00  0.00    +0.000 N 
ATOM     27  C   UNL     1       5.796   5.900  18.761  0.00  0.00    +0.000 C 
BRANCH  26  28
ATOM     28  C   UNL     1       3.862   5.090  17.327  0.00  0.00    +0.000 C 
BRANCH  28  29
ATOM     29  C   UNL     1       2.943   5.655  18.417  0.00  0.00    +0.000 C 
BRANCH  29  30
ATOM     30  C   UNL     1       2.372   4.592  19.323  0.00  0.00    +0.000 A 
ATOM     31  C   UNL     1       2.529   4.686  20.712  0.00  0.00    +0.000 A 
ATOM     32  C   UNL     1       1.963   3.728  21.554  0.00  0.00    +0.000 A 
ATOM     33  C   UNL     1       1.242   2.665  21.015  0.00  0.00    +0.000 A 
ATOM     34  C   UNL     1       1.091   2.555  19.634  0.00  0.00    +0.000 A 
ATOM     35  C   UNL     1       1.657   3.512  18.790  0.00  0.00    +0.000 A 
ENDBRANCH  29  30
ENDBRANCH  28  29
ENDBRANCH  26  28
ENDBRANCH  20  22
ENDBRANCH  19  20
ENDBRANCH   1  19
TORSDOF 8
ENDMDL
MODEL 2
REMARK VINA RESULT:      -8.6      1.737      2.221
REMARK  Name = 
REMARK  8 active torsions:
REMARK  status: ('A' for Active; 'I' for Inactive)
REMARK    1  A    between atoms: C_4  and  C_5
REMARK    2  A    between atoms: C_5  and  O_6
REMARK    3  A    between atoms: O_6  and  C_7
REMARK    4  A    between atoms: C_7  and  C_9
REMARK    5  A    between atoms: N_13  and  C_14
REMARK    6  A    between atoms: C_14  and  C_15
REMARK    7  A    between atoms: C_15  and  C_16
REMARK    8  A    between atoms: N_25  and  C_26
REMARK                            x       y       z     vdW  Elec       q    Type
REMARK                         _______ _______ _______ _____ _____    ______ ____
ROOT
ATOM      1  C   UNL     1       8.254   8.362  17.950  0.00  0.00    +0.000 C 
ENDROOT
BRANCH   1   5
ATOM      2  N   UNL     1      10.237  11.457  20.972  0.00  0.00    +0.000 N 
ATOM      3  C   UNL     1       9.524  11.209  19.821  0.00  0.00    +0.000 A 
ATOM      4  N   UNL     1       9.325   9.952  19.475  0.00  0.00    +0.000 NA
ATOM      5  C   UNL     1       8.612   9.779  18.358  0.00  0.00    +0.000 A 
ATOM      6  N   UNL     1       8.173  10.770  17.576  0.00  0.00    +0.000 NA
ATOM      7  C   UNL     1       8.425  11.998  18.021  0.00  0.00    +0.000 A 
ATOM      8  N   UNL     1       7.969  13.066  17.244  0.00  0.00    +0.000 N 
ATOM      9  N   UNL     1       9.109  12.256  19.135  0.00  0.00    +0.000 NA
ATOM     10  H   UNL     1      10.808  10.665  21.246  0.00  0.00    +0.000 HD
ATOM     11  H   UNL     1      10.671  12.367  20.946  0.00  0.00    +0.000 HD
ATOM     12  H   UNL     1       7.523  12.731  16.402  0.00  0.00    +0.000 HD
BRANCH   8  13
ATOM     13  C   UNL     1       7.516  14.322  17.688  0.00  0.00    +0.000 A 
ATOM     14  C   UNL     1       8.450  15.334  17.943  0.00  0.00    +0.000 A 
ATOM     15  C   UNL     1       8.042  16.579  18.435  0.00  0.00    +0.000 A 
ATOM     16  C   UNL     1       6.690  16.833  18.660  0.00  0.00    +0.000 A 
ATOM     17  C   UNL     1       5.748  15.844  18.394  0.00  0.00    +0.000 A 
ATOM     18  C   UNL     1       6.162  14.597  17.920  0.00  0.00    +0.000 A 
ENDBRANCH   8  13
ENDBRANCH   1   5
BRANCH   1  19
ATOM     19  O   UNL     1       7.011   8.257  17.228  0.00  0.00    +0.000 OA
BRANCH  19  20
ATOM     20  C   UNL     1       6.803   7.065  16.617  0.00  0.00    +0.000 C 
ATOM     21  O   UNL     1       7.695   6.277  16.318  0.00  0.00    +0.000 OA
BRANCH  20  22
ATOM     22  C   UNL     1       5.337   6.770  16.362  0.00  0.00    +0.000 C 
ATOM     23  C   UNL     1       4.531   7.082  17.620  0.00  0.00    +0.000 C 
ATOM     24  C   UNL     1       4.479   5.745  18.315  0.00  0.00    +0.000 C 
ATOM     25  O   UNL     1       4.282   5.581  19.505  0.00  0.00    +0.000 OA
ATOM     26  N   UNL     1       4.629   4.763  17.345  0.00  0.00    +0.000 N 
ATOM     27  C   UNL     1       4.982   5.322  16.061  0.00  0.00    +0.000 C 
BRANCH  26  28
ATOM     28  C   UNL     1       4.622   3.321  17.584  0.00  0.00    +0.000 C 
BRANCH  28  29
ATOM     29  C   UNL     1       3.214   2.718  17.634  0.00  0.00    +0.000 C 
BRANCH  29  30
ATOM     30  C   UNL     1       2.562   2.842  18.989  0.00  0.00    +0.000 A 
ATOM     31  C   UNL     1       3.224   2.389  20.138  0.00  0.00    +0.000 A 
ATOM     32  C   UNL     1       2.642   2.544  21.397  0.00  0.00    +0.000 A 
ATOM     33  C   UNL     1       1.391   3.145  21.517  0.00  0.00    +0.000 A 
ATOM     34  C   UNL     1       0.718   3.587  20.380  0.00  0.00    +0.000 A 
ATOM     35  C   UNL     1       1.298   3.432  19.120  0.00  0.00    +0.000 A 
ENDBRANCH  29  30
ENDBRANCH  28  29
ENDBRANCH  26  28
ENDBRANCH  20  22
ENDBRANCH  19  20
ENDBRANCH   1  19
TORSDOF 8
ENDMDL
MODEL 3
REMARK VINA RESULT:      -8.6      1.457      2.519
REMARK  Name = 
REMARK  8 active torsions:
REMARK  status: ('A' for Active; 'I' for Inactive)
REMARK    1  A    between atoms: C_4  and  C_5
REMARK    2  A    between atoms: C_5  and  O_6
REMARK    3  A    between atoms: O_6  and  C_7
REMARK    4  A    between atoms: C_7  and  C_9
REMARK    5  A    between atoms: N_13  and  C_14
REMARK    6  A    between atoms: C_14  and  C_15
REMARK    7  A    between atoms: C_15  and  C_16
REMARK    8  A    between atoms: N_25  and  C_26
REMARK                            x       y       z     vdW  Elec       q    Type
REMARK                         _______ _______ _______ _____ _____    ______ ____
ROOT
ATOM      1  C   UNL     1       8.542   9.240  17.764  0.00  0.00    +0.000 C 
ENDROOT
BRANCH   1   5
ATOM      2  N   UNL     1       9.323  11.310  21.976  0.00  0.00    +0.000 N 
ATOM      3  C   UNL     1       9.477  11.302  20.608  0.00  0.00    +0.000 A 
ATOM      4  N   UNL     1       8.993  10.274  19.937  0.00  0.00    +0.000 NA
ATOM      5  C   UNL     1       9.159  10.334  18.613  0.00  0.00    +0.000 A 
ATOM      6  N   UNL     1       9.821  11.304  17.973  0.00  0.00    +0.000 NA
ATOM      7  C   UNL     1      10.263  12.293  18.746  0.00  0.00    +0.000 A 
ATOM      8  N   UNL     1      10.946  13.338  18.118  0.00  0.00    +0.000 N 
ATOM      9  N   UNL     1      10.119  12.320  20.070  0.00  0.00    +0.000 NA
ATOM     10  H   UNL     1       9.153  10.382  22.347  0.00  0.00    +0.000 HD
ATOM     11  H   UNL     1      10.030  11.875  22.421  0.00  0.00    +0.000 HD
ATOM     12  H   UNL     1      11.036  13.162  17.127  0.00  0.00    +0.000 HD
BRANCH   8  13
ATOM     13  C   UNL     1      10.955  14.698  18.476  0.00  0.00    +0.000 A 
ATOM     14  C   UNL     1       9.875  15.510  18.105  0.00  0.00    +0.000 A 
ATOM     15  C   UNL     1       9.874  16.879  18.397  0.00  0.00    +0.000 A 
ATOM     16  C   UNL     1      10.944  17.448  19.084  0.00  0.00    +0.000 A 
ATOM     17  C   UNL     1      12.015  16.652  19.476  0.00  0.00    +0.000 A 
ATOM     18  C   UNL     1      12.022  15.290  19.166  0.00  0.00    +0.000 A 
ENDBRANCH   8  13
ENDBRANCH   1   5
BRANCH   1  19
ATOM     19  O   UNL     1       8.284   8.017  18.482  0.00  0.00    +0.000 OA
BRANCH  19  20
ATOM     20  C   UNL     1       7.537   7.106  17.811  0.00  0.00    +0.000 C 
ATOM     21  O   UNL     1       6.996   7.317  16.731  0.00  0.00    +0.000 OA
BRANCH  20  22
ATOM     22  C   UNL     1       7.456   5.763  18.514  0.00  0.00    +0.000 C 
ATOM     23  C   UNL     1       7.514   4.644  17.477  0.00  0.00    +0.000 C 
ATOM     24  C   UNL     1       6.056   4.373  17.207  0.00  0.00    +0.000 C 
ATOM     25  O   UNL     1       5.616   3.847  16.200  0.00  0.00    +0.000 OA
ATOM     26  N   UNL     1       5.342   4.767  18.330  0.00  0.00    +0.000 N 
ATOM     27  C   UNL     1       6.172   5.476  19.276  0.00  0.00    +0.000 C 
BRANCH  26  28
ATOM     28  C   UNL     1       3.894   4.663  18.500  0.00  0.00    +0.000 C 
BRANCH  28  29
ATOM     29  C   UNL     1       3.364   5.439  19.711  0.00  0.00    +0.000 C 
BRANCH  29  30
ATOM     30  C   UNL     1       2.744   6.764  19.344  0.00  0.00    +0.000 A 
ATOM     31  C   UNL     1       2.911   7.293  18.057  0.00  0.00    +0.000 A 
ATOM     32  C   UNL     1       2.301   8.496  17.702  0.00  0.00    +0.000 A 
ATOM     33  C   UNL     1       1.523   9.184  18.631  0.00  0.00    +0.000 A 
ATOM     34  C   UNL     1       1.361   8.674  19.917  0.00  0.00    +0.000 A 
ATOM     35  C   UNL     1       1.972   7.470  20.275  0.00  0.00    +0.000 A 
ENDBRANCH  29  30
ENDBRANCH  28  29
ENDBRANCH  26  28
ENDBRANCH  20  22
ENDBRANCH  19  20
ENDBRANCH   1  19
TORSDOF 8
ENDMDL
MODEL 4
REMARK VINA RESULT:      -8.6      2.816      5.010
REMARK  Name = 
REMARK  8 active torsions:
REMARK  status: ('A' for Active; 'I' for Inactive)
REMARK    1  A    between atoms: C_4  and  C_5
REMARK    2  A    between atoms: C_5  and  O_6
REMARK    3  A    between atoms: O_6  and  C_7
REMARK    4  A    between atoms: C_7  and  C_9
REMARK    5  A    between atoms: N_13  and  C_14
REMARK    6  A    between atoms: C_14  and  C_15
REMARK    7  A    between atoms: C_15  and  C_16
REMARK    8  A    between atoms: N_25  and  C_26
REMARK                            x       y       z     vdW  Elec       q    Type
REMARK                         _______ _______ _______ _____ _____    ______ ____
ROOT
ATOM      1  C   UNL     1       5.595   6.033  16.164  0.00  0.00    +0.000 C 
ENDROOT
BRANCH   1   5
ATOM      2  N   UNL     1       8.333   5.625  20.034  0.00  0.00    +0.000 N 
ATOM      3  C   UNL     1       7.919   6.353  18.941  0.00  0.00    +0.000 A 
ATOM      4  N   UNL     1       7.046   5.798  18.123  0.00  0.00    +0.000 NA
ATOM      5  C   UNL     1       6.671   6.562  17.093  0.00  0.00    +0.000 A 
ATOM      6  N   UNL     1       7.167   7.774  16.826  0.00  0.00    +0.000 NA
ATOM      7  C   UNL     1       8.037   8.240  17.719  0.00  0.00    +0.000 A 
ATOM      8  N   UNL     1       8.569   9.512  17.490  0.00  0.00    +0.000 N 
ATOM      9  N   UNL     1       8.446   7.551  18.784  0.00  0.00    +0.000 NA
ATOM     10  H   UNL     1       8.178   4.630  19.911  0.00  0.00    +0.000 HD
ATOM     11  H   UNL     1       9.240   5.927  20.353  0.00  0.00    +0.000 HD
ATOM     12  H   UNL     1       8.222   9.893  16.622  0.00  0.00    +0.000 HD
BRANCH   8  13
ATOM     13  C   UNL     1       8.942  10.473  18.447  0.00  0.00    +0.000 A 
ATOM     14  C   UNL     1       9.116  10.080  19.780  0.00  0.00    +0.000 A 
ATOM     15  C   UNL     1       9.435  11.018  20.768  0.00  0.00    +0.000 A 
ATOM     16  C   UNL     1       9.605  12.359  20.431  0.00  0.00    +0.000 A 
ATOM     17  C   UNL     1       9.454  12.763  19.108  0.00  0.00    +0.000 A 
ATOM     18  C   UNL     1       9.118  11.827  18.127  0.00  0.00    +0.000 A 
ENDBRANCH   8  13
ENDBRANCH   1   5
BRANCH   1  19
ATOM     19  O   UNL     1       4.590   5.238  16.824  0.00  0.00    +0.000 OA
BRANCH  19  20
ATOM     20  C   UNL     1       4.808   3.900  16.794  0.00  0.00    +0.000 C 
ATOM     21  O   UNL     1       5.379   3.314  15.880  0.00  0.00    +0.000 OA
BRANCH  20  22
ATOM     22  C   UNL     1       4.304   3.183  18.032  0.00  0.00    +0.000 C 
ATOM     23  C   UNL     1       2.957   2.531  17.727  0.00  0.00    +0.000 C 
ATOM     24  C   UNL     1       1.976   3.585  18.174  0.00  0.00    +0.000 C 
ATOM     25  O   UNL     1       0.825   3.679  17.787  0.00  0.00    +0.000 OA
ATOM     26  N   UNL     1       2.605   4.362  19.137  0.00  0.00    +0.000 N 
ATOM     27  C   UNL     1       4.012   4.053  19.244  0.00  0.00    +0.000 C 
BRANCH  26  28
ATOM     28  C   UNL     1       2.006   5.489  19.848  0.00  0.00    +0.000 C 
BRANCH  28  29
ATOM     29  C   UNL     1       2.515   6.853  19.370  0.00  0.00    +0.000 C 
BRANCH  29  30
ATOM     30  C   UNL     1       1.705   8.010  19.900  0.00  0.00    +0.000 A 
ATOM     31  C   UNL     1       1.459   9.131  19.095  0.00  0.00    +0.000 A 
ATOM     32  C   UNL     1       0.672  10.182  19.568  0.00  0.00    +0.000 A 
ATOM     33  C   UNL     1       0.130  10.124  20.850  0.00  0.00    +0.000 A 
ATOM     34  C   UNL     1       0.379   9.020  21.663  0.00  0.00    +0.000 A 
ATOM     35  C   UNL     1       1.166   7.968  21.192  0.00  0.00    +0.000 A 
ENDBRANCH  29  30
ENDBRANCH  28  29
ENDBRANCH  26  28
ENDBRANCH  20  22
ENDBRANCH  19  20
ENDBRANCH   1  19
TORSDOF 8
ENDMDL
MODEL 5
REMARK VINA RESULT:      -8.6      0.885      1.627
REMARK  Name = 
REMARK  8 active torsions:
REMARK  status: ('A' for Active; 'I' for Inactive)
REMARK    1  A    between atoms: C_4  and  C_5
REMARK    2  A    between atoms: C_5  and  O_6
REMARK    3  A    between atoms: O_6  and  C_7
REMARK    4  A    between atoms: C_7  and  C_9
REMARK    5  A    between atoms: N_13  and  C_14
REMARK    6  A    between atoms: C_14  and  C_15
REMARK    7  A    between atoms: C_15  and  C_16
REMARK    8  A    between atoms: N_25  and  C_26
REMARK                            x       y       z     vdW  Elec       q    Type
REMARK                         _______ _______ _______ _____ _____    ______ ____
ROOT
ATOM      1  C   UNL     1       8.717   9.101  17.569  0.00  0.00    +0.000 C 
ENDROOT
BRANCH   1   5
ATOM      2  N   UNL     1       9.536  11.352  21.680  0.00  0.00    +0.000 N 
ATOM      3  C   UNL     1       9.297  11.400  20.324  0.00  0.00    +0.000 A 
ATOM      4  N   UNL     1       9.196  10.257  19.674  0.00  0.00    +0.000 NA
ATOM      5  C   UNL     1       8.946  10.370  18.366  0.00  0.00    +0.000 A 
ATOM      6  N   UNL     1       8.869  11.529  17.706  0.00  0.00    +0.000 NA
ATOM      7  C   UNL     1       8.981  12.621  18.460  0.00  0.00    +0.000 A 
ATOM      8  N   UNL     1       8.888  13.856  17.814  0.00  0.00    +0.000 N 
ATOM      9  N   UNL     1       9.207  12.594  19.773  0.00  0.00    +0.000 NA
ATOM     10  H   UNL     1       9.933  10.465  21.967  0.00  0.00    +0.000 HD
ATOM     11  H   UNL     1       9.981  12.198  22.003  0.00  0.00    +0.000 HD
ATOM     12  H   UNL     1       8.778  13.731  16.818  0.00  0.00    +0.000 HD
BRANCH   8  13
ATOM     13  C   UNL     1       8.348  15.053  18.319  0.00  0.00    +0.000 A 
ATOM     14  C   UNL     1       6.957  15.204  18.381  0.00  0.00    +0.000 A 
ATOM     15  C   UNL     1       6.385  16.400  18.828  0.00  0.00    +0.000 A 
ATOM     16  C   UNL     1       7.198  17.454  19.239  0.00  0.00    +0.000 A 
ATOM     17  C   UNL     1       8.582  17.313  19.202  0.00  0.00    +0.000 A 
ATOM     18  C   UNL     1       9.150  16.124  18.738  0.00  0.00    +0.000 A 
ENDBRANCH   8  13
ENDBRANCH   1   5
BRANCH   1  19
ATOM     19  O   UNL     1       8.214   8.000  18.352  0.00  0.00    +0.000 OA
BRANCH  19  20
ATOM     20  C   UNL     1       7.324   7.201  17.712  0.00  0.00    +0.000 C 
ATOM     21  O   UNL     1       6.744   7.506  16.676  0.00  0.00    +0.000 OA
BRANCH  20  22
ATOM     22  C   UNL     1       7.133   5.856  18.388  0.00  0.00    +0.000 C 
ATOM     23  C   UNL     1       7.669   4.752  17.480  0.00  0.00    +0.000 C 
ATOM     24  C   UNL     1       6.438   4.328  16.720  0.00  0.00    +0.000 C 
ATOM     25  O   UNL     1       6.442   3.761  15.642  0.00  0.00    +0.000 OA
ATOM     26  N   UNL     1       5.335   4.641  17.501  0.00  0.00    +0.000 N 
ATOM     27  C   UNL     1       5.697   5.433  18.654  0.00  0.00    +0.000 C 
BRANCH  26  28
ATOM     28  C   UNL     1       3.940   4.384  17.149  0.00  0.00    +0.000 C 
BRANCH  28  29
ATOM     29  C   UNL     1       2.941   5.209  17.968  0.00  0.00    +0.000 C 
BRANCH  29  30
ATOM     30  C   UNL     1       2.287   4.422  19.076  0.00  0.00    +0.000 A 
ATOM     31  C   UNL     1       1.313   3.459  18.781  0.00  0.00    +0.000 A 
ATOM     32  C   UNL     1       0.739   2.699  19.801  0.00  0.00    +0.000 A 
ATOM     33  C   UNL     1       1.129   2.899  21.124  0.00  0.00    +0.000 A 
ATOM     34  C   UNL     1       2.088   3.863  21.428  0.00  0.00    +0.000 A 
ATOM     35  C   UNL     1       2.662   4.626  20.410  0.00  0.00    +0.000 A 
ENDBRANCH  29  30
ENDBRANCH  28  29
ENDBRANCH  26  28
ENDBRANCH  20  22
ENDBRANCH  19  20
ENDBRANCH   1  19
TORSDOF 8
ENDMDL
MODEL 6
REMARK VINA RESULT:      -8.6      2.483     10.193
REMARK  Name = 
REMARK  8 active torsions:
REMARK  status: ('A' for Active; 'I' for Inactive)
REMARK    1  A    between atoms: C_4  and  C_5
REMARK    2  A    between atoms: C_5  and  O_6
REMARK    3  A    between atoms: O_6  and  C_7
REMARK    4  A    between atoms: C_7  and  C_9
REMARK    5  A    between atoms: N_13  and  C_14
REMARK    6  A    between atoms: C_14  and  C_15
REMARK    7  A    between atoms: C_15  and  C_16
REMARK    8  A    between atoms: N_25  and  C_26
REMARK                            x       y       z     vdW  Elec       q    Type
REMARK                         _______ _______ _______ _____ _____    ______ ____
ROOT
ATOM      1  C   UNL     1       7.928   8.683  17.648  0.00  0.00    +0.000 C 
ENDROOT
BRANCH   1   5
ATOM      2  N   UNL     1       7.358   4.700  15.109  0.00  0.00    +0.000 N 
ATOM      3  C   UNL     1       7.055   5.457  16.218  0.00  0.00    +0.000 A 
ATOM      4  N   UNL     1       7.680   6.609  16.370  0.00  0.00    +0.000 NA
ATOM      5  C   UNL     1       7.328   7.304  17.456  0.00  0.00    +0.000 A 
ATOM      6  N   UNL     1       6.469   6.876  18.386  0.00  0.00    +0.000 NA
ATOM      7  C   UNL     1       5.894   5.703  18.131  0.00  0.00    +0.000 A 
ATOM      8  N   UNL     1       4.975   5.225  19.068  0.00  0.00    +0.000 N 
ATOM      9  N   UNL     1       6.171   4.959  17.061  0.00  0.00    +0.000 NA
ATOM     10  H   UNL     1       8.256   4.949  14.709  0.00  0.00    +0.000 HD
ATOM     11  H   UNL     1       7.166   3.723  15.268  0.00  0.00    +0.000 HD
ATOM     12  H   UNL     1       4.905   5.854  19.854  0.00  0.00    +0.000 HD
BRANCH   8  13
ATOM     13  C   UNL     1       3.821   4.456  18.827  0.00  0.00    +0.000 A 
ATOM     14  C   UNL     1       3.803   3.110  19.215  0.00  0.00    +0.000 A 
ATOM     15  C   UNL     1       2.694   2.301  18.944  0.00  0.00    +0.000 A 
ATOM     16  C   UNL     1       1.579   2.834  18.301  0.00  0.00    +0.000 A 
ATOM     17  C   UNL     1       1.574   4.175  17.926  0.00  0.00    +0.000 A 
ATOM     18  C   UNL     1       2.690   4.974  18.182  0.00  0.00    +0.000 A 
ENDBRANCH   8  13
ENDBRANCH   1   5
BRANCH   1  19
ATOM     19  O   UNL     1       8.864   8.768  18.741  0.00  0.00    +0.000 OA
BRANCH  19  20
ATOM     20  C   UNL     1       9.109  10.025  19.188  0.00  0.00    +0.000 C 
ATOM     21  O   UNL     1       9.229  10.326  20.371  0.00  0.00    +0.000 OA
BRANCH  20  22
ATOM     22  C   UNL     1       9.258  11.040  18.070  0.00  0.00    +0.000 C 
ATOM     23  C   UNL     1      10.741  11.276  17.796  0.00  0.00    +0.000 C 
ATOM     24  C   UNL     1      11.048  12.472  18.661  0.00  0.00    +0.000 C 
ATOM     25  O   UNL     1      12.156  12.782  19.060  0.00  0.00    +0.000 OA
ATOM     26  N   UNL     1       9.861  13.167  18.850  0.00  0.00    +0.000 N 
ATOM     27  C   UNL     1       8.722  12.435  18.349  0.00  0.00    +0.000 C 
BRANCH  26  28
ATOM     28  C   UNL     1       9.710  14.402  19.616  0.00  0.00    +0.000 C 
BRANCH  28  29
ATOM     29  C   UNL     1       9.956  14.223  21.118  0.00  0.00    +0.000 C 
BRANCH  29  30
ATOM     30  C   UNL     1       8.770  13.645  21.850  0.00  0.00    +0.000 A 
ATOM     31  C   UNL     1       8.925  12.524  22.677  0.00  0.00    +0.000 A 
ATOM     32  C   UNL     1       7.838  12.016  23.390  0.00  0.00    +0.000 A 
ATOM     33  C   UNL     1       6.587  12.620  23.278  0.00  0.00    +0.000 A 
ATOM     34  C   UNL     1       6.420  13.727  22.449  0.00  0.00    +0.000 A 
ATOM     35  C   UNL     1       7.506  14.236  21.734  0.00  0.00    +0.000 A 
ENDBRANCH  29  30
ENDBRANCH  28  29
ENDBRANCH  26  28
ENDBRANCH  20  22
ENDBRANCH  19  20
ENDBRANCH   1  19
TORSDOF 8
ENDMDL
MODEL 7
REMARK VINA RESULT:      -8.5      1.073      1.440
REMARK  Name = 
REMARK  8 active torsions:
REMARK  status: ('A' for Active; 'I' for Inactive)
REMARK    1  A    between atoms: C_4  and  C_5
REMARK    2  A    between atoms: C_5  and  O_6
REMARK    3  A    between atoms: O_6  and  C_7
REMARK    4  A    between atoms: C_7  and  C_9
REMARK    5  A    between atoms: N_13  and  C_14
REMARK    6  A    between atoms: C_14  and  C_15
REMARK    7  A    between atoms: C_15  and  C_16
REMARK    8  A    between atoms: N_25  and  C_26
REMARK                            x       y       z     vdW  Elec       q    Type
REMARK                         _______ _______ _______ _____ _____    ______ ____
ROOT
ATOM      1  C   UNL     1       8.961   9.028  17.838  0.00  0.00    +0.000 C 
ENDROOT
BRANCH   1   5
ATOM      2  N   UNL     1       9.591  11.806  21.650  0.00  0.00    +0.000 N 
ATOM      3  C   UNL     1       9.289  11.671  20.313  0.00  0.00    +0.000 A 
ATOM      4  N   UNL     1       9.342  10.463  19.787  0.00  0.00    +0.000 NA
ATOM      5  C   UNL     1       9.021  10.396  18.491  0.00  0.00    +0.000 A 
ATOM      6  N   UNL     1       8.731  11.452  17.725  0.00  0.00    +0.000 NA
ATOM      7  C   UNL     1       8.702  12.622  18.359  0.00  0.00    +0.000 A 
ATOM      8  N   UNL     1       8.385  13.752  17.601  0.00  0.00    +0.000 N 
ATOM      9  N   UNL     1       8.986  12.771  19.652  0.00  0.00    +0.000 NA
ATOM     10  H   UNL     1      10.137  11.026  22.000  0.00  0.00    +0.000 HD
ATOM     11  H   UNL     1       9.910  12.739  21.860  0.00  0.00    +0.000 HD
ATOM     12  H   UNL     1       8.253  13.506  16.630  0.00  0.00    +0.000 HD
BRANCH   8  13
ATOM     13  C   UNL     1       7.685  14.899  18.017  0.00  0.00    +0.000 A 
ATOM     14  C   UNL     1       8.387  16.096  18.211  0.00  0.00    +0.000 A 
ATOM     15  C   UNL     1       7.733  17.243  18.674  0.00  0.00    +0.000 A 
ATOM     16  C   UNL     1       6.364  17.213  18.930  0.00  0.00    +0.000 A 
ATOM     17  C   UNL     1       5.649  16.037  18.724  0.00  0.00    +0.000 A 
ATOM     18  C   UNL     1       6.308  14.889  18.279  0.00  0.00    +0.000 A 
ENDBRANCH   8  13
ENDBRANCH   1   5
BRANCH   1  19
ATOM     19  O   UNL     1       8.173   8.066  18.567  0.00  0.00    +0.000 OA
BRANCH  19  20
ATOM     20  C   UNL     1       7.418   7.243  17.798  0.00  0.00    +0.000 C 
ATOM     21  O   UNL     1       6.980   7.542  16.692  0.00  0.00    +0.000 OA
BRANCH  20  22
ATOM     22  C   UNL     1       7.189   5.880  18.424  0.00  0.00    +0.000 C 
ATOM     23  C   UNL     1       7.697   4.796  17.477  0.00  0.00    +0.000 C 
ATOM     24  C   UNL     1       6.458   4.433  16.700  0.00  0.00    +0.000 C 
ATOM     25  O   UNL     1       6.449   3.905  15.602  0.00  0.00    +0.000 OA
ATOM     26  N   UNL     1       5.361   4.748  17.490  0.00  0.00    +0.000 N 
ATOM     27  C   UNL     1       5.741   5.486  18.671  0.00  0.00    +0.000 C 
BRANCH  26  28
ATOM     28  C   UNL     1       3.961   4.541  17.126  0.00  0.00    +0.000 C 
BRANCH  28  29
ATOM     29  C   UNL     1       2.979   5.310  18.017  0.00  0.00    +0.000 C 
BRANCH  29  30
ATOM     30  C   UNL     1       2.344   4.450  19.082  0.00  0.00    +0.000 A 
ATOM     31  C   UNL     1       2.649   4.657  20.434  0.00  0.00    +0.000 A 
ATOM     32  C   UNL     1       2.029   3.893  21.423  0.00  0.00    +0.000 A 
ATOM     33  C   UNL     1       1.104   2.913  21.070  0.00  0.00    +0.000 A 
ATOM     34  C   UNL     1       0.803   2.691  19.728  0.00  0.00    +0.000 A 
ATOM     35  C   UNL     1       1.423   3.453  18.736  0.00  0.00    +0.000 A 
ENDBRANCH  29  30
ENDBRANCH  28  29
ENDBRANCH  26  28
ENDBRANCH  20  22
ENDBRANCH  19  20
ENDBRANCH   1  19
TORSDOF 8
ENDMDL
MODEL 8
REMARK VINA RESULT:      -8.5      6.289      9.063
REMARK  Name = 
REMARK  8 active torsions:
REMARK  status: ('A' for Active; 'I' for Inactive)
REMARK    1  A    between atoms: C_4  and  C_5
REMARK    2  A    between atoms: C_5  and  O_6
REMARK    3  A    between atoms: O_6  and  C_7
REMARK    4  A    between atoms: C_7  and  C_9
REMARK    5  A    between atoms: N_13  and  C_14
REMARK    6  A    between atoms: C_14  and  C_15
REMARK    7  A    between atoms: C_15  and  C_16
REMARK    8  A    between atoms: N_25  and  C_26
REMARK                            x       y       z     vdW  Elec       q    Type
REMARK                         _______ _______ _______ _____ _____    ______ ____
ROOT
ATOM      1  C   UNL     1       1.882   8.055  21.215  0.00  0.00    +0.000 C 
ENDROOT
BRANCH   1   5
ATOM      2  N   UNL     1      -1.124  11.517  22.484  0.00  0.00    +0.000 N 
ATOM      3  C   UNL     1      -0.546  10.745  21.502  0.00  0.00    +0.000 A 
ATOM      4  N   UNL     1       0.378   9.876  21.863  0.00  0.00    +0.000 NA
ATOM      5  C   UNL     1       0.887   9.145  20.867  0.00  0.00    +0.000 A 
ATOM      6  N   UNL     1       0.571   9.295  19.577  0.00  0.00    +0.000 NA
ATOM      7  C   UNL     1      -0.376  10.196  19.325  0.00  0.00    +0.000 A 
ATOM      8  N   UNL     1      -0.752  10.373  17.992  0.00  0.00    +0.000 N 
ATOM      9  N   UNL     1      -0.950  10.949  20.263  0.00  0.00    +0.000 NA
ATOM     10  H   UNL     1      -0.550  11.569  23.318  0.00  0.00    +0.000 HD
ATOM     11  H   UNL     1      -1.489  12.378  22.106  0.00  0.00    +0.000 HD
ATOM     12  H   UNL     1      -0.199   9.787  17.383  0.00  0.00    +0.000 HD
BRANCH   8  13
ATOM     13  C   UNL     1      -2.026  10.701  17.492  0.00  0.00    +0.000 A 
ATOM     14  C   UNL     1      -2.371  10.314  16.191  0.00  0.00    +0.000 A 
ATOM     15  C   UNL     1      -3.609  10.668  15.643  0.00  0.00    +0.000 A 
ATOM     16  C   UNL     1      -4.526  11.396  16.397  0.00  0.00    +0.000 A 
ATOM     17  C   UNL     1      -4.206  11.771  17.699  0.00  0.00    +0.000 A 
ATOM     18  C   UNL     1      -2.962  11.432  18.236  0.00  0.00    +0.000 A 
ENDBRANCH   8  13
ENDBRANCH   1   5
BRANCH   1  19
ATOM     19  O   UNL     1       1.423   6.724  20.909  0.00  0.00    +0.000 OA
BRANCH  19  20
ATOM     20  C   UNL     1       2.143   6.073  19.963  0.00  0.00    +0.000 C 
ATOM     21  O   UNL     1       3.162   6.516  19.443  0.00  0.00    +0.000 OA
BRANCH  20  22
ATOM     22  C   UNL     1       1.585   4.703  19.622  0.00  0.00    +0.000 C 
ATOM     23  C   UNL     1       2.148   3.671  20.595  0.00  0.00    +0.000 C 
ATOM     24  C   UNL     1       3.355   3.149  19.856  0.00  0.00    +0.000 C 
ATOM     25  O   UNL     1       4.313   2.605  20.376  0.00  0.00    +0.000 OA
ATOM     26  N   UNL     1       3.133   3.345  18.500  0.00  0.00    +0.000 N 
ATOM     27  C   UNL     1       1.955   4.145  18.257  0.00  0.00    +0.000 C 
BRANCH  26  28
ATOM     28  C   UNL     1       4.046   2.968  17.424  0.00  0.00    +0.000 C 
BRANCH  28  29
ATOM     29  C   UNL     1       4.420   4.135  16.503  0.00  0.00    +0.000 C 
BRANCH  29  30
ATOM     30  C   UNL     1       5.493   5.026  17.078  0.00  0.00    +0.000 A 
ATOM     31  C   UNL     1       6.484   4.494  17.914  0.00  0.00    +0.000 A 
ATOM     32  C   UNL     1       7.502   5.309  18.410  0.00  0.00    +0.000 A 
ATOM     33  C   UNL     1       7.535   6.662  18.081  0.00  0.00    +0.000 A 
ATOM     34  C   UNL     1       6.548   7.204  17.261  0.00  0.00    +0.000 A 
ATOM     35  C   UNL     1       5.527   6.391  16.764  0.00  0.00    +0.000 A 
ENDBRANCH  29  30
ENDBRANCH  28  29
ENDBRANCH  26  28
ENDBRANCH  20  22
ENDBRANCH  19  20
ENDBRANCH   1  19
TORSDOF 8
ENDMDL
MODEL 9
REMARK VINA RESULT:      -8.4      1.865      2.606
REMARK  Name = 
REMARK  8 active torsions:
REMARK  status: ('A' for Active; 'I' for Inactive)
REMARK    1  A    between atoms: C_4  and  C_5
REMARK    2  A    between atoms: C_5  and  O_6
REMARK    3  A    between atoms: O_6  and  C_7
REMARK    4  A    between atoms: C_7  and  C_9
REMARK    5  A    between atoms: N_13  and  C_14
REMARK    6  A    between atoms: C_14  and  C_15
REMARK    7  A    between atoms: C_15  and  C_16
REMARK    8  A    between atoms: N_25  and  C_26
REMARK                            x       y       z     vdW  Elec       q    Type
REMARK                         _______ _______ _______ _____ _____    ______ ____
ROOT
ATOM      1  C   UNL     1       8.212   9.108  17.759  0.00  0.00    +0.000 C 
ENDROOT
BRANCH   1   5
ATOM      2  N   UNL     1       9.522  11.332  21.757  0.00  0.00    +0.000 N 
ATOM      3  C   UNL     1       9.599  11.201  20.388  0.00  0.00    +0.000 A 
ATOM      4  N   UNL     1       8.931  10.215  19.823  0.00  0.00    +0.000 NA
ATOM      5  C   UNL     1       9.032  10.153  18.491  0.00  0.00    +0.000 A 
ATOM      6  N   UNL     1       9.796  10.960  17.750  0.00  0.00    +0.000 NA
ATOM      7  C   UNL     1      10.424  11.923  18.422  0.00  0.00    +0.000 A 
ATOM      8  N   UNL     1      11.220  12.802  17.684  0.00  0.00    +0.000 N 
ATOM      9  N   UNL     1      10.357  12.067  19.745  0.00  0.00    +0.000 NA
ATOM     10  H   UNL     1       9.235  10.470  22.208  0.00  0.00    +0.000 HD
ATOM     11  H   UNL     1      10.329  11.812  22.124  0.00  0.00    +0.000 HD
ATOM     12  H   UNL     1      11.229  12.543  16.708  0.00  0.00    +0.000 HD
BRANCH   8  13
ATOM     13  C   UNL     1      11.453  14.167  17.932  0.00  0.00    +0.000 A 
ATOM     14  C   UNL     1      11.394  15.075  16.867  0.00  0.00    +0.000 A 
ATOM     15  C   UNL     1      11.671  16.433  17.066  0.00  0.00    +0.000 A 
ATOM     16  C   UNL     1      11.991  16.902  18.338  0.00  0.00    +0.000 A 
ATOM     17  C   UNL     1      12.035  16.016  19.410  0.00  0.00    +0.000 A 
ATOM     18  C   UNL     1      11.775  14.659  19.204  0.00  0.00    +0.000 A 
ENDBRANCH   8  13
ENDBRANCH   1   5
BRANCH   1  19
ATOM     19  O   UNL     1       8.210   7.814  18.395  0.00  0.00    +0.000 OA
BRANCH  19  20
ATOM     20  C   UNL     1       7.758   6.797  17.621  0.00  0.00    +0.000 C 
ATOM     21  O   UNL     1       7.721   6.825  16.395  0.00  0.00    +0.000 OA
BRANCH  20  22
ATOM     22  C   UNL     1       7.325   5.582  18.421  0.00  0.00    +0.000 C 
ATOM     23  C   UNL     1       7.054   4.419  17.470  0.00  0.00    +0.000 C 
ATOM     24  C   UNL     1       5.573   4.541  17.219  0.00  0.00    +0.000 C 
ATOM     25  O   UNL     1       4.987   4.086  16.253  0.00  0.00    +0.000 OA
ATOM     26  N   UNL     1       5.015   5.196  18.308  0.00  0.00    +0.000 N 
ATOM     27  C   UNL     1       6.026   5.715  19.199  0.00  0.00    +0.000 C 
BRANCH  26  28
ATOM     28  C   UNL     1       3.598   5.507  18.481  0.00  0.00    +0.000 C 
BRANCH  28  29
ATOM     29  C   UNL     1       3.164   6.793  17.769  0.00  0.00    +0.000 C 
BRANCH  29  30
ATOM     30  C   UNL     1       2.293   7.681  18.622  0.00  0.00    +0.000 A 
ATOM     31  C   UNL     1       2.088   7.383  19.976  0.00  0.00    +0.000 A 
ATOM     32  C   UNL     1       1.321   8.228  20.778  0.00  0.00    +0.000 A 
ATOM     33  C   UNL     1       0.746   9.374  20.233  0.00  0.00    +0.000 A 
ATOM     34  C   UNL     1       0.933   9.673  18.885  0.00  0.00    +0.000 A 
ATOM     35  C   UNL     1       1.700   8.828  18.081  0.00  0.00    +0.000 A 
ENDBRANCH  29  30
ENDBRANCH  28  29
ENDBRANCH  26  28
ENDBRANCH  20  22
ENDBRANCH  19  20
ENDBRANCH   1  19
TORSDOF 8
ENDMDL
