MODEL 1
REMARK VINA RESULT:      -8.1      0.000      0.000
REMARK  Name = 
REMARK  5 active torsions:
REMARK  status: ('A' for Active; 'I' for Inactive)
REMARK    1  A    between atoms: C_7  and  C_8
REMARK    2  A    between atoms: C_8  and  N_9
REMARK    3  A    between atoms: N_9  and  C_10
REMARK    4  A    between atoms: C_16  and  C_17
REMARK    5  A    between atoms: C_18  and  C_19
REMARK                            x       y       z     vdW  Elec       q    Type
REMARK                         _______ _______ _______ _____ _____    ______ ____
ROOT
ATOM      1  C   UNL     1       3.760   3.634  17.393  0.00  0.00    +0.000 A 
ATOM      2  C   UNL     1       4.132   2.369  17.868  0.00  0.00    +0.000 A 
ATOM      3  C   UNL     1       3.782   1.917  19.146  0.00  0.00    +0.000 A 
ATOM      4  C   UNL     1       3.063   2.800  19.952  0.00  0.00    +0.000 A 
ATOM      5  N   UNL     1       2.576   2.679  21.223  0.00  0.00    +0.000 N 
ATOM      6  N   UNL     1       1.928   3.765  21.678  0.00  0.00    +0.000 NA
ATOM      7  C   UNL     1       1.992   4.634  20.655  0.00  0.00    +0.000 A 
ATOM      8  C   UNL     1       2.697   4.077  19.544  0.00  0.00    +0.000 A 
ATOM      9  C   UNL     1       3.069   4.504  18.250  0.00  0.00    +0.000 A 
ATOM     10  H   UNL     1       2.656   1.877  21.838  0.00  0.00    +0.000 HD
ENDROOT
BRANCH   1  11
ATOM     11  N   UNL     1       4.180   3.985  16.103  0.00  0.00    +0.000 N 
ATOM     12  H   UNL     1       3.675   3.427  15.415  0.00  0.00    +0.000 HD
BRANCH  11  13
ATOM     13  C   UNL     1       5.615   3.976  15.819  0.00  0.00    +0.000 C 
BRANCH  13  20
ATOM     14  F   UNL     1       5.244   6.789  15.612  0.00  0.00    +0.000 F 
ATOM     15  C   UNL     1       6.100   6.346  16.544  0.00  0.00    +0.000 A 
ATOM     16  C   UNL     1       6.772   7.278  17.333  0.00  0.00    +0.000 A 
ATOM     17  C   UNL     1       7.681   6.844  18.297  0.00  0.00    +0.000 A 
ATOM     18  C   UNL     1       7.913   5.480  18.465  0.00  0.00    +0.000 A 
ATOM     19  C   UNL     1       7.235   4.551  17.673  0.00  0.00    +0.000 A 
ATOM     20  C   UNL     1       6.310   4.976  16.704  0.00  0.00    +0.000 A 
ENDBRANCH  13  20
ENDBRANCH  11  13
ENDBRANCH   1  11
BRANCH   7  21
ATOM     21  C   UNL     1       1.416   5.947  20.687  0.00  0.00    +0.000 C 
ATOM     22  C   UNL     1       2.085   7.085  20.426  0.00  0.00    +0.000 C 
BRANCH  22  23
ATOM     23  C   UNL     1       1.479   8.422  20.449  0.00  0.00    +0.000 A 
ATOM     24  C   UNL     1       1.279   9.118  19.260  0.00  0.00    +0.000 A 
ATOM     25  C   UNL     1       0.688  10.378  19.310  0.00  0.00    +0.000 A 
ATOM     26  C   UNL     1       0.314  10.908  20.537  0.00  0.00    +0.000 A 
ATOM     27  C   UNL     1       0.554  10.152  21.673  0.00  0.00    +0.000 A 
ATOM     28  N   UNL     1       1.126   8.927  21.655  0.00  0.00    +0.000 NA
ENDBRANCH  22  23
ENDBRANCH   7  21
TORSDOF 5
ENDMDL
MODEL 2
REMARK VINA RESULT:      -8.1      2.950      7.941
REMARK  Name = 
REMARK  5 active torsions:
REMARK  status: ('A' for Active; 'I' for Inactive)
REMARK    1  A    between atoms: C_7  and  C_8
REMARK    2  A    between atoms: C_8  and  N_9
REMARK    3  A    between atoms: N_9  and  C_10
REMARK    4  A    between atoms: C_16  and  C_17
REMARK    5  A    between atoms: C_18  and  C_19
REMARK                            x       y       z     vdW  Elec       q    Type
REMARK                         _______ _______ _______ _____ _____    ______ ____
ROOT
ATOM      1  C   UNL     1       2.318   7.576  18.529  0.00  0.00    +0.000 A 
ATOM      2  C   UNL     1       2.013   7.200  19.843  0.00  0.00    +0.000 A 
ATOM      3  C   UNL     1       2.430   5.980  20.389  0.00  0.00    +0.000 A 
ATOM      4  C   UNL     1       3.148   5.127  19.549  0.00  0.00    +0.000 A 
ATOM      5  N   UNL     1       3.689   3.889  19.759  0.00  0.00    +0.000 N 
ATOM      6  N   UNL     1       4.313   3.366  18.690  0.00  0.00    +0.000 NA
ATOM      7  C   UNL     1       4.177   4.306  17.740  0.00  0.00    +0.000 A 
ATOM      8  C   UNL     1       3.449   5.436  18.228  0.00  0.00    +0.000 A 
ATOM      9  C   UNL     1       3.010   6.673  17.707  0.00  0.00    +0.000 A 
ATOM     10  H   UNL     1       3.664   3.344  20.612  0.00  0.00    +0.000 HD
ENDROOT
BRANCH   1  11
ATOM     11  N   UNL     1       1.834   8.815  18.086  0.00  0.00    +0.000 N 
ATOM     12  H   UNL     1       2.548   9.279  17.525  0.00  0.00    +0.000 HD
BRANCH  11  13
ATOM     13  C   UNL     1       1.284   9.735  19.082  0.00  0.00    +0.000 C 
BRANCH  13  20
ATOM     14  F   UNL     1       0.138  12.147  20.064  0.00  0.00    +0.000 F 
ATOM     15  C   UNL     1      -0.534  11.488  19.108  0.00  0.00    +0.000 A 
ATOM     16  C   UNL     1      -1.755  12.001  18.673  0.00  0.00    +0.000 A 
ATOM     17  C   UNL     1      -2.481  11.325  17.693  0.00  0.00    +0.000 A 
ATOM     18  C   UNL     1      -1.982  10.139  17.156  0.00  0.00    +0.000 A 
ATOM     19  C   UNL     1      -0.758   9.632  17.595  0.00  0.00    +0.000 A 
ATOM     20  C   UNL     1      -0.013  10.308  18.576  0.00  0.00    +0.000 A 
ENDBRANCH  13  20
ENDBRANCH  11  13
ENDBRANCH   1  11
BRANCH   7  21
ATOM     21  C   UNL     1       4.704   4.182  16.412  0.00  0.00    +0.000 C 
ATOM     22  C   UNL     1       5.830   4.775  15.976  0.00  0.00    +0.000 C 
BRANCH  22  23
ATOM     23  C   UNL     1       6.366   4.630  14.616  0.00  0.00    +0.000 A 
ATOM     24  C   UNL     1       5.776   3.736  13.726  0.00  0.00    +0.000 A 
ATOM     25  C   UNL     1       6.294   3.631  12.437  0.00  0.00    +0.000 A 
ATOM     26  C   UNL     1       7.381   4.415  12.073  0.00  0.00    +0.000 A 
ATOM     27  C   UNL     1       7.911   5.274  13.021  0.00  0.00    +0.000 A 
ATOM     28  N   UNL     1       7.429   5.397  14.279  0.00  0.00    +0.000 NA
ENDBRANCH  22  23
ENDBRANCH   7  21
TORSDOF 5
ENDMDL
MODEL 3
REMARK VINA RESULT:      -8.1      2.630      7.642
REMARK  Name = 
REMARK  5 active torsions:
REMARK  status: ('A' for Active; 'I' for Inactive)
REMARK    1  A    between atoms: C_7  and  C_8
REMARK    2  A    between atoms: C_8  and  N_9
REMARK    3  A    between atoms: N_9  and  C_10
REMARK    4  A    between atoms: C_16  and  C_17
REMARK    5  A    between atoms: C_18  and  C_19
REMARK                            x       y       z     vdW  Elec       q    Type
REMARK                         _______ _______ _______ _____ _____    ______ ____
ROOT
ATOM      1  C   UNL     1       2.682   7.420  18.579  0.00  0.00    +0.000 A 
ATOM      2  C   UNL     1       2.213   7.008  19.833  0.00  0.00    +0.000 A 
ATOM      3  C   UNL     1       2.404   5.707  20.313  0.00  0.00    +0.000 A 
ATOM      4  C   UNL     1       3.065   4.814  19.468  0.00  0.00    +0.000 A 
ATOM      5  N   UNL     1       3.406   3.500  19.622  0.00  0.00    +0.000 N 
ATOM      6  N   UNL     1       4.042   2.961  18.568  0.00  0.00    +0.000 NA
ATOM      7  C   UNL     1       4.123   3.972  17.686  0.00  0.00    +0.000 A 
ATOM      8  C   UNL     1       3.521   5.161  18.202  0.00  0.00    +0.000 A 
ATOM      9  C   UNL     1       3.309   6.481  17.746  0.00  0.00    +0.000 A 
ATOM     10  H   UNL     1       3.230   2.909  20.427  0.00  0.00    +0.000 HD
ENDROOT
BRANCH   1  11
ATOM     11  N   UNL     1       2.419   8.743  18.197  0.00  0.00    +0.000 N 
ATOM     12  H   UNL     1       2.571   9.364  18.991  0.00  0.00    +0.000 HD
BRANCH  11  13
ATOM     13  C   UNL     1       1.135   9.032  17.557  0.00  0.00    +0.000 C 
BRANCH  13  20
ATOM     14  F   UNL     1      -1.559   9.766  17.009  0.00  0.00    +0.000 F 
ATOM     15  C   UNL     1      -0.995  10.267  18.118  0.00  0.00    +0.000 A 
ATOM     16  C   UNL     1      -1.742  11.131  18.917  0.00  0.00    +0.000 A 
ATOM     17  C   UNL     1      -1.173  11.680  20.065  0.00  0.00    +0.000 A 
ATOM     18  C   UNL     1       0.141  11.362  20.407  0.00  0.00    +0.000 A 
ATOM     19  C   UNL     1       0.883  10.495  19.603  0.00  0.00    +0.000 A 
ATOM     20  C   UNL     1       0.318   9.929  18.448  0.00  0.00    +0.000 A 
ENDBRANCH  13  20
ENDBRANCH  11  13
ENDBRANCH   1  11
BRANCH   7  21
ATOM     21  C   UNL     1       4.742   3.858  16.397  0.00  0.00    +0.000 C 
ATOM     22  C   UNL     1       5.600   4.755  15.877  0.00  0.00    +0.000 C 
BRANCH  22  23
ATOM     23  C   UNL     1       6.237   4.621  14.560  0.00  0.00    +0.000 A 
ATOM     24  C   UNL     1       5.677   3.785  13.598  0.00  0.00    +0.000 A 
ATOM     25  C   UNL     1       6.292   3.689  12.351  0.00  0.00    +0.000 A 
ATOM     26  C   UNL     1       7.442   4.426  12.100  0.00  0.00    +0.000 A 
ATOM     27  C   UNL     1       7.935   5.229  13.116  0.00  0.00    +0.000 A 
ATOM     28  N   UNL     1       7.360   5.342  14.334  0.00  0.00    +0.000 NA
ENDBRANCH  22  23
ENDBRANCH   7  21
TORSDOF 5
ENDMDL
MODEL 4
REMARK VINA RESULT:      -8.1      3.235      6.728
REMARK  Name = 
REMARK  5 active torsions:
REMARK  status: ('A' for Active; 'I' for Inactive)
REMARK    1  A    between atoms: C_7  and  C_8
REMARK    2  A    between atoms: C_8  and  N_9
REMARK    3  A    between atoms: N_9  and  C_10
REMARK    4  A    between atoms: C_16  and  C_17
REMARK    5  A    between atoms: C_18  and  C_19
REMARK                            x       y       z     vdW  Elec       q    Type
REMARK                         _______ _______ _______ _____ _____    ______ ____
ROOT
ATOM      1  C   UNL     1       3.379   5.673  18.109  0.00  0.00    +0.000 A 
ATOM      2  C   UNL     1       3.277   4.439  17.453  0.00  0.00    +0.000 A 
ATOM      3  C   UNL     1       4.392   3.778  16.924  0.00  0.00    +0.000 A 
ATOM      4  C   UNL     1       5.624   4.420  17.052  0.00  0.00    +0.000 A 
ATOM      5  N   UNL     1       6.881   4.060  16.654  0.00  0.00    +0.000 N 
ATOM      6  N   UNL     1       7.838   4.957  16.951  0.00  0.00    +0.000 NA
ATOM      7  C   UNL     1       7.175   5.945  17.575  0.00  0.00    +0.000 A 
ATOM      8  C   UNL     1       5.777   5.658  17.663  0.00  0.00    +0.000 A 
ATOM      9  C   UNL     1       4.632   6.300  18.183  0.00  0.00    +0.000 A 
ATOM     10  H   UNL     1       7.154   3.213  16.169  0.00  0.00    +0.000 HD
ENDROOT
BRANCH   1  11
ATOM     11  N   UNL     1       2.193   6.248  18.585  0.00  0.00    +0.000 N 
ATOM     12  H   UNL     1       1.802   6.864  17.872  0.00  0.00    +0.000 HD
BRANCH  11  13
ATOM     13  C   UNL     1       2.227   6.921  19.884  0.00  0.00    +0.000 C 
BRANCH  13  20
ATOM     14  F   UNL     1       1.065   8.379  22.033  0.00  0.00    +0.000 F 
ATOM     15  C   UNL     1       1.102   8.974  20.832  0.00  0.00    +0.000 A 
ATOM     16  C   UNL     1       0.553  10.248  20.698  0.00  0.00    +0.000 A 
ATOM     17  C   UNL     1       0.563  10.880  19.456  0.00  0.00    +0.000 A 
ATOM     18  C   UNL     1       1.122  10.234  18.354  0.00  0.00    +0.000 A 
ATOM     19  C   UNL     1       1.672   8.959  18.495  0.00  0.00    +0.000 A 
ATOM     20  C   UNL     1       1.676   8.315  19.744  0.00  0.00    +0.000 A 
ENDBRANCH  13  20
ENDBRANCH  11  13
ENDBRANCH   1  11
BRANCH   7  21
ATOM     21  C   UNL     1       7.803   7.128  18.087  0.00  0.00    +0.000 C 
ATOM     22  C   UNL     1       7.686   8.355  17.546  0.00  0.00    +0.000 C 
BRANCH  22  23
ATOM     23  C   UNL     1       8.326   9.560  18.088  0.00  0.00    +0.000 A 
ATOM     24  C   UNL     1       9.097   9.480  19.244  0.00  0.00    +0.000 A 
ATOM     25  C   UNL     1       9.707  10.636  19.727  0.00  0.00    +0.000 A 
ATOM     26  C   UNL     1       9.531  11.834  19.048  0.00  0.00    +0.000 A 
ATOM     27  C   UNL     1       8.742  11.827  17.908  0.00  0.00    +0.000 A 
ATOM     28  N   UNL     1       8.140  10.721  17.417  0.00  0.00    +0.000 NA
ENDBRANCH  22  23
ENDBRANCH   7  21
TORSDOF 5
ENDMDL
MODEL 5
REMARK VINA RESULT:      -8.0      3.183      6.779
REMARK  Name = 
REMARK  5 active torsions:
REMARK  status: ('A' for Active; 'I' for Inactive)
REMARK    1  A    between atoms: C_7  and  C_8
REMARK    2  A    between atoms: C_8  and  N_9
REMARK    3  A    between atoms: N_9  and  C_10
REMARK    4  A    between atoms: C_16  and  C_17
REMARK    5  A    between atoms: C_18  and  C_19
REMARK                            x       y       z     vdW  Elec       q    Type
REMARK                         _______ _______ _______ _____ _____    ______ ____
ROOT
ATOM      1  C   UNL     1       3.371   6.042  17.995  0.00  0.00    +0.000 A 
ATOM      2  C   UNL     1       3.228   4.761  17.445  0.00  0.00    +0.000 A 
ATOM      3  C   UNL     1       4.327   3.989  17.051  0.00  0.00    +0.000 A 
ATOM      4  C   UNL     1       5.589   4.565  17.202  0.00  0.00    +0.000 A 
ATOM      5  N   UNL     1       6.841   4.096  16.921  0.00  0.00    +0.000 N 
ATOM      6  N   UNL     1       7.834   4.958  17.200  0.00  0.00    +0.000 NA
ATOM      7  C   UNL     1       7.201   6.037  17.689  0.00  0.00    +0.000 A 
ATOM      8  C   UNL     1       5.785   5.843  17.711  0.00  0.00    +0.000 A 
ATOM      9  C   UNL     1       4.655   6.598  18.096  0.00  0.00    +0.000 A 
ATOM     10  H   UNL     1       7.087   3.194  16.532  0.00  0.00    +0.000 HD
ENDROOT
BRANCH   1  11
ATOM     11  N   UNL     1       2.198   6.728  18.339  0.00  0.00    +0.000 N 
ATOM     12  H   UNL     1       1.413   6.349  17.811  0.00  0.00    +0.000 HD
BRANCH  11  13
ATOM     13  C   UNL     1       2.209   8.190  18.267  0.00  0.00    +0.000 C 
BRANCH  13  20
ATOM     14  F   UNL     1       0.531  10.475  18.035  0.00  0.00    +0.000 F 
ATOM     15  C   UNL     1       0.618   9.892  19.240  0.00  0.00    +0.000 A 
ATOM     16  C   UNL     1      -0.090  10.447  20.305  0.00  0.00    +0.000 A 
ATOM     17  C   UNL     1      -0.001   9.870  21.571  0.00  0.00    +0.000 A 
ATOM     18  C   UNL     1       0.795   8.742  21.764  0.00  0.00    +0.000 A 
ATOM     19  C   UNL     1       1.499   8.190  20.693  0.00  0.00    +0.000 A 
ATOM     20  C   UNL     1       1.412   8.758  19.410  0.00  0.00    +0.000 A 
ENDBRANCH  13  20
ENDBRANCH  11  13
ENDBRANCH   1  11
BRANCH   7  21
ATOM     21  C   UNL     1       7.874   7.223  18.135  0.00  0.00    +0.000 C 
ATOM     22  C   UNL     1       7.666   8.456  17.638  0.00  0.00    +0.000 C 
BRANCH  22  23
ATOM     23  C   UNL     1       8.353   9.664  18.112  0.00  0.00    +0.000 A 
ATOM     24  C   UNL     1       9.203   9.595  19.213  0.00  0.00    +0.000 A 
ATOM     25  C   UNL     1       9.855  10.753  19.631  0.00  0.00    +0.000 A 
ATOM     26  C   UNL     1       9.643  11.941  18.945  0.00  0.00    +0.000 A 
ATOM     27  C   UNL     1       8.776  11.923  17.864  0.00  0.00    +0.000 A 
ATOM     28  N   UNL     1       8.130  10.815  17.436  0.00  0.00    +0.000 NA
ENDBRANCH  22  23
ENDBRANCH   7  21
TORSDOF 5
ENDMDL
MODEL 6
REMARK VINA RESULT:      -8.0      2.371      4.693
REMARK  Name = 
REMARK  5 active torsions:
REMARK  status: ('A' for Active; 'I' for Inactive)
REMARK    1  A    between atoms: C_7  and  C_8
REMARK    2  A    between atoms: C_8  and  N_9
REMARK    3  A    between atoms: N_9  and  C_10
REMARK    4  A    between atoms: C_16  and  C_17
REMARK    5  A    between atoms: C_18  and  C_19
REMARK                            x       y       z     vdW  Elec       q    Type
REMARK                         _______ _______ _______ _____ _____    ______ ____
ROOT
ATOM      1  C   UNL     1       4.913   4.324  18.871  0.00  0.00    +0.000 A 
ATOM      2  C   UNL     1       5.394   4.333  17.555  0.00  0.00    +0.000 A 
ATOM      3  C   UNL     1       5.071   5.348  16.647  0.00  0.00    +0.000 A 
ATOM      4  C   UNL     1       4.212   6.350  17.102  0.00  0.00    +0.000 A 
ATOM      5  N   UNL     1       3.705   7.460  16.487  0.00  0.00    +0.000 N 
ATOM      6  N   UNL     1       2.889   8.200  17.257  0.00  0.00    +0.000 NA
ATOM      7  C   UNL     1       2.865   7.544  18.429  0.00  0.00    +0.000 A 
ATOM      8  C   UNL     1       3.680   6.371  18.385  0.00  0.00    +0.000 A 
ATOM      9  C   UNL     1       4.024   5.331  19.276  0.00  0.00    +0.000 A 
ATOM     10  H   UNL     1       3.876   7.769  15.537  0.00  0.00    +0.000 HD
ENDROOT
BRANCH   1  11
ATOM     11  N   UNL     1       5.292   3.248  19.686  0.00  0.00    +0.000 N 
ATOM     12  H   UNL     1       6.286   3.059  19.562  0.00  0.00    +0.000 HD
BRANCH  11  13
ATOM     13  C   UNL     1       4.517   2.009  19.595  0.00  0.00    +0.000 C 
BRANCH  13  20
ATOM     14  F   UNL     1       2.653   1.856  17.452  0.00  0.00    +0.000 F 
ATOM     15  C   UNL     1       2.188   2.243  18.649  0.00  0.00    +0.000 A 
ATOM     16  C   UNL     1       0.838   2.570  18.770  0.00  0.00    +0.000 A 
ATOM     17  C   UNL     1       0.334   2.992  19.999  0.00  0.00    +0.000 A 
ATOM     18  C   UNL     1       1.184   3.086  21.101  0.00  0.00    +0.000 A 
ATOM     19  C   UNL     1       2.534   2.755  20.974  0.00  0.00    +0.000 A 
ATOM     20  C   UNL     1       3.052   2.320  19.742  0.00  0.00    +0.000 A 
ENDBRANCH  13  20
ENDBRANCH  11  13
ENDBRANCH   1  11
BRANCH   7  21
ATOM     21  C   UNL     1       2.117   7.981  19.573  0.00  0.00    +0.000 C 
ATOM     22  C   UNL     1       1.406   9.122  19.634  0.00  0.00    +0.000 C 
BRANCH  22  23
ATOM     23  C   UNL     1       0.635   9.552  20.808  0.00  0.00    +0.000 A 
ATOM     24  C   UNL     1       0.768   8.872  22.016  0.00  0.00    +0.000 A 
ATOM     25  C   UNL     1       0.037   9.311  23.118  0.00  0.00    +0.000 A 
ATOM     26  C   UNL     1      -0.802  10.410  22.986  0.00  0.00    +0.000 A 
ATOM     27  C   UNL     1      -0.880  11.024  21.746  0.00  0.00    +0.000 A 
ATOM     28  N   UNL     1      -0.183  10.620  20.661  0.00  0.00    +0.000 NA
ENDBRANCH  22  23
ENDBRANCH   7  21
TORSDOF 5
ENDMDL
MODEL 7
REMARK VINA RESULT:      -7.9      2.629      7.499
REMARK  Name = 
REMARK  5 active torsions:
REMARK  status: ('A' for Active; 'I' for Inactive)
REMARK    1  A    between atoms: C_7  and  C_8
REMARK    2  A    between atoms: C_8  and  N_9
REMARK    3  A    between atoms: N_9  and  C_10
REMARK    4  A    between atoms: C_16  and  C_17
REMARK    5  A    between atoms: C_18  and  C_19
REMARK                            x       y       z     vdW  Elec       q    Type
REMARK                         _______ _______ _______ _____ _____    ______ ____
ROOT
ATOM      1  C   UNL     1       2.300   6.990  19.405  0.00  0.00    +0.000 A 
ATOM      2  C   UNL     1       1.899   6.193  20.485  0.00  0.00    +0.000 A 
ATOM      3  C   UNL     1       2.236   4.838  20.581  0.00  0.00    +0.000 A 
ATOM      4  C   UNL     1       2.974   4.296  19.527  0.00  0.00    +0.000 A 
ATOM      5  N   UNL     1       3.455   3.036  19.309  0.00  0.00    +0.000 N 
ATOM      6  N   UNL     1       4.126   2.888  18.153  0.00  0.00    +0.000 NA
ATOM      7  C   UNL     1       4.084   4.109  17.594  0.00  0.00    +0.000 A 
ATOM      8  C   UNL     1       3.368   5.033  18.417  0.00  0.00    +0.000 A 
ATOM      9  C   UNL     1       3.009   6.397  18.350  0.00  0.00    +0.000 A 
ATOM     10  H   UNL     1       3.356   2.227  19.911  0.00  0.00    +0.000 HD
ENDROOT
BRANCH   1  11
ATOM     11  N   UNL     1       1.890   8.331  19.409  0.00  0.00    +0.000 N 
ATOM     12  H   UNL     1       1.054   8.431  19.983  0.00  0.00    +0.000 HD
BRANCH  11  13
ATOM     13  C   UNL     1       1.712   9.000  18.119  0.00  0.00    +0.000 C 
BRANCH  13  20
ATOM     14  F   UNL     1      -0.855   9.908  18.943  0.00  0.00    +0.000 F 
ATOM     15  C   UNL     1       0.091  10.835  18.734  0.00  0.00    +0.000 A 
ATOM     16  C   UNL     1      -0.240  12.179  18.906  0.00  0.00    +0.000 A 
ATOM     17  C   UNL     1       0.720  13.163  18.677  0.00  0.00    +0.000 A 
ATOM     18  C   UNL     1       2.005  12.799  18.278  0.00  0.00    +0.000 A 
ATOM     19  C   UNL     1       2.330  11.451  18.111  0.00  0.00    +0.000 A 
ATOM     20  C   UNL     1       1.374  10.449  18.346  0.00  0.00    +0.000 A 
ENDBRANCH  13  20
ENDBRANCH  11  13
ENDBRANCH   1  11
BRANCH   7  21
ATOM     21  C   UNL     1       4.690   4.431  16.335  0.00  0.00    +0.000 C 
ATOM     22  C   UNL     1       5.804   3.854  15.849  0.00  0.00    +0.000 C 
BRANCH  22  23
ATOM     23  C   UNL     1       6.407   4.184  14.552  0.00  0.00    +0.000 A 
ATOM     24  C   UNL     1       5.995   3.516  13.401  0.00  0.00    +0.000 A 
ATOM     25  C   UNL     1       6.572   3.862  12.181  0.00  0.00    +0.000 A 
ATOM     26  C   UNL     1       7.539   4.857  12.141  0.00  0.00    +0.000 A 
ATOM     27  C   UNL     1       7.895   5.467  13.333  0.00  0.00    +0.000 A 
ATOM     28  N   UNL     1       7.353   5.153  14.531  0.00  0.00    +0.000 NA
ENDBRANCH  22  23
ENDBRANCH   7  21
TORSDOF 5
ENDMDL
MODEL 8
REMARK VINA RESULT:      -7.9      0.668      1.084
REMARK  Name = 
REMARK  5 active torsions:
REMARK  status: ('A' for Active; 'I' for Inactive)
REMARK    1  A    between atoms: C_7  and  C_8
REMARK    2  A    between atoms: C_8  and  N_9
REMARK    3  A    between atoms: N_9  and  C_10
REMARK    4  A    between atoms: C_16  and  C_17
REMARK    5  A    between atoms: C_18  and  C_19
REMARK                            x       y       z     vdW  Elec       q    Type
REMARK                         _______ _______ _______ _____ _____    ______ ____
ROOT
ATOM      1  C   UNL     1       3.922   3.741  17.260  0.00  0.00    +0.000 A 
ATOM      2  C   UNL     1       4.144   2.480  17.829  0.00  0.00    +0.000 A 
ATOM      3  C   UNL     1       3.675   2.142  19.104  0.00  0.00    +0.000 A 
ATOM      4  C   UNL     1       2.995   3.135  19.810  0.00  0.00    +0.000 A 
ATOM      5  N   UNL     1       2.423   3.138  21.051  0.00  0.00    +0.000 N 
ATOM      6  N   UNL     1       1.854   4.305  21.400  0.00  0.00    +0.000 NA
ATOM      7  C   UNL     1       2.061   5.099  20.336  0.00  0.00    +0.000 A 
ATOM      8  C   UNL     1       2.777   4.412  19.307  0.00  0.00    +0.000 A 
ATOM      9  C   UNL     1       3.265   4.722  18.019  0.00  0.00    +0.000 A 
ATOM     10  H   UNL     1       2.389   2.373  21.714  0.00  0.00    +0.000 HD
ENDROOT
BRANCH   1  11
ATOM     11  N   UNL     1       4.451   3.972  15.982  0.00  0.00    +0.000 N 
ATOM     12  H   UNL     1       4.007   3.347  15.311  0.00  0.00    +0.000 HD
BRANCH  11  13
ATOM     13  C   UNL     1       5.906   3.947  15.824  0.00  0.00    +0.000 C 
BRANCH  13  20
ATOM     14  F   UNL     1       5.497   6.750  15.564  0.00  0.00    +0.000 F 
ATOM     15  C   UNL     1       6.305   6.332  16.550  0.00  0.00    +0.000 A 
ATOM     16  C   UNL     1       6.913   7.285  17.366  0.00  0.00    +0.000 A 
ATOM     17  C   UNL     1       7.771   6.877  18.386  0.00  0.00    +0.000 A 
ATOM     18  C   UNL     1       8.017   5.519  18.583  0.00  0.00    +0.000 A 
ATOM     19  C   UNL     1       7.403   4.570  17.763  0.00  0.00    +0.000 A 
ATOM     20  C   UNL     1       6.529   4.968  16.737  0.00  0.00    +0.000 A 
ENDBRANCH  13  20
ENDBRANCH  11  13
ENDBRANCH   1  11
BRANCH   7  21
ATOM     21  C   UNL     1       1.611   6.458  20.255  0.00  0.00    +0.000 C 
ATOM     22  C   UNL     1       1.299   7.228  21.314  0.00  0.00    +0.000 C 
BRANCH  22  23
ATOM     23  C   UNL     1       0.850   8.622  21.217  0.00  0.00    +0.000 A 
ATOM     24  C   UNL     1       0.229   9.231  22.305  0.00  0.00    +0.000 A 
ATOM     25  C   UNL     1      -0.171  10.561  22.192  0.00  0.00    +0.000 A 
ATOM     26  C   UNL     1       0.056  11.243  21.005  0.00  0.00    +0.000 A 
ATOM     27  C   UNL     1       0.675  10.560  19.970  0.00  0.00    +0.000 A 
ATOM     28  N   UNL     1       1.075   9.271  20.051  0.00  0.00    +0.000 NA
ENDBRANCH  22  23
ENDBRANCH   7  21
TORSDOF 5
ENDMDL
MODEL 9
REMARK VINA RESULT:      -7.9      2.312      4.777
REMARK  Name = 
REMARK  5 active torsions:
REMARK  status: ('A' for Active; 'I' for Inactive)
REMARK    1  A    between atoms: C_7  and  C_8
REMARK    2  A    between atoms: C_8  and  N_9
REMARK    3  A    between atoms: N_9  and  C_10
REMARK    4  A    between atoms: C_16  and  C_17
REMARK    5  A    between atoms: C_18  and  C_19
REMARK                            x       y       z     vdW  Elec       q    Type
REMARK                         _______ _______ _______ _____ _____    ______ ____
ROOT
ATOM      1  C   UNL     1       5.289   4.098  18.748  0.00  0.00    +0.000 A 
ATOM      2  C   UNL     1       6.101   3.890  17.626  0.00  0.00    +0.000 A 
ATOM      3  C   UNL     1       6.107   4.765  16.533  0.00  0.00    +0.000 A 
ATOM      4  C   UNL     1       5.237   5.854  16.594  0.00  0.00    +0.000 A 
ATOM      5  N   UNL     1       4.996   6.874  15.717  0.00  0.00    +0.000 N 
ATOM      6  N   UNL     1       4.062   7.751  16.125  0.00  0.00    +0.000 NA
ATOM      7  C   UNL     1       3.679   7.283  17.324  0.00  0.00    +0.000 A 
ATOM      8  C   UNL     1       4.386   6.089  17.667  0.00  0.00    +0.000 A 
ATOM      9  C   UNL     1       4.402   5.186  18.752  0.00  0.00    +0.000 A 
ATOM     10  H   UNL     1       5.435   7.028  14.817  0.00  0.00    +0.000 HD
ENDROOT
BRANCH   1  11
ATOM     11  N   UNL     1       5.356   3.147  19.776  0.00  0.00    +0.000 N 
ATOM     12  H   UNL     1       6.329   2.901  19.951  0.00  0.00    +0.000 HD
BRANCH  11  13
ATOM     13  C   UNL     1       4.535   1.941  19.653  0.00  0.00    +0.000 C 
BRANCH  13  20
ATOM     14  F   UNL     1       2.680   1.775  17.502  0.00  0.00    +0.000 F 
ATOM     15  C   UNL     1       2.221   2.221  18.680  0.00  0.00    +0.000 A 
ATOM     16  C   UNL     1       0.883   2.599  18.778  0.00  0.00    +0.000 A 
ATOM     17  C   UNL     1       0.386   3.083  19.987  0.00  0.00    +0.000 A 
ATOM     18  C   UNL     1       1.230   3.187  21.091  0.00  0.00    +0.000 A 
ATOM     19  C   UNL     1       2.569   2.805  20.987  0.00  0.00    +0.000 A 
ATOM     20  C   UNL     1       3.080   2.308  19.776  0.00  0.00    +0.000 A 
ENDBRANCH  13  20
ENDBRANCH  11  13
ENDBRANCH   1  11
BRANCH   7  21
ATOM     21  C   UNL     1       2.689   7.915  18.148  0.00  0.00    +0.000 C 
ATOM     22  C   UNL     1       1.956   8.984  17.784  0.00  0.00    +0.000 C 
BRANCH  22  23
ATOM     23  C   UNL     1       0.937   9.614  18.633  0.00  0.00    +0.000 A 
ATOM     24  C   UNL     1      -0.185  10.201  18.054  0.00  0.00    +0.000 A 
ATOM     25  C   UNL     1      -1.145  10.778  18.884  0.00  0.00    +0.000 A 
ATOM     26  C   UNL     1      -0.960  10.753  20.260  0.00  0.00    +0.000 A 
ATOM     27  C   UNL     1       0.188  10.153  20.752  0.00  0.00    +0.000 A 
ATOM     28  N   UNL     1       1.135   9.586  19.972  0.00  0.00    +0.000 NA
ENDBRANCH  22  23
ENDBRANCH   7  21
TORSDOF 5
ENDMDL
