MODEL 1
REMARK VINA RESULT:      -7.1      0.000      0.000
REMARK  Name = 
REMARK  3 active torsions:
REMARK  status: ('A' for Active; 'I' for Inactive)
REMARK    1  A    between atoms: O_1  and  C_2
REMARK    2  A    between atoms: C_2  and  C_3
REMARK    3  A    between atoms: C_3  and  N_4
REMARK                            x       y       z     vdW  Elec       q    Type
REMARK                         _______ _______ _______ _____ _____    ______ ____
ROOT
ATOM      1  N   UNL     1       3.133   6.696  18.006  0.00  0.00    +0.000 N 
ATOM      2  C   UNL     1       2.257   6.186  18.895  0.00  0.00    +0.000 A 
ATOM      3  C   UNL     1       2.147   4.828  19.147  0.00  0.00    +0.000 A 
ATOM      4  C   UNL     1       1.224   4.361  20.102  0.00  0.00    +0.000 A 
ATOM      5  C   UNL     1       1.111   3.000  20.380  0.00  0.00    +0.000 A 
ATOM      6  C   UNL     1       1.914   2.098  19.702  0.00  0.00    +0.000 A 
ATOM      7  C   UNL     1       2.825   2.560  18.747  0.00  0.00    +0.000 A 
ATOM      8  C   UNL     1       2.974   3.936  18.439  0.00  0.00    +0.000 A 
ATOM      9  C   UNL     1       3.888   4.469  17.477  0.00  0.00    +0.000 A 
ATOM     10  C   UNL     1       4.761   3.651  16.716  0.00  0.00    +0.000 A 
ATOM     11  C   UNL     1       5.652   4.176  15.780  0.00  0.00    +0.000 A 
ATOM     12  C   UNL     1       5.694   5.542  15.571  0.00  0.00    +0.000 A 
ATOM     13  C   UNL     1       4.851   6.377  16.302  0.00  0.00    +0.000 A 
ATOM     14  C   UNL     1       3.947   5.880  17.263  0.00  0.00    +0.000 A 
ENDROOT
BRANCH   1  15
ATOM     15  C   UNL     1       3.202   8.190  17.922  0.00  0.00    +0.000 C 
BRANCH  15  16
ATOM     16  C   UNL     1       1.797   8.778  17.811  0.00  0.00    +0.000 C 
BRANCH  16  17
ATOM     17  O   UNL     1       1.817  10.145  17.418  0.00  0.00    +0.000 OA
ATOM     18  H   UNL     1       1.004  10.551  17.797  0.00  0.00    +0.000 HD
ENDBRANCH  16  17
ENDBRANCH  15  16
ENDBRANCH   1  15
TORSDOF 3
ENDMDL
MODEL 2
REMARK VINA RESULT:      -7.0      0.760      4.046
REMARK  Name = 
REMARK  3 active torsions:
REMARK  status: ('A' for Active; 'I' for Inactive)
REMARK    1  A    between atoms: O_1  and  C_2
REMARK    2  A    between atoms: C_2  and  C_3
REMARK    3  A    between atoms: C_3  and  N_4
REMARK                            x       y       z     vdW  Elec       q    Type
REMARK                         _______ _______ _______ _____ _____    ______ ____
ROOT
ATOM      1  N   UNL     1       2.825   7.025  18.557  0.00  0.00    +0.000 N 
ATOM      2  C   UNL     1       3.696   7.172  17.537  0.00  0.00    +0.000 A 
ATOM      3  C   UNL     1       4.354   6.104  16.951  0.00  0.00    +0.000 A 
ATOM      4  C   UNL     1       5.237   6.323  15.876  0.00  0.00    +0.000 A 
ATOM      5  C   UNL     1       5.895   5.258  15.265  0.00  0.00    +0.000 A 
ATOM      6  C   UNL     1       5.681   3.970  15.725  0.00  0.00    +0.000 A 
ATOM      7  C   UNL     1       4.810   3.751  16.799  0.00  0.00    +0.000 A 
ATOM      8  C   UNL     1       4.118   4.807  17.444  0.00  0.00    +0.000 A 
ATOM      9  C   UNL     1       3.215   4.648  18.542  0.00  0.00    +0.000 A 
ATOM     10  C   UNL     1       2.914   3.382  19.107  0.00  0.00    +0.000 A 
ATOM     11  C   UNL     1       2.031   3.232  20.177  0.00  0.00    +0.000 A 
ATOM     12  C   UNL     1       1.423   4.348  20.720  0.00  0.00    +0.000 A 
ATOM     13  C   UNL     1       1.695   5.607  20.189  0.00  0.00    +0.000 A 
ATOM     14  C   UNL     1       2.573   5.794  19.102  0.00  0.00    +0.000 A 
ENDROOT
BRANCH   1  15
ATOM     15  C   UNL     1       2.119   8.265  19.013  0.00  0.00    +0.000 C 
BRANCH  15  16
ATOM     16  C   UNL     1       1.441   8.953  17.830  0.00  0.00    +0.000 C 
BRANCH  16  17
ATOM     17  O   UNL     1       2.016  10.223  17.545  0.00  0.00    +0.000 OA
ATOM     18  H   UNL     1       1.753  10.442  16.622  0.00  0.00    +0.000 HD
ENDBRANCH  16  17
ENDBRANCH  15  16
ENDBRANCH   1  15
TORSDOF 3
ENDMDL
MODEL 3
REMARK VINA RESULT:      -7.0      2.631      4.056
REMARK  Name = 
REMARK  3 active torsions:
REMARK  status: ('A' for Active; 'I' for Inactive)
REMARK    1  A    between atoms: O_1  and  C_2
REMARK    2  A    between atoms: C_2  and  C_3
REMARK    3  A    between atoms: C_3  and  N_4
REMARK                            x       y       z     vdW  Elec       q    Type
REMARK                         _______ _______ _______ _____ _____    ______ ____
ROOT
ATOM      1  N   UNL     1       4.951   4.818  18.011  0.00  0.00    +0.000 N 
ATOM      2  C   UNL     1       4.821   3.736  18.805  0.00  0.00    +0.000 A 
ATOM      3  C   UNL     1       3.817   3.615  19.752  0.00  0.00    +0.000 A 
ATOM      4  C   UNL     1       3.725   2.451  20.539  0.00  0.00    +0.000 A 
ATOM      5  C   UNL     1       2.712   2.307  21.484  0.00  0.00    +0.000 A 
ATOM      6  C   UNL     1       1.790   3.324  21.655  0.00  0.00    +0.000 A 
ATOM      7  C   UNL     1       1.884   4.486  20.881  0.00  0.00    +0.000 A 
ATOM      8  C   UNL     1       2.897   4.669  19.905  0.00  0.00    +0.000 A 
ATOM      9  C   UNL     1       3.044   5.829  19.082  0.00  0.00    +0.000 A 
ATOM     10  C   UNL     1       2.167   6.941  19.162  0.00  0.00    +0.000 A 
ATOM     11  C   UNL     1       2.314   8.070  18.356  0.00  0.00    +0.000 A 
ATOM     12  C   UNL     1       3.351   8.125  17.443  0.00  0.00    +0.000 A 
ATOM     13  C   UNL     1       4.231   7.050  17.336  0.00  0.00    +0.000 A 
ATOM     14  C   UNL     1       4.105   5.890  18.128  0.00  0.00    +0.000 A 
ENDROOT
BRANCH   1  15
ATOM     15  C   UNL     1       6.024   4.752  16.969  0.00  0.00    +0.000 C 
BRANCH  15  16
ATOM     16  C   UNL     1       7.373   5.133  17.575  0.00  0.00    +0.000 C 
BRANCH  16  17
ATOM     17  O   UNL     1       8.253   4.020  17.670  0.00  0.00    +0.000 OA
ATOM     18  H   UNL     1       9.149   4.358  17.438  0.00  0.00    +0.000 HD
ENDBRANCH  16  17
ENDBRANCH  15  16
ENDBRANCH   1  15
TORSDOF 3
ENDMDL
MODEL 4
REMARK VINA RESULT:      -7.0      2.952      3.557
REMARK  Name = 
REMARK  3 active torsions:
REMARK  status: ('A' for Active; 'I' for Inactive)
REMARK    1  A    between atoms: O_1  and  C_2
REMARK    2  A    between atoms: C_2  and  C_3
REMARK    3  A    between atoms: C_3  and  N_4
REMARK                            x       y       z     vdW  Elec       q    Type
REMARK                         _______ _______ _______ _____ _____    ______ ____
ROOT
ATOM      1  N   UNL     1       6.172   5.597  18.352  0.00  0.00    +0.000 N 
ATOM      2  C   UNL     1       5.149   5.453  19.218  0.00  0.00    +0.000 A 
ATOM      3  C   UNL     1       3.968   4.809  18.887  0.00  0.00    +0.000 A 
ATOM      4  C   UNL     1       2.944   4.675  19.844  0.00  0.00    +0.000 A 
ATOM      5  C   UNL     1       1.757   4.016  19.531  0.00  0.00    +0.000 A 
ATOM      6  C   UNL     1       1.583   3.491  18.262  0.00  0.00    +0.000 A 
ATOM      7  C   UNL     1       2.595   3.631  17.307  0.00  0.00    +0.000 A 
ATOM      8  C   UNL     1       3.820   4.290  17.587  0.00  0.00    +0.000 A 
ATOM      9  C   UNL     1       4.892   4.462  16.656  0.00  0.00    +0.000 A 
ATOM     10  C   UNL     1       4.835   3.974  15.325  0.00  0.00    +0.000 A 
ATOM     11  C   UNL     1       5.885   4.142  14.422  0.00  0.00    +0.000 A 
ATOM     12  C   UNL     1       7.027   4.811  14.821  0.00  0.00    +0.000 A 
ATOM     13  C   UNL     1       7.118   5.303  16.122  0.00  0.00    +0.000 A 
ATOM     14  C   UNL     1       6.080   5.141  17.064  0.00  0.00    +0.000 A 
ENDROOT
BRANCH   1  15
ATOM     15  C   UNL     1       7.418   6.227  18.894  0.00  0.00    +0.000 C 
BRANCH  15  16
ATOM     16  C   UNL     1       8.271   5.183  19.611  0.00  0.00    +0.000 C 
BRANCH  16  17
ATOM     17  O   UNL     1       8.225   5.331  21.025  0.00  0.00    +0.000 OA
ATOM     18  H   UNL     1       7.309   5.617  21.241  0.00  0.00    +0.000 HD
ENDBRANCH  16  17
ENDBRANCH  15  16
ENDBRANCH   1  15
TORSDOF 3
ENDMDL
MODEL 5
REMARK VINA RESULT:      -6.9      1.044      4.141
REMARK  Name = 
REMARK  3 active torsions:
REMARK  status: ('A' for Active; 'I' for Inactive)
REMARK    1  A    between atoms: O_1  and  C_2
REMARK    2  A    between atoms: C_2  and  C_3
REMARK    3  A    between atoms: C_3  and  N_4
REMARK                            x       y       z     vdW  Elec       q    Type
REMARK                         _______ _______ _______ _____ _____    ______ ____
ROOT
ATOM      1  N   UNL     1       2.528   6.520  19.297  0.00  0.00    +0.000 N 
ATOM      2  C   UNL     1       3.382   6.928  18.336  0.00  0.00    +0.000 A 
ATOM      3  C   UNL     1       4.006   6.051  17.464  0.00  0.00    +0.000 A 
ATOM      4  C   UNL     1       4.873   6.543  16.469  0.00  0.00    +0.000 A 
ATOM      5  C   UNL     1       5.496   5.677  15.574  0.00  0.00    +0.000 A 
ATOM      6  C   UNL     1       5.263   4.315  15.668  0.00  0.00    +0.000 A 
ATOM      7  C   UNL     1       4.409   3.824  16.661  0.00  0.00    +0.000 A 
ATOM      8  C   UNL     1       3.752   4.673  17.588  0.00  0.00    +0.000 A 
ATOM      9  C   UNL     1       2.866   4.232  18.622  0.00  0.00    +0.000 A 
ATOM     10  C   UNL     1       2.549   2.865  18.825  0.00  0.00    +0.000 A 
ATOM     11  C   UNL     1       1.683   2.440  19.834  0.00  0.00    +0.000 A 
ATOM     12  C   UNL     1       1.110   3.373  20.677  0.00  0.00    +0.000 A 
ATOM     13  C   UNL     1       1.399   4.725  20.506  0.00  0.00    +0.000 A 
ATOM     14  C   UNL     1       2.260   5.190  19.490  0.00  0.00    +0.000 A 
ENDROOT
BRANCH   1  15
ATOM     15  C   UNL     1       1.858   7.598  20.093  0.00  0.00    +0.000 C 
BRANCH  15  16
ATOM     16  C   UNL     1       1.640   8.836  19.227  0.00  0.00    +0.000 C 
BRANCH  16  17
ATOM     17  O   UNL     1       0.829   9.809  19.875  0.00  0.00    +0.000 OA
ATOM     18  H   UNL     1       1.198  10.686  19.621  0.00  0.00    +0.000 HD
ENDBRANCH  16  17
ENDBRANCH  15  16
ENDBRANCH   1  15
TORSDOF 3
ENDMDL
MODEL 6
REMARK VINA RESULT:      -6.8      2.337      5.068
REMARK  Name = 
REMARK  3 active torsions:
REMARK  status: ('A' for Active; 'I' for Inactive)
REMARK    1  A    between atoms: O_1  and  C_2
REMARK    2  A    between atoms: C_2  and  C_3
REMARK    3  A    between atoms: C_3  and  N_4
REMARK                            x       y       z     vdW  Elec       q    Type
REMARK                         _______ _______ _______ _____ _____    ______ ____
ROOT
ATOM      1  N   UNL     1       3.928   4.817  17.950  0.00  0.00    +0.000 N 
ATOM      2  C   UNL     1       3.671   6.075  17.538  0.00  0.00    +0.000 A 
ATOM      3  C   UNL     1       2.907   6.966  18.273  0.00  0.00    +0.000 A 
ATOM      4  C   UNL     1       2.691   8.273  17.795  0.00  0.00    +0.000 A 
ATOM      5  C   UNL     1       1.939   9.187  18.530  0.00  0.00    +0.000 A 
ATOM      6  C   UNL     1       1.393   8.801  19.743  0.00  0.00    +0.000 A 
ATOM      7  C   UNL     1       1.598   7.500  20.215  0.00  0.00    +0.000 A 
ATOM      8  C   UNL     1       2.362   6.542  19.500  0.00  0.00    +0.000 A 
ATOM      9  C   UNL     1       2.610   5.201  19.930  0.00  0.00    +0.000 A 
ATOM     10  C   UNL     1       2.104   4.684  21.150  0.00  0.00    +0.000 A 
ATOM     11  C   UNL     1       2.351   3.375  21.567  0.00  0.00    +0.000 A 
ATOM     12  C   UNL     1       3.109   2.538  20.770  0.00  0.00    +0.000 A 
ATOM     13  C   UNL     1       3.624   3.014  19.566  0.00  0.00    +0.000 A 
ATOM     14  C   UNL     1       3.403   4.334  19.120  0.00  0.00    +0.000 A 
ENDROOT
BRANCH   1  15
ATOM     15  C   UNL     1       4.853   4.012  17.091  0.00  0.00    +0.000 C 
BRANCH  15  16
ATOM     16  C   UNL     1       6.254   4.619  17.109  0.00  0.00    +0.000 C 
BRANCH  16  17
ATOM     17  O   UNL     1       7.040   4.125  18.187  0.00  0.00    +0.000 OA
ATOM     18  H   UNL     1       7.898   3.844  17.795  0.00  0.00    +0.000 HD
ENDBRANCH  16  17
ENDBRANCH  15  16
ENDBRANCH   1  15
TORSDOF 3
ENDMDL
MODEL 7
REMARK VINA RESULT:      -6.8      2.248      5.170
REMARK  Name = 
REMARK  3 active torsions:
REMARK  status: ('A' for Active; 'I' for Inactive)
REMARK    1  A    between atoms: O_1  and  C_2
REMARK    2  A    between atoms: C_2  and  C_3
REMARK    3  A    between atoms: C_3  and  N_4
REMARK                            x       y       z     vdW  Elec       q    Type
REMARK                         _______ _______ _______ _____ _____    ______ ____
ROOT
ATOM      1  N   UNL     1       3.499   4.126  19.059  0.00  0.00    +0.000 N 
ATOM      2  C   UNL     1       4.287   3.504  18.159  0.00  0.00    +0.000 A 
ATOM      3  C   UNL     1       4.831   4.152  17.061  0.00  0.00    +0.000 A 
ATOM      4  C   UNL     1       5.662   3.449  16.167  0.00  0.00    +0.000 A 
ATOM      5  C   UNL     1       6.229   4.090  15.068  0.00  0.00    +0.000 A 
ATOM      6  C   UNL     1       5.966   5.431  14.849  0.00  0.00    +0.000 A 
ATOM      7  C   UNL     1       5.133   6.129  15.731  0.00  0.00    +0.000 A 
ATOM      8  C   UNL     1       4.541   5.515  16.865  0.00  0.00    +0.000 A 
ATOM      9  C   UNL     1       3.685   6.174  17.803  0.00  0.00    +0.000 A 
ATOM     10  C   UNL     1       3.337   7.544  17.689  0.00  0.00    +0.000 A 
ATOM     11  C   UNL     1       2.503   8.182  18.608  0.00  0.00    +0.000 A 
ATOM     12  C   UNL     1       1.986   7.466  19.670  0.00  0.00    +0.000 A 
ATOM     13  C   UNL     1       2.308   6.118  19.814  0.00  0.00    +0.000 A 
ATOM     14  C   UNL     1       3.156   5.444  18.910  0.00  0.00    +0.000 A 
ENDROOT
BRANCH   1  15
ATOM     15  C   UNL     1       3.075   3.315  20.244  0.00  0.00    +0.000 C 
BRANCH  15  16
ATOM     16  C   UNL     1       1.827   2.500  19.908  0.00  0.00    +0.000 C 
BRANCH  16  17
ATOM     17  O   UNL     1       0.647   3.072  20.458  0.00  0.00    +0.000 OA
ATOM     18  H   UNL     1       0.856   3.279  21.398  0.00  0.00    +0.000 HD
ENDBRANCH  16  17
ENDBRANCH  15  16
ENDBRANCH   1  15
TORSDOF 3
ENDMDL
MODEL 8
REMARK VINA RESULT:      -6.8      1.233      1.352
REMARK  Name = 
REMARK  3 active torsions:
REMARK  status: ('A' for Active; 'I' for Inactive)
REMARK    1  A    between atoms: O_1  and  C_2
REMARK    2  A    between atoms: C_2  and  C_3
REMARK    3  A    between atoms: C_3  and  N_4
REMARK                            x       y       z     vdW  Elec       q    Type
REMARK                         _______ _______ _______ _____ _____    ______ ____
ROOT
ATOM      1  N   UNL     1       3.533   6.737  17.698  0.00  0.00    +0.000 N 
ATOM      2  C   UNL     1       2.444   5.986  17.958  0.00  0.00    +0.000 A 
ATOM      3  C   UNL     1       2.494   4.608  18.090  0.00  0.00    +0.000 A 
ATOM      4  C   UNL     1       1.323   3.884  18.381  0.00  0.00    +0.000 A 
ATOM      5  C   UNL     1       1.359   2.499  18.533  0.00  0.00    +0.000 A 
ATOM      6  C   UNL     1       2.562   1.829  18.390  0.00  0.00    +0.000 A 
ATOM      7  C   UNL     1       3.726   2.546  18.092  0.00  0.00    +0.000 A 
ATOM      8  C   UNL     1       3.732   3.956  17.935  0.00  0.00    +0.000 A 
ATOM      9  C   UNL     1       4.887   4.744  17.634  0.00  0.00    +0.000 A 
ATOM     10  C   UNL     1       6.175   4.178  17.460  0.00  0.00    +0.000 A 
ATOM     11  C   UNL     1       7.299   4.951  17.168  0.00  0.00    +0.000 A 
ATOM     12  C   UNL     1       7.167   6.321  17.035  0.00  0.00    +0.000 A 
ATOM     13  C   UNL     1       5.916   6.911  17.201  0.00  0.00    +0.000 A 
ATOM     14  C   UNL     1       4.762   6.161  17.507  0.00  0.00    +0.000 A 
ENDROOT
BRANCH   1  15
ATOM     15  C   UNL     1       3.332   8.221  17.686  0.00  0.00    +0.000 C 
BRANCH  15  16
ATOM     16  C   UNL     1       1.849   8.554  17.839  0.00  0.00    +0.000 C 
BRANCH  16  17
ATOM     17  O   UNL     1       1.557   9.891  17.453  0.00  0.00    +0.000 OA
ATOM     18  H   UNL     1       1.792  10.457  18.224  0.00  0.00    +0.000 HD
ENDBRANCH  16  17
ENDBRANCH  15  16
ENDBRANCH   1  15
TORSDOF 3
ENDMDL
MODEL 9
REMARK VINA RESULT:      -6.8      2.747      5.633
REMARK  Name = 
REMARK  3 active torsions:
REMARK  status: ('A' for Active; 'I' for Inactive)
REMARK    1  A    between atoms: O_1  and  C_2
REMARK    2  A    between atoms: C_2  and  C_3
REMARK    3  A    between atoms: C_3  and  N_4
REMARK                            x       y       z     vdW  Elec       q    Type
REMARK                         _______ _______ _______ _____ _____    ______ ____
ROOT
ATOM      1  N   UNL     1       3.335   3.523  18.839  0.00  0.00    +0.000 N 
ATOM      2  C   UNL     1       4.102   3.343  17.745  0.00  0.00    +0.000 A 
ATOM      3  C   UNL     1       4.520   4.389  16.939  0.00  0.00    +0.000 A 
ATOM      4  C   UNL     1       5.336   4.134  15.820  0.00  0.00    +0.000 A 
ATOM      5  C   UNL     1       5.779   5.177  15.008  0.00  0.00    +0.000 A 
ATOM      6  C   UNL     1       5.406   6.477  15.304  0.00  0.00    +0.000 A 
ATOM      7  C   UNL     1       4.589   6.731  16.411  0.00  0.00    +0.000 A 
ATOM      8  C   UNL     1       4.121   5.698  17.264  0.00  0.00    +0.000 A 
ATOM      9  C   UNL     1       3.288   5.894  18.410  0.00  0.00    +0.000 A 
ATOM     10  C   UNL     1       2.835   7.175  18.817  0.00  0.00    +0.000 A 
ATOM     11  C   UNL     1       2.024   7.360  19.937  0.00  0.00    +0.000 A 
ATOM     12  C   UNL     1       1.633   6.265  20.684  0.00  0.00    +0.000 A 
ATOM     13  C   UNL     1       2.060   4.991  20.314  0.00  0.00    +0.000 A 
ATOM     14  C   UNL     1       2.889   4.769  19.195  0.00  0.00    +0.000 A 
ENDROOT
BRANCH   1  15
ATOM     15  C   UNL     1       3.052   2.304  19.662  0.00  0.00    +0.000 C 
BRANCH  15  16
ATOM     16  C   UNL     1       4.159   2.093  20.693  0.00  0.00    +0.000 C 
BRANCH  16  17
ATOM     17  O   UNL     1       5.263   1.374  20.156  0.00  0.00    +0.000 OA
ATOM     18  H   UNL     1       6.056   1.939  20.304  0.00  0.00    +0.000 HD
ENDBRANCH  16  17
ENDBRANCH  15  16
ENDBRANCH   1  15
TORSDOF 3
ENDMDL
