MODEL 1
REMARK VINA RESULT:      -6.5      0.000      0.000
REMARK  Name = 
REMARK  8 active torsions:
REMARK  status: ('A' for Active; 'I' for Inactive)
REMARK    1  A    between atoms: C_2  and  O_3
REMARK    2  A    between atoms: C_2  and  O_10
REMARK    3  A    between atoms: O_3  and  C_4
REMARK    4  A    between atoms: C_4  and  O_5
REMARK    5  A    between atoms: O_5  and  P_6
REMARK    6  A    between atoms: P_6  and  O_8
REMARK    7  A    between atoms: P_6  and  O_9
REMARK    8  A    between atoms: O_10  and  C_11
REMARK                            x       y       z     vdW  Elec       q    Type
REMARK                         _______ _______ _______ _____ _____    ______ ____
ROOT
ATOM      1  O   UNL     1       6.825   7.613  16.805  0.00  0.00    +0.000 OA
ATOM      2  C   UNL     1       6.210   6.747  17.409  0.00  0.00    +0.000 C 
ENDROOT
BRANCH   2   3
ATOM      3  O   UNL     1       6.808   5.697  18.036  0.00  0.00    +0.000 OA
BRANCH   3   4
ATOM      4  C   UNL     1       7.400   4.691  17.173  0.00  0.00    +0.000 C 
BRANCH   4   5
ATOM      5  O   UNL     1       6.532   3.938  16.300  0.00  0.00    +0.000 OA
BRANCH   5   6
ATOM      6  P   UNL     1       6.720   4.248  14.608  0.00  0.00    +0.000 P 
ATOM      7  O   UNL     1       5.345   4.899  14.466  0.00  0.00    +0.000 OA
BRANCH   6   8
ATOM      8  O   UNL     1       7.791   5.436  14.904  0.00  0.00    +0.000 OA
ATOM      9  H   UNL     1       8.543   5.132  15.444  0.00  0.00    +0.000 HD
ENDBRANCH   6   8
BRANCH   6  10
ATOM     10  O   UNL     1       6.907   4.557  12.916  0.00  0.00    +0.000 OA
ATOM     11  H   UNL     1       6.325   3.877  12.516  0.00  0.00    +0.000 HD
ENDBRANCH   6  10
ENDBRANCH   5   6
ENDBRANCH   4   5
ENDBRANCH   3   4
ENDBRANCH   2   3
BRANCH   2  12
ATOM     12  O   UNL     1       4.852   6.700  17.590  0.00  0.00    +0.000 OA
BRANCH  12  13
ATOM     13  C   UNL     1       4.288   5.577  18.326  0.00  0.00    +0.000 C 
ATOM     14  C   UNL     1       3.323   5.972  19.466  0.00  0.00    +0.000 C 
ATOM     15  C   UNL     1       2.386   4.808  19.535  0.00  0.00    +0.000 A 
ATOM     16  C   UNL     1       1.520   4.482  20.572  0.00  0.00    +0.000 A 
ATOM     17  C   UNL     1       0.687   3.381  20.432  0.00  0.00    +0.000 A 
ATOM     18  C   UNL     1       0.721   2.626  19.250  0.00  0.00    +0.000 A 
ATOM     19  C   UNL     1       1.588   2.963  18.205  0.00  0.00    +0.000 A 
ATOM     20  C   UNL     1       2.431   4.054  18.362  0.00  0.00    +0.000 A 
ATOM     21  C   UNL     1       3.440   4.635  17.407  0.00  0.00    +0.000 C 
ENDBRANCH  12  13
ENDBRANCH   2  12
TORSDOF 8
ENDMDL
MODEL 2
REMARK VINA RESULT:      -6.5      1.393      2.235
REMARK  Name = 
REMARK  8 active torsions:
REMARK  status: ('A' for Active; 'I' for Inactive)
REMARK    1  A    between atoms: C_2  and  O_3
REMARK    2  A    between atoms: C_2  and  O_10
REMARK    3  A    between atoms: O_3  and  C_4
REMARK    4  A    between atoms: C_4  and  O_5
REMARK    5  A    between atoms: O_5  and  P_6
REMARK    6  A    between atoms: P_6  and  O_8
REMARK    7  A    between atoms: P_6  and  O_9
REMARK    8  A    between atoms: O_10  and  C_11
REMARK                            x       y       z     vdW  Elec       q    Type
REMARK                         _______ _______ _______ _____ _____    ______ ____
ROOT
ATOM      1  O   UNL     1       7.587   5.555  19.684  0.00  0.00    +0.000 OA
ATOM      2  C   UNL     1       7.275   5.041  18.620  0.00  0.00    +0.000 C 
ENDROOT
BRANCH   2   3
ATOM      3  O   UNL     1       7.857   5.359  17.431  0.00  0.00    +0.000 OA
BRANCH   3   4
ATOM      4  C   UNL     1       7.155   6.336  16.618  0.00  0.00    +0.000 C 
BRANCH   4   5
ATOM      5  O   UNL     1       5.985   5.910  15.889  0.00  0.00    +0.000 OA
BRANCH   5   6
ATOM      6  P   UNL     1       6.266   4.753  14.634  0.00  0.00    +0.000 P 
ATOM      7  O   UNL     1       7.660   5.287  14.308  0.00  0.00    +0.000 OA
BRANCH   6   8
ATOM      8  O   UNL     1       6.447   3.557  15.720  0.00  0.00    +0.000 OA
ATOM      9  H   UNL     1       6.387   2.673  15.314  0.00  0.00    +0.000 HD
ENDBRANCH   6   8
BRANCH   6  10
ATOM     10  O   UNL     1       6.547   3.598  13.377  0.00  0.00    +0.000 OA
ATOM     11  H   UNL     1       5.643   3.266  13.194  0.00  0.00    +0.000 HD
ENDBRANCH   6  10
ENDBRANCH   5   6
ENDBRANCH   4   5
ENDBRANCH   3   4
ENDBRANCH   2   3
BRANCH   2  12
ATOM     12  O   UNL     1       6.340   4.055  18.445  0.00  0.00    +0.000 OA
BRANCH  12  13
ATOM     13  C   UNL     1       4.974   4.307  18.883  0.00  0.00    +0.000 C 
ATOM     14  C   UNL     1       3.884   3.877  17.877  0.00  0.00    +0.000 C 
ATOM     15  C   UNL     1       2.723   3.541  18.758  0.00  0.00    +0.000 A 
ATOM     16  C   UNL     1       1.393   3.399  18.384  0.00  0.00    +0.000 A 
ATOM     17  C   UNL     1       0.459   3.034  19.343  0.00  0.00    +0.000 A 
ATOM     18  C   UNL     1       0.869   2.803  20.665  0.00  0.00    +0.000 A 
ATOM     19  C   UNL     1       2.211   2.939  21.035  0.00  0.00    +0.000 A 
ATOM     20  C   UNL     1       3.135   3.323  20.073  0.00  0.00    +0.000 A 
ATOM     21  C   UNL     1       4.621   3.530  20.196  0.00  0.00    +0.000 C 
ENDBRANCH  12  13
ENDBRANCH   2  12
TORSDOF 8
ENDMDL
MODEL 3
REMARK VINA RESULT:      -6.5      1.334      1.875
REMARK  Name = 
REMARK  8 active torsions:
REMARK  status: ('A' for Active; 'I' for Inactive)
REMARK    1  A    between atoms: C_2  and  O_3
REMARK    2  A    between atoms: C_2  and  O_10
REMARK    3  A    between atoms: O_3  and  C_4
REMARK    4  A    between atoms: C_4  and  O_5
REMARK    5  A    between atoms: O_5  and  P_6
REMARK    6  A    between atoms: P_6  and  O_8
REMARK    7  A    between atoms: P_6  and  O_9
REMARK    8  A    between atoms: O_10  and  C_11
REMARK                            x       y       z     vdW  Elec       q    Type
REMARK                         _______ _______ _______ _____ _____    ______ ____
ROOT
ATOM      1  O   UNL     1       7.826   5.445  20.190  0.00  0.00    +0.000 OA
ATOM      2  C   UNL     1       7.274   5.501  19.102  0.00  0.00    +0.000 C 
ENDROOT
BRANCH   2   3
ATOM      3  O   UNL     1       7.428   6.537  18.232  0.00  0.00    +0.000 OA
BRANCH   3   4
ATOM      4  C   UNL     1       6.828   6.365  16.921  0.00  0.00    +0.000 C 
BRANCH   4   5
ATOM      5  O   UNL     1       7.588   5.681  15.903  0.00  0.00    +0.000 OA
BRANCH   5   6
ATOM      6  P   UNL     1       6.657   4.849  14.706  0.00  0.00    +0.000 P 
ATOM      7  O   UNL     1       6.394   3.638  15.599  0.00  0.00    +0.000 OA
BRANCH   6   8
ATOM      8  O   UNL     1       5.411   5.876  14.902  0.00  0.00    +0.000 OA
ATOM      9  H   UNL     1       5.542   6.715  14.423  0.00  0.00    +0.000 HD
ENDBRANCH   6   8
BRANCH   6  10
ATOM     10  O   UNL     1       5.726   4.016  13.508  0.00  0.00    +0.000 OA
ATOM     11  H   UNL     1       6.286   4.111  12.709  0.00  0.00    +0.000 HD
ENDBRANCH   6  10
ENDBRANCH   5   6
ENDBRANCH   4   5
ENDBRANCH   3   4
ENDBRANCH   2   3
BRANCH   2  12
ATOM     12  O   UNL     1       6.455   4.543  18.563  0.00  0.00    +0.000 OA
BRANCH  12  13
ATOM     13  C   UNL     1       5.300   4.103  19.334  0.00  0.00    +0.000 C 
ATOM     14  C   UNL     1       4.289   5.219  19.675  0.00  0.00    +0.000 C 
ATOM     15  C   UNL     1       2.988   4.485  19.755  0.00  0.00    +0.000 A 
ATOM     16  C   UNL     1       1.804   4.927  20.331  0.00  0.00    +0.000 A 
ATOM     17  C   UNL     1       0.679   4.116  20.264  0.00  0.00    +0.000 A 
ATOM     18  C   UNL     1       0.749   2.877  19.609  0.00  0.00    +0.000 A 
ATOM     19  C   UNL     1       1.942   2.441  19.023  0.00  0.00    +0.000 A 
ATOM     20  C   UNL     1       3.066   3.249  19.112  0.00  0.00    +0.000 A 
ATOM     21  C   UNL     1       4.453   3.031  18.569  0.00  0.00    +0.000 C 
ENDBRANCH  12  13
ENDBRANCH   2  12
TORSDOF 8
ENDMDL
MODEL 4
REMARK VINA RESULT:      -6.5      2.094      3.511
REMARK  Name = 
REMARK  8 active torsions:
REMARK  status: ('A' for Active; 'I' for Inactive)
REMARK    1  A    between atoms: C_2  and  O_3
REMARK    2  A    between atoms: C_2  and  O_10
REMARK    3  A    between atoms: O_3  and  C_4
REMARK    4  A    between atoms: C_4  and  O_5
REMARK    5  A    between atoms: O_5  and  P_6
REMARK    6  A    between atoms: P_6  and  O_8
REMARK    7  A    between atoms: P_6  and  O_9
REMARK    8  A    between atoms: O_10  and  C_11
REMARK                            x       y       z     vdW  Elec       q    Type
REMARK                         _______ _______ _______ _____ _____    ______ ____
ROOT
ATOM      1  O   UNL     1       6.075   3.785  14.511  0.00  0.00    +0.000 OA
ATOM      2  C   UNL     1       5.335   4.228  15.376  0.00  0.00    +0.000 C 
ENDROOT
BRANCH   2   3
ATOM      3  O   UNL     1       5.490   5.455  15.945  0.00  0.00    +0.000 OA
BRANCH   3   4
ATOM      4  C   UNL     1       6.799   5.739  16.504  0.00  0.00    +0.000 C 
BRANCH   4   5
ATOM      5  O   UNL     1       6.886   6.648  17.621  0.00  0.00    +0.000 OA
BRANCH   5   6
ATOM      6  P   UNL     1       7.472   5.965  19.098  0.00  0.00    +0.000 P 
ATOM      7  O   UNL     1       8.054   4.726  18.419  0.00  0.00    +0.000 OA
BRANCH   6   8
ATOM      8  O   UNL     1       8.660   7.073  19.186  0.00  0.00    +0.000 OA
ATOM      9  H   UNL     1       8.422   7.909  18.746  0.00  0.00    +0.000 HD
ENDBRANCH   6   8
BRANCH   6  10
ATOM     10  O   UNL     1       8.058   5.281  20.576  0.00  0.00    +0.000 OA
ATOM     11  H   UNL     1       7.663   5.875  21.249  0.00  0.00    +0.000 HD
ENDBRANCH   6  10
ENDBRANCH   5   6
ENDBRANCH   4   5
ENDBRANCH   3   4
ENDBRANCH   2   3
BRANCH   2  12
ATOM     12  O   UNL     1       4.227   3.603  15.886  0.00  0.00    +0.000 OA
BRANCH  12  13
ATOM     13  C   UNL     1       3.781   3.964  17.226  0.00  0.00    +0.000 C 
ATOM     14  C   UNL     1       2.258   3.845  17.452  0.00  0.00    +0.000 C 
ATOM     15  C   UNL     1       2.156   3.533  18.911  0.00  0.00    +0.000 A 
ATOM     16  C   UNL     1       1.029   3.629  19.718  0.00  0.00    +0.000 A 
ATOM     17  C   UNL     1       1.119   3.246  21.048  0.00  0.00    +0.000 A 
ATOM     18  C   UNL     1       2.333   2.758  21.554  0.00  0.00    +0.000 A 
ATOM     19  C   UNL     1       3.463   2.655  20.736  0.00  0.00    +0.000 A 
ATOM     20  C   UNL     1       3.368   3.058  19.411  0.00  0.00    +0.000 A 
ATOM     21  C   UNL     1       4.411   3.044  18.325  0.00  0.00    +0.000 C 
ENDBRANCH  12  13
ENDBRANCH   2  12
TORSDOF 8
ENDMDL
MODEL 5
REMARK VINA RESULT:      -6.5      1.819      3.077
REMARK  Name = 
REMARK  8 active torsions:
REMARK  status: ('A' for Active; 'I' for Inactive)
REMARK    1  A    between atoms: C_2  and  O_3
REMARK    2  A    between atoms: C_2  and  O_10
REMARK    3  A    between atoms: O_3  and  C_4
REMARK    4  A    between atoms: C_4  and  O_5
REMARK    5  A    between atoms: O_5  and  P_6
REMARK    6  A    between atoms: P_6  and  O_8
REMARK    7  A    between atoms: P_6  and  O_9
REMARK    8  A    between atoms: O_10  and  C_11
REMARK                            x       y       z     vdW  Elec       q    Type
REMARK                         _______ _______ _______ _____ _____    ______ ____
ROOT
ATOM      1  O   UNL     1       5.090   6.840  15.352  0.00  0.00    +0.000 OA
ATOM      2  C   UNL     1       5.427   5.667  15.414  0.00  0.00    +0.000 C 
ENDROOT
BRANCH   2   3
ATOM      3  O   UNL     1       6.717   5.246  15.296  0.00  0.00    +0.000 OA
BRANCH   3   4
ATOM      4  C   UNL     1       7.456   5.097  16.536  0.00  0.00    +0.000 C 
BRANCH   4   5
ATOM      5  O   UNL     1       7.483   6.208  17.457  0.00  0.00    +0.000 OA
BRANCH   5   6
ATOM      6  P   UNL     1       7.797   5.803  19.109  0.00  0.00    +0.000 P 
ATOM      7  O   UNL     1       6.330   5.524  19.431  0.00  0.00    +0.000 OA
BRANCH   6   8
ATOM      8  O   UNL     1       8.476   4.390  18.676  0.00  0.00    +0.000 OA
ATOM      9  H   UNL     1       9.197   4.125  19.276  0.00  0.00    +0.000 HD
ENDBRANCH   6   8
BRANCH   6  10
ATOM     10  O   UNL     1       8.111   5.399  20.762  0.00  0.00    +0.000 OA
ATOM     11  H   UNL     1       7.485   4.659  20.917  0.00  0.00    +0.000 HD
ENDBRANCH   6  10
ENDBRANCH   5   6
ENDBRANCH   4   5
ENDBRANCH   3   4
ENDBRANCH   2   3
BRANCH   2  12
ATOM     12  O   UNL     1       4.597   4.600  15.644  0.00  0.00    +0.000 OA
BRANCH  12  13
ATOM     13  C   UNL     1       4.221   4.296  17.018  0.00  0.00    +0.000 C 
ATOM     14  C   UNL     1       3.421   5.409  17.729  0.00  0.00    +0.000 C 
ATOM     15  C   UNL     1       2.578   4.651  18.703  0.00  0.00    +0.000 A 
ATOM     16  C   UNL     1       1.902   5.156  19.808  0.00  0.00    +0.000 A 
ATOM     17  C   UNL     1       1.125   4.297  20.572  0.00  0.00    +0.000 A 
ATOM     18  C   UNL     1       1.023   2.944  20.216  0.00  0.00    +0.000 A 
ATOM     19  C   UNL     1       1.697   2.442  19.098  0.00  0.00    +0.000 A 
ATOM     20  C   UNL     1       2.487   3.304  18.350  0.00  0.00    +0.000 A 
ATOM     21  C   UNL     1       3.301   3.033  17.112  0.00  0.00    +0.000 C 
ENDBRANCH  12  13
ENDBRANCH   2  12
TORSDOF 8
ENDMDL
MODEL 6
REMARK VINA RESULT:      -6.4      1.664      3.163
REMARK  Name = 
REMARK  8 active torsions:
REMARK  status: ('A' for Active; 'I' for Inactive)
REMARK    1  A    between atoms: C_2  and  O_3
REMARK    2  A    between atoms: C_2  and  O_10
REMARK    3  A    between atoms: O_3  and  C_4
REMARK    4  A    between atoms: C_4  and  O_5
REMARK    5  A    between atoms: O_5  and  P_6
REMARK    6  A    between atoms: P_6  and  O_8
REMARK    7  A    between atoms: P_6  and  O_9
REMARK    8  A    between atoms: O_10  and  C_11
REMARK                            x       y       z     vdW  Elec       q    Type
REMARK                         _______ _______ _______ _____ _____    ______ ____
ROOT
ATOM      1  O   UNL     1       4.895   7.305  15.064  0.00  0.00    +0.000 OA
ATOM      2  C   UNL     1       5.323   6.487  15.864  0.00  0.00    +0.000 C 
ENDROOT
BRANCH   2   3
ATOM      3  O   UNL     1       6.256   5.546  15.553  0.00  0.00    +0.000 OA
BRANCH   3   4
ATOM      4  C   UNL     1       7.442   5.522  16.390  0.00  0.00    +0.000 C 
BRANCH   4   5
ATOM      5  O   UNL     1       7.549   4.498  17.401  0.00  0.00    +0.000 OA
BRANCH   5   6
ATOM      6  P   UNL     1       7.800   5.064  19.016  0.00  0.00    +0.000 P 
ATOM      7  O   UNL     1       7.707   6.539  18.628  0.00  0.00    +0.000 OA
BRANCH   6   8
ATOM      8  O   UNL     1       6.310   4.584  19.459  0.00  0.00    +0.000 OA
ATOM      9  H   UNL     1       6.229   3.614  19.500  0.00  0.00    +0.000 HD
ENDBRANCH   6   8
BRANCH   6  10
ATOM     10  O   UNL     1       8.051   5.631  20.632  0.00  0.00    +0.000 OA
ATOM     11  H   UNL     1       7.333   6.291  20.734  0.00  0.00    +0.000 HD
ENDBRANCH   6  10
ENDBRANCH   5   6
ENDBRANCH   4   5
ENDBRANCH   3   4
ENDBRANCH   2   3
BRANCH   2  12
ATOM     12  O   UNL     1       4.978   6.398  17.188  0.00  0.00    +0.000 OA
BRANCH  12  13
ATOM     13  C   UNL     1       3.652   5.900  17.528  0.00  0.00    +0.000 C 
ATOM     14  C   UNL     1       3.445   4.391  17.271  0.00  0.00    +0.000 C 
ATOM     15  C   UNL     1       2.430   4.009  18.300  0.00  0.00    +0.000 A 
ATOM     16  C   UNL     1       1.650   2.859  18.330  0.00  0.00    +0.000 A 
ATOM     17  C   UNL     1       0.791   2.656  19.402  0.00  0.00    +0.000 A 
ATOM     18  C   UNL     1       0.732   3.600  20.438  0.00  0.00    +0.000 A 
ATOM     19  C   UNL     1       1.527   4.751  20.408  0.00  0.00    +0.000 A 
ATOM     20  C   UNL     1       2.368   4.955  19.324  0.00  0.00    +0.000 A 
ATOM     21  C   UNL     1       3.323   6.085  19.048  0.00  0.00    +0.000 C 
ENDBRANCH  12  13
ENDBRANCH   2  12
TORSDOF 8
ENDMDL
MODEL 7
REMARK VINA RESULT:      -6.3      4.277      6.696
REMARK  Name = 
REMARK  8 active torsions:
REMARK  status: ('A' for Active; 'I' for Inactive)
REMARK    1  A    between atoms: C_2  and  O_3
REMARK    2  A    between atoms: C_2  and  O_10
REMARK    3  A    between atoms: O_3  and  C_4
REMARK    4  A    between atoms: C_4  and  O_5
REMARK    5  A    between atoms: O_5  and  P_6
REMARK    6  A    between atoms: P_6  and  O_8
REMARK    7  A    between atoms: P_6  and  O_9
REMARK    8  A    between atoms: O_10  and  C_11
REMARK                            x       y       z     vdW  Elec       q    Type
REMARK                         _______ _______ _______ _____ _____    ______ ____
ROOT
ATOM      1  O   UNL     1       6.092   4.956  19.951  0.00  0.00    +0.000 OA
ATOM      2  C   UNL     1       5.426   4.783  18.942  0.00  0.00    +0.000 C 
ENDROOT
BRANCH   2   3
ATOM      3  O   UNL     1       4.374   3.920  18.872  0.00  0.00    +0.000 OA
BRANCH   3   4
ATOM      4  C   UNL     1       4.494   2.703  19.653  0.00  0.00    +0.000 C 
BRANCH   4   5
ATOM      5  O   UNL     1       3.692   2.571  20.846  0.00  0.00    +0.000 OA
BRANCH   5   6
ATOM      6  P   UNL     1       2.003   2.887  20.651  0.00  0.00    +0.000 P 
ATOM      7  O   UNL     1       1.639   2.387  22.048  0.00  0.00    +0.000 OA
BRANCH   6   8
ATOM      8  O   UNL     1       2.249   4.491  20.758  0.00  0.00    +0.000 OA
ATOM      9  H   UNL     1       3.114   4.759  20.398  0.00  0.00    +0.000 HD
ENDBRANCH   6   8
BRANCH   6  10
ATOM     10  O   UNL     1       0.312   3.202  20.456  0.00  0.00    +0.000 OA
ATOM     11  H   UNL     1       0.288   3.677  19.598  0.00  0.00    +0.000 HD
ENDBRANCH   6  10
ENDBRANCH   5   6
ENDBRANCH   4   5
ENDBRANCH   3   4
ENDBRANCH   2   3
BRANCH   2  12
ATOM     12  O   UNL     1       5.589   5.433  17.746  0.00  0.00    +0.000 OA
BRANCH  12  13
ATOM     13  C   UNL     1       6.145   4.691  16.622  0.00  0.00    +0.000 C 
ATOM     14  C   UNL     1       5.094   4.125  15.642  0.00  0.00    +0.000 C 
ATOM     15  C   UNL     1       5.825   4.105  14.337  0.00  0.00    +0.000 A 
ATOM     16  C   UNL     1       5.478   3.409  13.185  0.00  0.00    +0.000 A 
ATOM     17  C   UNL     1       6.261   3.555  12.049  0.00  0.00    +0.000 A 
ATOM     18  C   UNL     1       7.376   4.406  12.074  0.00  0.00    +0.000 A 
ATOM     19  C   UNL     1       7.716   5.111  13.233  0.00  0.00    +0.000 A 
ATOM     20  C   UNL     1       6.939   4.944  14.370  0.00  0.00    +0.000 A 
ATOM     21  C   UNL     1       7.072   5.581  15.728  0.00  0.00    +0.000 C 
ENDBRANCH  12  13
ENDBRANCH   2  12
TORSDOF 8
ENDMDL
MODEL 8
REMARK VINA RESULT:      -6.3      1.778      3.361
REMARK  Name = 
REMARK  8 active torsions:
REMARK  status: ('A' for Active; 'I' for Inactive)
REMARK    1  A    between atoms: C_2  and  O_3
REMARK    2  A    between atoms: C_2  and  O_10
REMARK    3  A    between atoms: O_3  and  C_4
REMARK    4  A    between atoms: C_4  and  O_5
REMARK    5  A    between atoms: O_5  and  P_6
REMARK    6  A    between atoms: P_6  and  O_8
REMARK    7  A    between atoms: P_6  and  O_9
REMARK    8  A    between atoms: O_10  and  C_11
REMARK                            x       y       z     vdW  Elec       q    Type
REMARK                         _______ _______ _______ _____ _____    ______ ____
ROOT
ATOM      1  O   UNL     1       5.973   4.630  14.334  0.00  0.00    +0.000 OA
ATOM      2  C   UNL     1       5.810   5.091  15.454  0.00  0.00    +0.000 C 
ENDROOT
BRANCH   2   3
ATOM      3  O   UNL     1       5.822   6.424  15.730  0.00  0.00    +0.000 OA
BRANCH   3   4
ATOM      4  C   UNL     1       6.360   6.805  17.023  0.00  0.00    +0.000 C 
BRANCH   4   5
ATOM      5  O   UNL     1       7.702   6.394  17.356  0.00  0.00    +0.000 OA
BRANCH   5   6
ATOM      6  P   UNL     1       7.925   5.793  18.962  0.00  0.00    +0.000 P 
ATOM      7  O   UNL     1       6.467   6.015  19.362  0.00  0.00    +0.000 OA
BRANCH   6   8
ATOM      8  O   UNL     1       8.051   4.266  18.417  0.00  0.00    +0.000 OA
ATOM      9  H   UNL     1       8.971   3.943  18.425  0.00  0.00    +0.000 HD
ENDBRANCH   6   8
BRANCH   6  10
ATOM     10  O   UNL     1       8.147   5.192  20.570  0.00  0.00    +0.000 OA
ATOM     11  H   UNL     1       8.953   5.670  20.860  0.00  0.00    +0.000 HD
ENDBRANCH   6  10
ENDBRANCH   5   6
ENDBRANCH   4   5
ENDBRANCH   3   4
ENDBRANCH   2   3
BRANCH   2  12
ATOM     12  O   UNL     1       5.556   4.371  16.593  0.00  0.00    +0.000 OA
BRANCH  12  13
ATOM     13  C   UNL     1       4.169   4.107  16.953  0.00  0.00    +0.000 C 
ATOM     14  C   UNL     1       3.925   2.731  17.610  0.00  0.00    +0.000 C 
ATOM     15  C   UNL     1       2.746   2.983  18.495  0.00  0.00    +0.000 A 
ATOM     16  C   UNL     1       1.911   2.038  19.078  0.00  0.00    +0.000 A 
ATOM     17  C   UNL     1       0.890   2.467  19.915  0.00  0.00    +0.000 A 
ATOM     18  C   UNL     1       0.724   3.837  20.169  0.00  0.00    +0.000 A 
ATOM     19  C   UNL     1       1.573   4.784  19.587  0.00  0.00    +0.000 A 
ATOM     20  C   UNL     1       2.579   4.347  18.736  0.00  0.00    +0.000 A 
ATOM     21  C   UNL     1       3.623   5.140  17.996  0.00  0.00    +0.000 C 
ENDBRANCH  12  13
ENDBRANCH   2  12
TORSDOF 8
ENDMDL
MODEL 9
REMARK VINA RESULT:      -6.2      1.879      3.245
REMARK  Name = 
REMARK  8 active torsions:
REMARK  status: ('A' for Active; 'I' for Inactive)
REMARK    1  A    between atoms: C_2  and  O_3
REMARK    2  A    between atoms: C_2  and  O_10
REMARK    3  A    between atoms: O_3  and  C_4
REMARK    4  A    between atoms: C_4  and  O_5
REMARK    5  A    between atoms: O_5  and  P_6
REMARK    6  A    between atoms: P_6  and  O_8
REMARK    7  A    between atoms: P_6  and  O_9
REMARK    8  A    between atoms: O_10  and  C_11
REMARK                            x       y       z     vdW  Elec       q    Type
REMARK                         _______ _______ _______ _____ _____    ______ ____
ROOT
ATOM      1  O   UNL     1       4.963   7.180  15.475  0.00  0.00    +0.000 OA
ATOM      2  C   UNL     1       5.652   6.244  15.853  0.00  0.00    +0.000 C 
ENDROOT
BRANCH   2   3
ATOM      3  O   UNL     1       6.984   6.346  16.114  0.00  0.00    +0.000 OA
BRANCH   3   4
ATOM      4  C   UNL     1       7.359   7.274  17.166  0.00  0.00    +0.000 C 
BRANCH   4   5
ATOM      5  O   UNL     1       7.906   6.739  18.389  0.00  0.00    +0.000 OA
BRANCH   5   6
ATOM      6  P   UNL     1       7.038   5.412  19.080  0.00  0.00    +0.000 P 
ATOM      7  O   UNL     1       7.769   4.361  18.247  0.00  0.00    +0.000 OA
BRANCH   6   8
ATOM      8  O   UNL     1       7.843   5.564  20.485  0.00  0.00    +0.000 OA
ATOM      9  H   UNL     1       8.332   4.755  20.723  0.00  0.00    +0.000 HD
ENDBRANCH   6   8
BRANCH   6  10
ATOM     10  O   UNL     1       6.169   4.084  19.771  0.00  0.00    +0.000 OA
ATOM     11  H   UNL     1       6.781   3.334  19.617  0.00  0.00    +0.000 HD
ENDBRANCH   6  10
ENDBRANCH   5   6
ENDBRANCH   4   5
ENDBRANCH   3   4
ENDBRANCH   2   3
BRANCH   2  12
ATOM     12  O   UNL     1       5.212   4.972  16.109  0.00  0.00    +0.000 OA
BRANCH  12  13
ATOM     13  C   UNL     1       3.903   4.800  16.727  0.00  0.00    +0.000 C 
ATOM     14  C   UNL     1       3.622   3.377  17.256  0.00  0.00    +0.000 C 
ATOM     15  C   UNL     1       2.687   3.619  18.398  0.00  0.00    +0.000 A 
ATOM     16  C   UNL     1       1.872   2.690  19.033  0.00  0.00    +0.000 A 
ATOM     17  C   UNL     1       1.103   3.096  20.114  0.00  0.00    +0.000 A 
ATOM     18  C   UNL     1       1.168   4.426  20.556  0.00  0.00    +0.000 A 
ATOM     19  C   UNL     1       1.997   5.356  19.919  0.00  0.00    +0.000 A 
ATOM     20  C   UNL     1       2.747   4.945  18.827  0.00  0.00    +0.000 A 
ATOM     21  C   UNL     1       3.715   5.725  17.977  0.00  0.00    +0.000 C 
ENDBRANCH  12  13
ENDBRANCH   2  12
TORSDOF 8
ENDMDL
