MODEL 1
REMARK VINA RESULT:      -4.0      0.000      0.000
REMARK  Name = 
REMARK  2 active torsions:
REMARK  status: ('A' for Active; 'I' for Inactive)
REMARK    1  A    between atoms: C_2  and  C_3
REMARK    2  A    between atoms: N_5  and  C_6
REMARK                            x       y       z     vdW  Elec       q    Type
REMARK                         _______ _______ _______ _____ _____    ______ ____
ROOT
ATOM      1  C   UNL     1       8.488   4.423  27.588  0.00  0.00    +0.000 C 
ATOM      2  O   UNL     1       7.635   3.753  27.018  0.00  0.00    +0.000 OA
ATOM      3  N   UNL     1       8.217   5.518  28.368  0.00  0.00    +0.000 N 
ATOM      4  C   UNL     1       6.866   5.976  28.582  0.00  0.00    +0.000 C 
ATOM      5  H   UNL     1       8.970   6.027  28.810  0.00  0.00    +0.000 HD
ENDROOT
BRANCH   1   7
ATOM      6  C   UNL     1      10.838   5.024  27.876  0.00  0.00    +0.000 C 
ATOM      7  C   UNL     1       9.937   4.111  27.489  0.00  0.00    +0.000 C 
ENDBRANCH   1   7
TORSDOF 1
ENDMDL
MODEL 2
REMARK VINA RESULT:      -3.8     12.688     13.046
REMARK  Name = 
REMARK  2 active torsions:
REMARK  status: ('A' for Active; 'I' for Inactive)
REMARK    1  A    between atoms: C_2  and  C_3
REMARK    2  A    between atoms: N_5  and  C_6
REMARK                            x       y       z     vdW  Elec       q    Type
REMARK                         _______ _______ _______ _____ _____    ______ ____
ROOT
ATOM      1  C   UNL     1       6.841   4.631  15.139  0.00  0.00    +0.000 C 
ATOM      2  O   UNL     1       7.703   5.432  14.799  0.00  0.00    +0.000 OA
ATOM      3  N   UNL     1       6.683   4.162  16.418  0.00  0.00    +0.000 N 
ATOM      4  C   UNL     1       7.545   4.592  17.492  0.00  0.00    +0.000 C 
ATOM      5  H   UNL     1       5.949   3.500  16.630  0.00  0.00    +0.000 HD
ENDROOT
BRANCH   1   7
ATOM      6  C   UNL     1       6.269   3.679  12.963  0.00  0.00    +0.000 C 
ATOM      7  C   UNL     1       5.858   4.070  14.177  0.00  0.00    +0.000 C 
ENDBRANCH   1   7
TORSDOF 1
ENDMDL
MODEL 3
REMARK VINA RESULT:      -3.7      0.859      3.051
REMARK  Name = 
REMARK  2 active torsions:
REMARK  status: ('A' for Active; 'I' for Inactive)
REMARK    1  A    between atoms: C_2  and  C_3
REMARK    2  A    between atoms: N_5  and  C_6
REMARK                            x       y       z     vdW  Elec       q    Type
REMARK                         _______ _______ _______ _____ _____    ______ ____
ROOT
ATOM      1  C   UNL     1       8.091   4.663  27.743  0.00  0.00    +0.000 C 
ATOM      2  O   UNL     1       7.626   3.765  27.052  0.00  0.00    +0.000 OA
ATOM      3  N   UNL     1       9.426   4.817  28.016  0.00  0.00    +0.000 N 
ATOM      4  C   UNL     1      10.413   3.903  27.494  0.00  0.00    +0.000 C 
ATOM      5  H   UNL     1       9.743   5.583  28.595  0.00  0.00    +0.000 HD
ENDROOT
BRANCH   1   7
ATOM      6  C   UNL     1       5.902   5.599  28.290  0.00  0.00    +0.000 C 
ATOM      7  C   UNL     1       7.235   5.702  28.371  0.00  0.00    +0.000 C 
ENDBRANCH   1   7
TORSDOF 1
ENDMDL
MODEL 4
REMARK VINA RESULT:      -3.6     10.799     11.107
REMARK  Name = 
REMARK  2 active torsions:
REMARK  status: ('A' for Active; 'I' for Inactive)
REMARK    1  A    between atoms: C_2  and  C_3
REMARK    2  A    between atoms: N_5  and  C_6
REMARK                            x       y       z     vdW  Elec       q    Type
REMARK                         _______ _______ _______ _____ _____    ______ ____
ROOT
ATOM      1  C   UNL     1       7.340   5.532  17.472  0.00  0.00    +0.000 C 
ATOM      2  O   UNL     1       7.094   4.473  18.038  0.00  0.00    +0.000 OA
ATOM      3  N   UNL     1       7.319   5.704  16.111  0.00  0.00    +0.000 N 
ATOM      4  C   UNL     1       6.994   4.618  15.219  0.00  0.00    +0.000 C 
ATOM      5  H   UNL     1       7.533   6.606  15.709  0.00  0.00    +0.000 HD
ENDROOT
BRANCH   1   7
ATOM      6  C   UNL     1       7.697   7.946  17.585  0.00  0.00    +0.000 C 
ATOM      7  C   UNL     1       7.697   6.765  18.219  0.00  0.00    +0.000 C 
ENDBRANCH   1   7
TORSDOF 1
ENDMDL
MODEL 5
REMARK VINA RESULT:      -3.6     15.228     15.605
REMARK  Name = 
REMARK  2 active torsions:
REMARK  status: ('A' for Active; 'I' for Inactive)
REMARK    1  A    between atoms: C_2  and  C_3
REMARK    2  A    between atoms: N_5  and  C_6
REMARK                            x       y       z     vdW  Elec       q    Type
REMARK                         _______ _______ _______ _____ _____    ______ ____
ROOT
ATOM      1  C   UNL     1       6.371   3.628  12.507  0.00  0.00    +0.000 C 
ATOM      2  O   UNL     1       7.254   4.256  11.937  0.00  0.00    +0.000 OA
ATOM      3  N   UNL     1       6.128   3.685  13.856  0.00  0.00    +0.000 N 
ATOM      4  C   UNL     1       6.920   4.517  14.730  0.00  0.00    +0.000 C 
ATOM      5  H   UNL     1       5.381   3.140  14.263  0.00  0.00    +0.000 HD
ENDROOT
BRANCH   1   7
ATOM      6  C   UNL     1       4.264   3.173  11.359  0.00  0.00    +0.000 C 
ATOM      7  C   UNL     1       5.451   2.717  11.779  0.00  0.00    +0.000 C 
ENDBRANCH   1   7
TORSDOF 1
ENDMDL
MODEL 6
REMARK VINA RESULT:      -3.5     12.989     13.332
REMARK  Name = 
REMARK  2 active torsions:
REMARK  status: ('A' for Active; 'I' for Inactive)
REMARK    1  A    between atoms: C_2  and  C_3
REMARK    2  A    between atoms: N_5  and  C_6
REMARK                            x       y       z     vdW  Elec       q    Type
REMARK                         _______ _______ _______ _____ _____    ______ ____
ROOT
ATOM      1  C   UNL     1       6.822   4.501  14.827  0.00  0.00    +0.000 C 
ATOM      2  O   UNL     1       7.580   5.381  14.436  0.00  0.00    +0.000 OA
ATOM      3  N   UNL     1       6.206   3.591  14.007  0.00  0.00    +0.000 N 
ATOM      4  C   UNL     1       6.412   3.602  12.579  0.00  0.00    +0.000 C 
ATOM      5  H   UNL     1       5.591   2.889  14.396  0.00  0.00    +0.000 HD
ENDROOT
BRANCH   1   7
ATOM      6  C   UNL     1       7.408   4.594  17.197  0.00  0.00    +0.000 C 
ATOM      7  C   UNL     1       6.485   4.327  16.263  0.00  0.00    +0.000 C 
ENDBRANCH   1   7
TORSDOF 1
ENDMDL
MODEL 7
REMARK VINA RESULT:      -3.5      1.884      2.015
REMARK  Name = 
REMARK  2 active torsions:
REMARK  status: ('A' for Active; 'I' for Inactive)
REMARK    1  A    between atoms: C_2  and  C_3
REMARK    2  A    between atoms: N_5  and  C_6
REMARK                            x       y       z     vdW  Elec       q    Type
REMARK                         _______ _______ _______ _____ _____    ______ ____
ROOT
ATOM      1  C   UNL     1       9.749   4.499  27.815  0.00  0.00    +0.000 C 
ATOM      2  O   UNL     1       9.833   5.533  28.468  0.00  0.00    +0.000 OA
ATOM      3  N   UNL     1       8.589   4.035  27.249  0.00  0.00    +0.000 N 
ATOM      4  C   UNL     1       7.344   4.752  27.384  0.00  0.00    +0.000 C 
ATOM      5  H   UNL     1       8.589   3.173  26.722  0.00  0.00    +0.000 HD
ENDROOT
BRANCH   1   7
ATOM      6  C   UNL     1      11.632   3.158  28.602  0.00  0.00    +0.000 C 
ATOM      7  C   UNL     1      10.921   3.622  27.566  0.00  0.00    +0.000 C 
ENDBRANCH   1   7
TORSDOF 1
ENDMDL
MODEL 8
REMARK VINA RESULT:      -3.4     10.808     11.443
REMARK  Name = 
REMARK  2 active torsions:
REMARK  status: ('A' for Active; 'I' for Inactive)
REMARK    1  A    between atoms: C_2  and  C_3
REMARK    2  A    between atoms: N_5  and  C_6
REMARK                            x       y       z     vdW  Elec       q    Type
REMARK                         _______ _______ _______ _____ _____    ______ ____
ROOT
ATOM      1  C   UNL     1       1.586   2.968  18.995  0.00  0.00    +0.000 C 
ATOM      2  O   UNL     1       1.151   3.317  17.904  0.00  0.00    +0.000 OA
ATOM      3  N   UNL     1       2.707   2.196  19.169  0.00  0.00    +0.000 N 
ATOM      4  C   UNL     1       3.480   1.724  18.046  0.00  0.00    +0.000 C 
ATOM      5  H   UNL     1       3.011   1.943  20.099  0.00  0.00    +0.000 HD
ENDROOT
BRANCH   1   7
ATOM      6  C   UNL     1       1.362   2.826  21.423  0.00  0.00    +0.000 C 
ATOM      7  C   UNL     1       0.929   3.353  20.270  0.00  0.00    +0.000 C 
ENDBRANCH   1   7
TORSDOF 1
ENDMDL
MODEL 9
REMARK VINA RESULT:      -3.4     10.493     10.750
REMARK  Name = 
REMARK  2 active torsions:
REMARK  status: ('A' for Active; 'I' for Inactive)
REMARK    1  A    between atoms: C_2  and  C_3
REMARK    2  A    between atoms: N_5  and  C_6
REMARK                            x       y       z     vdW  Elec       q    Type
REMARK                         _______ _______ _______ _____ _____    ______ ____
ROOT
ATOM      1  C   UNL     1       7.708   6.980  17.793  0.00  0.00    +0.000 C 
ATOM      2  O   UNL     1       7.995   6.487  18.877  0.00  0.00    +0.000 OA
ATOM      3  N   UNL     1       7.333   6.257  16.689  0.00  0.00    +0.000 N 
ATOM      4  C   UNL     1       7.244   4.817  16.726  0.00  0.00    +0.000 C 
ATOM      5  H   UNL     1       7.109   6.728  15.824  0.00  0.00    +0.000 HD
ENDROOT
BRANCH   1   7
ATOM      6  C   UNL     1       8.517   9.223  18.323  0.00  0.00    +0.000 C 
ATOM      7  C   UNL     1       7.741   8.446  17.556  0.00  0.00    +0.000 C 
ENDBRANCH   1   7
TORSDOF 1
ENDMDL
