MODEL 1
REMARK VINA RESULT:      -5.2      0.000      0.000
REMARK  Name = 
REMARK  2 active torsions:
REMARK  status: ('A' for Active; 'I' for Inactive)
REMARK    1  A    between atoms: C_2  and  C_4
REMARK    2  A    between atoms: C_7  and  N_8
REMARK                            x       y       z     vdW  Elec       q    Type
REMARK                         _______ _______ _______ _____ _____    ______ ____
ROOT
ATOM      1  C   UNL     1       5.742   4.702  17.571  0.00  0.00    +0.000 A 
ATOM      2  C   UNL     1       5.487   5.188  18.870  0.00  0.00    +0.000 A 
ATOM      3  C   UNL     1       4.203   5.136  19.420  0.00  0.00    +0.000 A 
ATOM      4  C   UNL     1       3.142   4.598  18.685  0.00  0.00    +0.000 A 
ATOM      5  C   UNL     1       3.378   4.112  17.394  0.00  0.00    +0.000 A 
ATOM      6  C   UNL     1       4.661   4.162  16.840  0.00  0.00    +0.000 A 
ENDROOT
BRANCH   1   8
ATOM      7  N   UNL     1       8.086   4.161  17.623  0.00  0.00    +0.000 NA
ATOM      8  C   UNL     1       7.130   4.770  17.009  0.00  0.00    +0.000 C 
ATOM      9  N   UNL     1       7.430   5.477  15.807  0.00  0.00    +0.000 N 
ATOM     10  H   UNL     1       9.055   4.174  17.270  0.00  0.00    +0.000 HD
ATOM     11  H   UNL     1       8.393   5.488  15.440  0.00  0.00    +0.000 HD
ATOM     12  H   UNL     1       6.718   5.982  15.266  0.00  0.00    +0.000 HD
ENDBRANCH   1   8
BRANCH   4  13
ATOM     13  N   UNL     1       1.840   4.545  19.241  0.00  0.00    +0.000 N 
ATOM     14  H   UNL     1       1.050   4.170  18.696  0.00  0.00    +0.000 HD
ATOM     15  H   UNL     1       1.663   4.880  20.200  0.00  0.00    +0.000 HD
ENDBRANCH   4  13
TORSDOF 2
ENDMDL
MODEL 2
REMARK VINA RESULT:      -5.2      0.173      1.538
REMARK  Name = 
REMARK  2 active torsions:
REMARK  status: ('A' for Active; 'I' for Inactive)
REMARK    1  A    between atoms: C_2  and  C_4
REMARK    2  A    between atoms: C_7  and  N_8
REMARK                            x       y       z     vdW  Elec       q    Type
REMARK                         _______ _______ _______ _____ _____    ______ ____
ROOT
ATOM      1  C   UNL     1       5.736   4.617  17.607  0.00  0.00    +0.000 A 
ATOM      2  C   UNL     1       4.710   4.040  16.828  0.00  0.00    +0.000 A 
ATOM      3  C   UNL     1       3.408   3.923  17.324  0.00  0.00    +0.000 A 
ATOM      4  C   UNL     1       3.099   4.378  18.609  0.00  0.00    +0.000 A 
ATOM      5  C   UNL     1       4.105   4.952  19.395  0.00  0.00    +0.000 A 
ATOM      6  C   UNL     1       5.408   5.071  18.903  0.00  0.00    +0.000 A 
ENDROOT
BRANCH   1   8
ATOM      7  N   UNL     1       8.093   4.138  17.651  0.00  0.00    +0.000 NA
ATOM      8  C   UNL     1       7.122   4.732  17.048  0.00  0.00    +0.000 C 
ATOM      9  N   UNL     1       7.403   5.469  15.860  0.00  0.00    +0.000 N 
ATOM     10  H   UNL     1       9.061   4.183  17.300  0.00  0.00    +0.000 HD
ATOM     11  H   UNL     1       8.366   5.513  15.494  0.00  0.00    +0.000 HD
ATOM     12  H   UNL     1       6.678   5.964  15.328  0.00  0.00    +0.000 HD
ENDBRANCH   1   8
BRANCH   4  13
ATOM     13  N   UNL     1       1.780   4.258  19.113  0.00  0.00    +0.000 N 
ATOM     14  H   UNL     1       1.105   5.029  19.005  0.00  0.00    +0.000 HD
ATOM     15  H   UNL     1       1.475   3.398  19.593  0.00  0.00    +0.000 HD
ENDBRANCH   4  13
TORSDOF 2
ENDMDL
MODEL 3
REMARK VINA RESULT:      -5.1      1.034      1.034
REMARK  Name = 
REMARK  2 active torsions:
REMARK  status: ('A' for Active; 'I' for Inactive)
REMARK    1  A    between atoms: C_2  and  C_4
REMARK    2  A    between atoms: C_7  and  N_8
REMARK                            x       y       z     vdW  Elec       q    Type
REMARK                         _______ _______ _______ _____ _____    ______ ____
ROOT
ATOM      1  C   UNL     1       5.621   4.786  16.886  0.00  0.00    +0.000 A 
ATOM      2  C   UNL     1       5.025   5.946  17.425  0.00  0.00    +0.000 A 
ATOM      3  C   UNL     1       3.687   5.946  17.831  0.00  0.00    +0.000 A 
ATOM      4  C   UNL     1       2.912   4.789  17.708  0.00  0.00    +0.000 A 
ATOM      5  C   UNL     1       3.487   3.630  17.175  0.00  0.00    +0.000 A 
ATOM      6  C   UNL     1       4.825   3.625  16.768  0.00  0.00    +0.000 A 
ENDROOT
BRANCH   1   8
ATOM      7  N   UNL     1       7.941   4.228  17.194  0.00  0.00    +0.000 NA
ATOM      8  C   UNL     1       7.058   4.815  16.461  0.00  0.00    +0.000 C 
ATOM      9  N   UNL     1       7.484   5.462  15.264  0.00  0.00    +0.000 N 
ATOM     10  H   UNL     1       8.939   4.215  16.939  0.00  0.00    +0.000 HD
ATOM     11  H   UNL     1       8.479   5.448  14.993  0.00  0.00    +0.000 HD
ATOM     12  H   UNL     1       6.835   5.947  14.633  0.00  0.00    +0.000 HD
ENDBRANCH   1   8
BRANCH   4  13
ATOM     13  N   UNL     1       1.556   4.789  18.119  0.00  0.00    +0.000 N 
ATOM     14  H   UNL     1       1.116   5.648  18.481  0.00  0.00    +0.000 HD
ATOM     15  H   UNL     1       0.988   3.930  18.061  0.00  0.00    +0.000 HD
ENDBRANCH   4  13
TORSDOF 2
ENDMDL
MODEL 4
REMARK VINA RESULT:      -5.1      1.912      2.287
REMARK  Name = 
REMARK  2 active torsions:
REMARK  status: ('A' for Active; 'I' for Inactive)
REMARK    1  A    between atoms: C_2  and  C_4
REMARK    2  A    between atoms: C_7  and  N_8
REMARK                            x       y       z     vdW  Elec       q    Type
REMARK                         _______ _______ _______ _____ _____    ______ ____
ROOT
ATOM      1  C   UNL     1       5.477   5.036  15.771  0.00  0.00    +0.000 A 
ATOM      2  C   UNL     1       5.306   6.389  16.134  0.00  0.00    +0.000 A 
ATOM      3  C   UNL     1       4.388   6.760  17.120  0.00  0.00    +0.000 A 
ATOM      4  C   UNL     1       3.617   5.790  17.767  0.00  0.00    +0.000 A 
ATOM      5  C   UNL     1       3.772   4.444  17.419  0.00  0.00    +0.000 A 
ATOM      6  C   UNL     1       4.690   4.068  16.433  0.00  0.00    +0.000 A 
ENDROOT
BRANCH   1   8
ATOM      7  N   UNL     1       7.554   5.357  14.601  0.00  0.00    +0.000 NA
ATOM      8  C   UNL     1       6.472   4.667  14.712  0.00  0.00    +0.000 C 
ATOM      9  N   UNL     1       6.267   3.568  13.827  0.00  0.00    +0.000 N 
ATOM     10  H   UNL     1       8.270   5.137  13.892  0.00  0.00    +0.000 HD
ATOM     11  H   UNL     1       6.980   3.333  13.120  0.00  0.00    +0.000 HD
ATOM     12  H   UNL     1       5.429   2.975  13.860  0.00  0.00    +0.000 HD
ENDBRANCH   1   8
BRANCH   4  13
ATOM     13  N   UNL     1       2.684   6.166  18.766  0.00  0.00    +0.000 N 
ATOM     14  H   UNL     1       1.768   6.560  18.508  0.00  0.00    +0.000 HD
ATOM     15  H   UNL     1       2.908   6.050  19.766  0.00  0.00    +0.000 HD
ENDBRANCH   4  13
TORSDOF 2
ENDMDL
MODEL 5
REMARK VINA RESULT:      -5.1      1.903      2.471
REMARK  Name = 
REMARK  2 active torsions:
REMARK  status: ('A' for Active; 'I' for Inactive)
REMARK    1  A    between atoms: C_2  and  C_4
REMARK    2  A    between atoms: C_7  and  N_8
REMARK                            x       y       z     vdW  Elec       q    Type
REMARK                         _______ _______ _______ _____ _____    ______ ____
ROOT
ATOM      1  C   UNL     1       5.497   5.068  15.764  0.00  0.00    +0.000 A 
ATOM      2  C   UNL     1       4.727   4.073  16.404  0.00  0.00    +0.000 A 
ATOM      3  C   UNL     1       3.789   4.408  17.385  0.00  0.00    +0.000 A 
ATOM      4  C   UNL     1       3.597   5.743  17.751  0.00  0.00    +0.000 A 
ATOM      5  C   UNL     1       4.353   6.742  17.127  0.00  0.00    +0.000 A 
ATOM      6  C   UNL     1       5.292   6.412  16.145  0.00  0.00    +0.000 A 
ENDROOT
BRANCH   1   8
ATOM      7  N   UNL     1       7.582   5.359  14.598  0.00  0.00    +0.000 NA
ATOM      8  C   UNL     1       6.493   4.679  14.714  0.00  0.00    +0.000 C 
ATOM      9  N   UNL     1       6.285   3.570  13.842  0.00  0.00    +0.000 N 
ATOM     10  H   UNL     1       8.299   5.125  13.896  0.00  0.00    +0.000 HD
ATOM     11  H   UNL     1       6.999   3.320  13.142  0.00  0.00    +0.000 HD
ATOM     12  H   UNL     1       5.443   2.983  13.879  0.00  0.00    +0.000 HD
ENDBRANCH   1   8
BRANCH   4  13
ATOM     13  N   UNL     1       2.647   6.083  18.746  0.00  0.00    +0.000 N 
ATOM     14  H   UNL     1       2.952   6.403  19.676  0.00  0.00    +0.000 HD
ATOM     15  H   UNL     1       1.636   6.017  18.553  0.00  0.00    +0.000 HD
ENDBRANCH   4  13
TORSDOF 2
ENDMDL
MODEL 6
REMARK VINA RESULT:      -5.1      1.648      4.070
REMARK  Name = 
REMARK  2 active torsions:
REMARK  status: ('A' for Active; 'I' for Inactive)
REMARK    1  A    between atoms: C_2  and  C_4
REMARK    2  A    between atoms: C_7  and  N_8
REMARK                            x       y       z     vdW  Elec       q    Type
REMARK                         _______ _______ _______ _____ _____    ______ ____
ROOT
ATOM      1  C   UNL     1       5.322   4.106  17.944  0.00  0.00    +0.000 A 
ATOM      2  C   UNL     1       6.610   4.669  18.066  0.00  0.00    +0.000 A 
ATOM      3  C   UNL     1       7.326   5.083  16.939  0.00  0.00    +0.000 A 
ATOM      4  C   UNL     1       6.773   4.942  15.662  0.00  0.00    +0.000 A 
ATOM      5  C   UNL     1       5.498   4.384  15.523  0.00  0.00    +0.000 A 
ATOM      6  C   UNL     1       4.778   3.970  16.648  0.00  0.00    +0.000 A 
ENDROOT
BRANCH   1   8
ATOM      7  N   UNL     1       4.906   2.570  19.749  0.00  0.00    +0.000 NA
ATOM      8  C   UNL     1       4.578   3.674  19.171  0.00  0.00    +0.000 C 
ATOM      9  N   UNL     1       3.522   4.452  19.732  0.00  0.00    +0.000 N 
ATOM     10  H   UNL     1       4.427   2.236  20.599  0.00  0.00    +0.000 HD
ATOM     11  H   UNL     1       3.042   4.133  20.587  0.00  0.00    +0.000 HD
ATOM     12  H   UNL     1       3.210   5.341  19.326  0.00  0.00    +0.000 HD
ENDBRANCH   1   8
BRANCH   4  13
ATOM     13  N   UNL     1       7.499   5.360  14.518  0.00  0.00    +0.000 N 
ATOM     14  H   UNL     1       8.447   5.001  14.338  0.00  0.00    +0.000 HD
ATOM     15  H   UNL     1       7.088   6.029  13.850  0.00  0.00    +0.000 HD
ENDBRANCH   4  13
TORSDOF 2
ENDMDL
MODEL 7
REMARK VINA RESULT:      -5.1      1.665      4.402
REMARK  Name = 
REMARK  2 active torsions:
REMARK  status: ('A' for Active; 'I' for Inactive)
REMARK    1  A    between atoms: C_2  and  C_4
REMARK    2  A    between atoms: C_7  and  N_8
REMARK                            x       y       z     vdW  Elec       q    Type
REMARK                         _______ _______ _______ _____ _____    ______ ____
ROOT
ATOM      1  C   UNL     1       5.344   4.096  17.939  0.00  0.00    +0.000 A 
ATOM      2  C   UNL     1       4.794   3.970  16.646  0.00  0.00    +0.000 A 
ATOM      3  C   UNL     1       5.504   4.389  15.517  0.00  0.00    +0.000 A 
ATOM      4  C   UNL     1       6.779   4.946  15.652  0.00  0.00    +0.000 A 
ATOM      5  C   UNL     1       7.339   5.079  16.927  0.00  0.00    +0.000 A 
ATOM      6  C   UNL     1       6.632   4.661  18.059  0.00  0.00    +0.000 A 
ENDROOT
BRANCH   1   8
ATOM      7  N   UNL     1       3.551   4.332  19.527  0.00  0.00    +0.000 NA
ATOM      8  C   UNL     1       4.560   3.635  19.131  0.00  0.00    +0.000 C 
ATOM      9  N   UNL     1       4.886   2.440  19.838  0.00  0.00    +0.000 N 
ATOM     10  H   UNL     1       2.979   4.051  20.337  0.00  0.00    +0.000 HD
ATOM     11  H   UNL     1       4.315   2.143  20.644  0.00  0.00    +0.000 HD
ATOM     12  H   UNL     1       5.674   1.836  19.577  0.00  0.00    +0.000 HD
ENDBRANCH   1   8
BRANCH   4  13
ATOM     13  N   UNL     1       7.499   5.372  14.508  0.00  0.00    +0.000 N 
ATOM     14  H   UNL     1       7.694   6.372  14.352  0.00  0.00    +0.000 HD
ATOM     15  H   UNL     1       7.839   4.689  13.815  0.00  0.00    +0.000 HD
ENDBRANCH   4  13
TORSDOF 2
ENDMDL
MODEL 8
REMARK VINA RESULT:      -5.1      1.946      2.326
REMARK  Name = 
REMARK  2 active torsions:
REMARK  status: ('A' for Active; 'I' for Inactive)
REMARK    1  A    between atoms: C_2  and  C_4
REMARK    2  A    between atoms: C_7  and  N_8
REMARK                            x       y       z     vdW  Elec       q    Type
REMARK                         _______ _______ _______ _____ _____    ______ ____
ROOT
ATOM      1  C   UNL     1       5.510   4.977  15.675  0.00  0.00    +0.000 A 
ATOM      2  C   UNL     1       5.306   6.333  16.005  0.00  0.00    +0.000 A 
ATOM      3  C   UNL     1       4.393   6.705  16.996  0.00  0.00    +0.000 A 
ATOM      4  C   UNL     1       3.660   5.731  17.680  0.00  0.00    +0.000 A 
ATOM      5  C   UNL     1       3.848   4.381  17.364  0.00  0.00    +0.000 A 
ATOM      6  C   UNL     1       4.761   4.005  16.374  0.00  0.00    +0.000 A 
ENDROOT
BRANCH   1   8
ATOM      7  N   UNL     1       6.295   3.549  13.904  0.00  0.00    +0.000 NA
ATOM      8  C   UNL     1       6.498   4.608  14.610  0.00  0.00    +0.000 C 
ATOM      9  N   UNL     1       7.655   5.398  14.341  0.00  0.00    +0.000 N 
ATOM     10  H   UNL     1       6.944   3.260  13.157  0.00  0.00    +0.000 HD
ATOM     11  H   UNL     1       8.305   5.125  13.589  0.00  0.00    +0.000 HD
ATOM     12  H   UNL     1       7.877   6.254  14.862  0.00  0.00    +0.000 HD
ENDBRANCH   1   8
BRANCH   4  13
ATOM     13  N   UNL     1       2.732   6.107  18.684  0.00  0.00    +0.000 N 
ATOM     14  H   UNL     1       2.886   6.953  19.251  0.00  0.00    +0.000 HD
ATOM     15  H   UNL     1       1.890   5.540  18.861  0.00  0.00    +0.000 HD
ENDBRANCH   4  13
TORSDOF 2
ENDMDL
MODEL 9
REMARK VINA RESULT:      -5.1      1.656      4.172
REMARK  Name = 
REMARK  2 active torsions:
REMARK  status: ('A' for Active; 'I' for Inactive)
REMARK    1  A    between atoms: C_2  and  C_4
REMARK    2  A    between atoms: C_7  and  N_8
REMARK                            x       y       z     vdW  Elec       q    Type
REMARK                         _______ _______ _______ _____ _____    ______ ____
ROOT
ATOM      1  C   UNL     1       5.268   4.087  17.870  0.00  0.00    +0.000 A 
ATOM      2  C   UNL     1       6.606   4.514  18.002  0.00  0.00    +0.000 A 
ATOM      3  C   UNL     1       7.337   4.947  16.892  0.00  0.00    +0.000 A 
ATOM      4  C   UNL     1       6.750   4.963  15.624  0.00  0.00    +0.000 A 
ATOM      5  C   UNL     1       5.425   4.541  15.474  0.00  0.00    +0.000 A 
ATOM      6  C   UNL     1       4.689   4.107  16.582  0.00  0.00    +0.000 A 
ENDROOT
BRANCH   1   8
ATOM      7  N   UNL     1       3.448   4.271  19.433  0.00  0.00    +0.000 NA
ATOM      8  C   UNL     1       4.509   3.630  19.079  0.00  0.00    +0.000 C 
ATOM      9  N   UNL     1       4.914   2.500  19.849  0.00  0.00    +0.000 N 
ATOM     10  H   UNL     1       2.889   3.990  20.252  0.00  0.00    +0.000 HD
ATOM     11  H   UNL     1       4.358   2.204  20.666  0.00  0.00    +0.000 HD
ATOM     12  H   UNL     1       5.746   1.943  19.625  0.00  0.00    +0.000 HD
ENDBRANCH   1   8
BRANCH   4  13
ATOM     13  N   UNL     1       7.491   5.400  14.497  0.00  0.00    +0.000 N 
ATOM     14  H   UNL     1       8.225   6.116  14.597  0.00  0.00    +0.000 HD
ATOM     15  H   UNL     1       7.307   5.008  13.561  0.00  0.00    +0.000 HD
ENDBRANCH   4  13
TORSDOF 2
ENDMDL
