MODEL 1
REMARK VINA RESULT:      -7.6      0.000      0.000
REMARK  Name = 
REMARK  6 active torsions:
REMARK  status: ('A' for Active; 'I' for Inactive)
REMARK    1  A    between atoms: C_1  and  C_2
REMARK    2  A    between atoms: C_2  and  C_13
REMARK    3  A    between atoms: N_3  and  N_4
REMARK    4  A    between atoms: C_5  and  C_7
REMARK    5  A    between atoms: C_16  and  C_17
REMARK    6  A    between atoms: C_18  and  N_19
REMARK                            x       y       z     vdW  Elec       q    Type
REMARK                         _______ _______ _______ _____ _____    ______ ____
ROOT
ATOM      1  C   UNL     1       1.847   5.234  20.523  0.00  0.00    +0.000 C 
ATOM      2  C   UNL     1       2.601   6.134  19.559  0.00  0.00    +0.000 C 
ATOM      3  N   UNL     1       2.557   7.435  19.563  0.00  0.00    +0.000 NA
ENDROOT
BRANCH   2   4
ATOM      4  C   UNL     1       3.473   5.450  18.530  0.00  0.00    +0.000 A 
ATOM      5  C   UNL     1       2.911   4.531  17.640  0.00  0.00    +0.000 A 
ATOM      6  C   UNL     1       3.706   3.882  16.685  0.00  0.00    +0.000 A 
ATOM      7  C   UNL     1       5.089   4.130  16.584  0.00  0.00    +0.000 A 
ATOM      8  C   UNL     1       5.861   3.379  15.532  0.00  0.00    +0.000 C 
ATOM      9  C   UNL     1       5.654   5.061  17.480  0.00  0.00    +0.000 A 
ATOM     10  C   UNL     1       4.846   5.710  18.441  0.00  0.00    +0.000 A 
BRANCH   9  11
ATOM     11  N   UNL     1       7.094   5.411  17.473  0.00  0.00    +0.000 N 
ATOM     12  O   UNL     1       7.490   6.320  16.735  0.00  0.00    +0.000 OA
ATOM     13  O   UNL     1       7.840   4.761  18.222  0.00  0.00    +0.000 OA
ENDBRANCH   9  11
ENDBRANCH   2   4
BRANCH   3  14
ATOM     14  N   UNL     1       1.778   8.103  20.461  0.00  0.00    +0.000 N 
ATOM     15  C   UNL     1       1.063   9.224  20.065  0.00  0.00    +0.000 C 
ATOM     16  O   UNL     1       1.039   9.690  18.931  0.00  0.00    +0.000 OA
ATOM     17  H   UNL     1       1.612   7.708  21.374  0.00  0.00    +0.000 HD
BRANCH  15  18
ATOM     18  C   UNL     1       0.247   9.867  21.127  0.00  0.00    +0.000 A 
ATOM     19  C   UNL     1      -0.615  10.946  20.896  0.00  0.00    +0.000 A 
ATOM     20  C   UNL     1      -1.346  11.481  21.957  0.00  0.00    +0.000 A 
ATOM     21  C   UNL     1      -1.195  10.917  23.215  0.00  0.00    +0.000 A 
ATOM     22  N   UNL     1      -0.380   9.871  23.471  0.00  0.00    +0.000 NA
ATOM     23  C   UNL     1       0.314   9.362  22.420  0.00  0.00    +0.000 A 
ENDBRANCH  15  18
ENDBRANCH   3  14
TORSDOF 4
ENDMDL
MODEL 2
REMARK VINA RESULT:      -7.5      0.632      1.224
REMARK  Name = 
REMARK  6 active torsions:
REMARK  status: ('A' for Active; 'I' for Inactive)
REMARK    1  A    between atoms: C_1  and  C_2
REMARK    2  A    between atoms: C_2  and  C_13
REMARK    3  A    between atoms: N_3  and  N_4
REMARK    4  A    between atoms: C_5  and  C_7
REMARK    5  A    between atoms: C_16  and  C_17
REMARK    6  A    between atoms: C_18  and  N_19
REMARK                            x       y       z     vdW  Elec       q    Type
REMARK                         _______ _______ _______ _____ _____    ______ ____
ROOT
ATOM      1  C   UNL     1       1.865   5.225  20.439  0.00  0.00    +0.000 C 
ATOM      2  C   UNL     1       2.614   6.152  19.498  0.00  0.00    +0.000 C 
ATOM      3  N   UNL     1       2.552   7.452  19.524  0.00  0.00    +0.000 NA
ENDROOT
BRANCH   2   4
ATOM      4  C   UNL     1       3.504   5.498  18.464  0.00  0.00    +0.000 A 
ATOM      5  C   UNL     1       2.971   4.554  17.582  0.00  0.00    +0.000 A 
ATOM      6  C   UNL     1       3.784   3.934  16.623  0.00  0.00    +0.000 A 
ATOM      7  C   UNL     1       5.155   4.235  16.510  0.00  0.00    +0.000 A 
ATOM      8  C   UNL     1       5.947   3.511  15.454  0.00  0.00    +0.000 C 
ATOM      9  C   UNL     1       5.690   5.191  17.397  0.00  0.00    +0.000 A 
ATOM     10  C   UNL     1       4.865   5.812  18.362  0.00  0.00    +0.000 A 
BRANCH   9  11
ATOM     11  N   UNL     1       7.115   5.598  17.376  0.00  0.00    +0.000 N 
ATOM     12  O   UNL     1       7.884   5.140  18.228  0.00  0.00    +0.000 OA
ATOM     13  O   UNL     1       7.467   6.390  16.488  0.00  0.00    +0.000 OA
ENDBRANCH   9  11
ENDBRANCH   2   4
BRANCH   3  14
ATOM     14  N   UNL     1       1.757   8.094  20.427  0.00  0.00    +0.000 N 
ATOM     15  C   UNL     1       1.053   9.229  20.053  0.00  0.00    +0.000 C 
ATOM     16  O   UNL     1       1.054   9.732  18.934  0.00  0.00    +0.000 OA
ATOM     17  H   UNL     1       1.570   7.670  21.323  0.00  0.00    +0.000 HD
BRANCH  15  18
ATOM     18  C   UNL     1       0.216   9.840  21.119  0.00  0.00    +0.000 A 
ATOM     19  C   UNL     1       0.129   9.334  22.421  0.00  0.00    +0.000 A 
ATOM     20  C   UNL     1      -0.679   9.980  23.356  0.00  0.00    +0.000 A 
ATOM     21  C   UNL     1      -1.372  11.115  22.960  0.00  0.00    +0.000 A 
ATOM     22  N   UNL     1      -1.303  11.635  21.717  0.00  0.00    +0.000 NA
ATOM     23  C   UNL     1      -0.502  10.993  20.826  0.00  0.00    +0.000 A 
ENDBRANCH  15  18
ENDBRANCH   3  14
TORSDOF 4
ENDMDL
MODEL 3
REMARK VINA RESULT:      -7.5      2.993      3.546
REMARK  Name = 
REMARK  6 active torsions:
REMARK  status: ('A' for Active; 'I' for Inactive)
REMARK    1  A    between atoms: C_1  and  C_2
REMARK    2  A    between atoms: C_2  and  C_13
REMARK    3  A    between atoms: N_3  and  N_4
REMARK    4  A    between atoms: C_5  and  C_7
REMARK    5  A    between atoms: C_16  and  C_17
REMARK    6  A    between atoms: C_18  and  N_19
REMARK                            x       y       z     vdW  Elec       q    Type
REMARK                         _______ _______ _______ _____ _____    ______ ____
ROOT
ATOM      1  C   UNL     1       2.438   8.229  18.390  0.00  0.00    +0.000 C 
ATOM      2  C   UNL     1       2.111   7.248  19.503  0.00  0.00    +0.000 C 
ATOM      3  N   UNL     1       1.558   7.565  20.638  0.00  0.00    +0.000 NA
ENDROOT
BRANCH   2   4
ATOM      4  C   UNL     1       2.450   5.796  19.252  0.00  0.00    +0.000 A 
ATOM      5  C   UNL     1       2.716   5.356  17.952  0.00  0.00    +0.000 A 
ATOM      6  C   UNL     1       3.024   4.012  17.702  0.00  0.00    +0.000 A 
ATOM      7  C   UNL     1       3.080   3.061  18.739  0.00  0.00    +0.000 A 
ATOM      8  C   UNL     1       3.412   1.639  18.370  0.00  0.00    +0.000 C 
ATOM      9  C   UNL     1       2.816   3.507  20.050  0.00  0.00    +0.000 A 
ATOM     10  C   UNL     1       2.505   4.864  20.295  0.00  0.00    +0.000 A 
BRANCH   9  11
ATOM     11  N   UNL     1       2.847   2.606  21.227  0.00  0.00    +0.000 N 
ATOM     12  O   UNL     1       1.817   2.446  21.891  0.00  0.00    +0.000 OA
ATOM     13  O   UNL     1       3.925   2.049  21.488  0.00  0.00    +0.000 OA
ENDBRANCH   9  11
ENDBRANCH   2   4
BRANCH   3  14
ATOM     14  N   UNL     1       1.242   8.861  20.922  0.00  0.00    +0.000 N 
ATOM     15  C   UNL     1       0.097   9.155  21.648  0.00  0.00    +0.000 C 
ATOM     16  O   UNL     1      -0.691   8.332  22.102  0.00  0.00    +0.000 OA
ATOM     17  H   UNL     1       1.906   9.594  20.727  0.00  0.00    +0.000 HD
BRANCH  15  18
ATOM     18  C   UNL     1      -0.143  10.600  21.901  0.00  0.00    +0.000 A 
ATOM     19  C   UNL     1      -1.094  11.080  22.809  0.00  0.00    +0.000 A 
ATOM     20  C   UNL     1      -1.244  12.456  22.983  0.00  0.00    +0.000 A 
ATOM     21  C   UNL     1      -0.435  13.308  22.245  0.00  0.00    +0.000 A 
ATOM     22  N   UNL     1       0.497  12.879  21.369  0.00  0.00    +0.000 NA
ATOM     23  C   UNL     1       0.631  11.535  21.224  0.00  0.00    +0.000 A 
ENDBRANCH  15  18
ENDBRANCH   3  14
TORSDOF 4
ENDMDL
MODEL 4
REMARK VINA RESULT:      -7.4      0.973      1.127
REMARK  Name = 
REMARK  6 active torsions:
REMARK  status: ('A' for Active; 'I' for Inactive)
REMARK    1  A    between atoms: C_1  and  C_2
REMARK    2  A    between atoms: C_2  and  C_13
REMARK    3  A    between atoms: N_3  and  N_4
REMARK    4  A    between atoms: C_5  and  C_7
REMARK    5  A    between atoms: C_16  and  C_17
REMARK    6  A    between atoms: C_18  and  N_19
REMARK                            x       y       z     vdW  Elec       q    Type
REMARK                         _______ _______ _______ _____ _____    ______ ____
ROOT
ATOM      1  C   UNL     1       1.636   5.470  20.711  0.00  0.00    +0.000 C 
ATOM      2  C   UNL     1       2.321   6.326  19.661  0.00  0.00    +0.000 C 
ATOM      3  N   UNL     1       2.235   7.624  19.583  0.00  0.00    +0.000 NA
ENDROOT
BRANCH   2   4
ATOM      4  C   UNL     1       3.172   5.602  18.641  0.00  0.00    +0.000 A 
ATOM      5  C   UNL     1       3.098   4.212  18.533  0.00  0.00    +0.000 A 
ATOM      6  C   UNL     1       3.885   3.525  17.598  0.00  0.00    +0.000 A 
ATOM      7  C   UNL     1       4.772   4.202  16.740  0.00  0.00    +0.000 A 
ATOM      8  C   UNL     1       5.582   3.377  15.774  0.00  0.00    +0.000 C 
ATOM      9  C   UNL     1       4.843   5.606  16.847  0.00  0.00    +0.000 A 
ATOM     10  C   UNL     1       4.046   6.292  17.792  0.00  0.00    +0.000 A 
BRANCH   9  11
ATOM     11  N   UNL     1       5.732   6.434  15.998  0.00  0.00    +0.000 N 
ATOM     12  O   UNL     1       5.287   6.919  14.952  0.00  0.00    +0.000 OA
ATOM     13  O   UNL     1       6.898   6.600  16.390  0.00  0.00    +0.000 OA
ENDBRANCH   9  11
ENDBRANCH   2   4
BRANCH   3  14
ATOM     14  N   UNL     1       1.473   8.326  20.469  0.00  0.00    +0.000 N 
ATOM     15  C   UNL     1       0.811   9.475  20.061  0.00  0.00    +0.000 C 
ATOM     16  O   UNL     1       0.824   9.939  18.926  0.00  0.00    +0.000 OA
ATOM     17  H   UNL     1       1.277   7.940  21.380  0.00  0.00    +0.000 HD
BRANCH  15  18
ATOM     18  C   UNL     1       0.008  10.154  21.110  0.00  0.00    +0.000 A 
ATOM     19  C   UNL     1      -0.771  11.293  20.874  0.00  0.00    +0.000 A 
ATOM     20  C   UNL     1      -1.497  11.858  21.922  0.00  0.00    +0.000 A 
ATOM     21  C   UNL     1      -1.424  11.264  23.173  0.00  0.00    +0.000 A 
ATOM     22  N   UNL     1      -0.691  10.162  23.434  0.00  0.00    +0.000 NA
ATOM     23  C   UNL     1       0.000   9.624  22.394  0.00  0.00    +0.000 A 
ENDBRANCH  15  18
ENDBRANCH   3  14
TORSDOF 4
ENDMDL
MODEL 5
REMARK VINA RESULT:      -7.4      1.173      1.536
REMARK  Name = 
REMARK  6 active torsions:
REMARK  status: ('A' for Active; 'I' for Inactive)
REMARK    1  A    between atoms: C_1  and  C_2
REMARK    2  A    between atoms: C_2  and  C_13
REMARK    3  A    between atoms: N_3  and  N_4
REMARK    4  A    between atoms: C_5  and  C_7
REMARK    5  A    between atoms: C_16  and  C_17
REMARK    6  A    between atoms: C_18  and  N_19
REMARK                            x       y       z     vdW  Elec       q    Type
REMARK                         _______ _______ _______ _____ _____    ______ ____
ROOT
ATOM      1  C   UNL     1       1.683   5.378  20.633  0.00  0.00    +0.000 C 
ATOM      2  C   UNL     1       2.365   6.255  19.597  0.00  0.00    +0.000 C 
ATOM      3  N   UNL     1       2.276   7.553  19.542  0.00  0.00    +0.000 NA
ENDROOT
BRANCH   2   4
ATOM      4  C   UNL     1       3.217   5.550  18.565  0.00  0.00    +0.000 A 
ATOM      5  C   UNL     1       3.173   4.158  18.457  0.00  0.00    +0.000 A 
ATOM      6  C   UNL     1       3.962   3.489  17.510  0.00  0.00    +0.000 A 
ATOM      7  C   UNL     1       4.821   4.187  16.639  0.00  0.00    +0.000 A 
ATOM      8  C   UNL     1       5.634   3.381  15.662  0.00  0.00    +0.000 C 
ATOM      9  C   UNL     1       4.860   5.592  16.745  0.00  0.00    +0.000 A 
ATOM     10  C   UNL     1       4.063   6.260  17.703  0.00  0.00    +0.000 A 
BRANCH   9  11
ATOM     11  N   UNL     1       5.718   6.440  15.884  0.00  0.00    +0.000 N 
ATOM     12  O   UNL     1       5.236   6.943  14.863  0.00  0.00    +0.000 OA
ATOM     13  O   UNL     1       6.896   6.603  16.239  0.00  0.00    +0.000 OA
ENDBRANCH   9  11
ENDBRANCH   2   4
BRANCH   3  14
ATOM     14  N   UNL     1       1.513   8.238  20.440  0.00  0.00    +0.000 N 
ATOM     15  C   UNL     1       0.809   9.364  20.039  0.00  0.00    +0.000 C 
ATOM     16  O   UNL     1       0.783   9.822  18.902  0.00  0.00    +0.000 OA
ATOM     17  H   UNL     1       1.348   7.852  21.357  0.00  0.00    +0.000 HD
BRANCH  15  18
ATOM     18  C   UNL     1       0.008  10.027  21.102  0.00  0.00    +0.000 A 
ATOM     19  C   UNL     1      -0.201   9.475  22.371  0.00  0.00    +0.000 A 
ATOM     20  C   UNL     1      -0.964  10.174  23.307  0.00  0.00    +0.000 A 
ATOM     21  C   UNL     1      -1.490  11.405  22.944  0.00  0.00    +0.000 A 
ATOM     22  N   UNL     1      -1.301  11.970  21.733  0.00  0.00    +0.000 NA
ATOM     23  C   UNL     1      -0.546  11.274  20.842  0.00  0.00    +0.000 A 
ENDBRANCH  15  18
ENDBRANCH   3  14
TORSDOF 4
ENDMDL
MODEL 6
REMARK VINA RESULT:      -7.2      3.129      3.689
REMARK  Name = 
REMARK  6 active torsions:
REMARK  status: ('A' for Active; 'I' for Inactive)
REMARK    1  A    between atoms: C_1  and  C_2
REMARK    2  A    between atoms: C_2  and  C_13
REMARK    3  A    between atoms: N_3  and  N_4
REMARK    4  A    between atoms: C_5  and  C_7
REMARK    5  A    between atoms: C_16  and  C_17
REMARK    6  A    between atoms: C_18  and  N_19
REMARK                            x       y       z     vdW  Elec       q    Type
REMARK                         _______ _______ _______ _____ _____    ______ ____
ROOT
ATOM      1  C   UNL     1       2.401   8.603  17.955  0.00  0.00    +0.000 C 
ATOM      2  C   UNL     1       2.163   7.563  19.036  0.00  0.00    +0.000 C 
ATOM      3  N   UNL     1       1.673   7.812  20.217  0.00  0.00    +0.000 NA
ENDROOT
BRANCH   2   4
ATOM      4  C   UNL     1       2.517   6.133  18.695  0.00  0.00    +0.000 A 
ATOM      5  C   UNL     1       3.599   5.864  17.853  0.00  0.00    +0.000 A 
ATOM      6  C   UNL     1       3.936   4.545  17.521  0.00  0.00    +0.000 A 
ATOM      7  C   UNL     1       3.207   3.448  18.019  0.00  0.00    +0.000 A 
ATOM      8  C   UNL     1       3.640   2.069  17.600  0.00  0.00    +0.000 C 
ATOM      9  C   UNL     1       2.118   3.720  18.873  0.00  0.00    +0.000 A 
ATOM     10  C   UNL     1       1.783   5.053  19.203  0.00  0.00    +0.000 A 
BRANCH   9  11
ATOM     11  N   UNL     1       1.276   2.655  19.465  0.00  0.00    +0.000 N 
ATOM     12  O   UNL     1       1.528   2.251  20.606  0.00  0.00    +0.000 OA
ATOM     13  O   UNL     1       0.343   2.217  18.773  0.00  0.00    +0.000 OA
ENDBRANCH   9  11
ENDBRANCH   2   4
BRANCH   3  14
ATOM     14  N   UNL     1       1.347   9.085  20.582  0.00  0.00    +0.000 N 
ATOM     15  C   UNL     1       0.237   9.318  21.382  0.00  0.00    +0.000 C 
ATOM     16  O   UNL     1      -0.508   8.456  21.834  0.00  0.00    +0.000 OA
ATOM     17  H   UNL     1       1.985   9.842  20.389  0.00  0.00    +0.000 HD
BRANCH  15  18
ATOM     18  C   UNL     1      -0.017  10.743  21.719  0.00  0.00    +0.000 A 
ATOM     19  C   UNL     1      -1.006  11.162  22.616  0.00  0.00    +0.000 A 
ATOM     20  C   UNL     1      -1.168  12.523  22.874  0.00  0.00    +0.000 A 
ATOM     21  C   UNL     1      -0.332  13.422  22.228  0.00  0.00    +0.000 A 
ATOM     22  N   UNL     1       0.638  13.052  21.365  0.00  0.00    +0.000 NA
ATOM     23  C   UNL     1       0.781  11.720  21.137  0.00  0.00    +0.000 A 
ENDBRANCH  15  18
ENDBRANCH   3  14
TORSDOF 4
ENDMDL
MODEL 7
REMARK VINA RESULT:      -7.1      3.083      3.569
REMARK  Name = 
REMARK  6 active torsions:
REMARK  status: ('A' for Active; 'I' for Inactive)
REMARK    1  A    between atoms: C_1  and  C_2
REMARK    2  A    between atoms: C_2  and  C_13
REMARK    3  A    between atoms: N_3  and  N_4
REMARK    4  A    between atoms: C_5  and  C_7
REMARK    5  A    between atoms: C_16  and  C_17
REMARK    6  A    between atoms: C_18  and  N_19
REMARK                            x       y       z     vdW  Elec       q    Type
REMARK                         _______ _______ _______ _____ _____    ______ ____
ROOT
ATOM      1  C   UNL     1       2.246   8.536  17.975  0.00  0.00    +0.000 C 
ATOM      2  C   UNL     1       2.131   7.508  19.086  0.00  0.00    +0.000 C 
ATOM      3  N   UNL     1       1.730   7.762  20.299  0.00  0.00    +0.000 NA
ENDROOT
BRANCH   2   4
ATOM      4  C   UNL     1       2.503   6.084  18.737  0.00  0.00    +0.000 A 
ATOM      5  C   UNL     1       3.601   5.833  17.911  0.00  0.00    +0.000 A 
ATOM      6  C   UNL     1       3.955   4.519  17.572  0.00  0.00    +0.000 A 
ATOM      7  C   UNL     1       3.226   3.412  18.047  0.00  0.00    +0.000 A 
ATOM      8  C   UNL     1       3.678   2.040  17.622  0.00  0.00    +0.000 C 
ATOM      9  C   UNL     1       2.120   3.667  18.885  0.00  0.00    +0.000 A 
ATOM     10  C   UNL     1       1.769   4.994  19.221  0.00  0.00    +0.000 A 
BRANCH   9  11
ATOM     11  N   UNL     1       1.277   2.589  19.452  0.00  0.00    +0.000 N 
ATOM     12  O   UNL     1       0.342   2.139  18.780  0.00  0.00    +0.000 OA
ATOM     13  O   UNL     1       1.558   2.187  20.592  0.00  0.00    +0.000 OA
ENDBRANCH   9  11
ENDBRANCH   2   4
BRANCH   3  14
ATOM     14  N   UNL     1       1.393   9.029  20.671  0.00  0.00    +0.000 N 
ATOM     15  C   UNL     1       0.209   9.263  21.355  0.00  0.00    +0.000 C 
ATOM     16  O   UNL     1      -0.599   8.405  21.696  0.00  0.00    +0.000 OA
ATOM     17  H   UNL     1       2.064   9.776  20.574  0.00  0.00    +0.000 HD
BRANCH  15  18
ATOM     18  C   UNL     1      -0.051  10.682  21.713  0.00  0.00    +0.000 A 
ATOM     19  C   UNL     1       0.462  11.768  20.994  0.00  0.00    +0.000 A 
ATOM     20  C   UNL     1       0.158  13.067  21.403  0.00  0.00    +0.000 A 
ATOM     21  C   UNL     1      -0.652  13.238  22.516  0.00  0.00    +0.000 A 
ATOM     22  N   UNL     1      -1.170  12.213  23.226  0.00  0.00    +0.000 NA
ATOM     23  C   UNL     1      -0.867  10.958  22.803  0.00  0.00    +0.000 A 
ENDBRANCH  15  18
ENDBRANCH   3  14
TORSDOF 4
ENDMDL
MODEL 8
REMARK VINA RESULT:      -7.1      1.773      2.304
REMARK  Name = 
REMARK  6 active torsions:
REMARK  status: ('A' for Active; 'I' for Inactive)
REMARK    1  A    between atoms: C_1  and  C_2
REMARK    2  A    between atoms: C_2  and  C_13
REMARK    3  A    between atoms: N_3  and  N_4
REMARK    4  A    between atoms: C_5  and  C_7
REMARK    5  A    between atoms: C_16  and  C_17
REMARK    6  A    between atoms: C_18  and  N_19
REMARK                            x       y       z     vdW  Elec       q    Type
REMARK                         _______ _______ _______ _____ _____    ______ ____
ROOT
ATOM      1  C   UNL     1       2.356   8.563  18.123  0.00  0.00    +0.000 C 
ATOM      2  C   UNL     1       2.201   7.483  19.179  0.00  0.00    +0.000 C 
ATOM      3  N   UNL     1       1.717   7.670  20.374  0.00  0.00    +0.000 NA
ENDROOT
BRANCH   2   4
ATOM      4  C   UNL     1       2.638   6.087  18.794  0.00  0.00    +0.000 A 
ATOM      5  C   UNL     1       1.706   5.046  18.771  0.00  0.00    +0.000 A 
ATOM      6  C   UNL     1       2.096   3.745  18.423  0.00  0.00    +0.000 A 
ATOM      7  C   UNL     1       3.428   3.439  18.087  0.00  0.00    +0.000 A 
ATOM      8  C   UNL     1       3.752   2.011  17.735  0.00  0.00    +0.000 C 
ATOM      9  C   UNL     1       4.367   4.491  18.106  0.00  0.00    +0.000 A 
ATOM     10  C   UNL     1       3.967   5.800  18.458  0.00  0.00    +0.000 A 
BRANCH   9  11
ATOM     11  N   UNL     1       5.797   4.299  17.767  0.00  0.00    +0.000 N 
ATOM     12  O   UNL     1       6.631   4.257  18.678  0.00  0.00    +0.000 OA
ATOM     13  O   UNL     1       6.086   4.187  16.566  0.00  0.00    +0.000 OA
ENDBRANCH   9  11
ENDBRANCH   2   4
BRANCH   3  14
ATOM     14  N   UNL     1       1.319   8.910  20.778  0.00  0.00    +0.000 N 
ATOM     15  C   UNL     1       0.129   9.067  21.474  0.00  0.00    +0.000 C 
ATOM     16  O   UNL     1      -0.633   8.162  21.797  0.00  0.00    +0.000 OA
ATOM     17  H   UNL     1       1.950   9.692  20.696  0.00  0.00    +0.000 HD
BRANCH  15  18
ATOM     18  C   UNL     1      -0.200  10.463  21.866  0.00  0.00    +0.000 A 
ATOM     19  C   UNL     1      -1.154  10.790  22.837  0.00  0.00    +0.000 A 
ATOM     20  C   UNL     1      -1.391  12.130  23.143  0.00  0.00    +0.000 A 
ATOM     21  C   UNL     1      -0.663  13.100  22.471  0.00  0.00    +0.000 A 
ATOM     22  N   UNL     1       0.270  12.820  21.536  0.00  0.00    +0.000 NA
ATOM     23  C   UNL     1       0.489  11.507  21.262  0.00  0.00    +0.000 A 
ENDBRANCH  15  18
ENDBRANCH   3  14
TORSDOF 4
ENDMDL
MODEL 9
REMARK VINA RESULT:      -7.1      3.050      3.645
REMARK  Name = 
REMARK  6 active torsions:
REMARK  status: ('A' for Active; 'I' for Inactive)
REMARK    1  A    between atoms: C_1  and  C_2
REMARK    2  A    between atoms: C_2  and  C_13
REMARK    3  A    between atoms: N_3  and  N_4
REMARK    4  A    between atoms: C_5  and  C_7
REMARK    5  A    between atoms: C_16  and  C_17
REMARK    6  A    between atoms: C_18  and  N_19
REMARK                            x       y       z     vdW  Elec       q    Type
REMARK                         _______ _______ _______ _____ _____    ______ ____
ROOT
ATOM      1  C   UNL     1       2.429   8.359  18.272  0.00  0.00    +0.000 C 
ATOM      2  C   UNL     1       2.097   7.435  19.430  0.00  0.00    +0.000 C 
ATOM      3  N   UNL     1       1.540   7.807  20.547  0.00  0.00    +0.000 NA
ENDROOT
BRANCH   2   4
ATOM      4  C   UNL     1       2.436   5.972  19.252  0.00  0.00    +0.000 A 
ATOM      5  C   UNL     1       2.926   5.514  18.026  0.00  0.00    +0.000 A 
ATOM      6  C   UNL     1       3.238   4.159  17.842  0.00  0.00    +0.000 A 
ATOM      7  C   UNL     1       3.073   3.216  18.875  0.00  0.00    +0.000 A 
ATOM      8  C   UNL     1       3.428   1.783  18.580  0.00  0.00    +0.000 C 
ATOM      9  C   UNL     1       2.584   3.681  20.113  0.00  0.00    +0.000 A 
ATOM     10  C   UNL     1       2.270   5.048  20.291  0.00  0.00    +0.000 A 
BRANCH   9  11
ATOM     11  N   UNL     1       2.371   2.790  21.278  0.00  0.00    +0.000 N 
ATOM     12  O   UNL     1       1.217   2.530  21.635  0.00  0.00    +0.000 OA
ATOM     13  O   UNL     1       3.382   2.344  21.845  0.00  0.00    +0.000 OA
ENDBRANCH   9  11
ENDBRANCH   2   4
BRANCH   3  14
ATOM     14  N   UNL     1       1.224   9.115  20.766  0.00  0.00    +0.000 N 
ATOM     15  C   UNL     1       0.178   9.446  21.616  0.00  0.00    +0.000 C 
ATOM     16  O   UNL     1      -0.515   8.648  22.238  0.00  0.00    +0.000 OA
ATOM     17  H   UNL     1       1.832   9.843  20.424  0.00  0.00    +0.000 HD
BRANCH  15  18
ATOM     18  C   UNL     1      -0.072  10.902  21.781  0.00  0.00    +0.000 A 
ATOM     19  C   UNL     1       0.545  11.887  21.001  0.00  0.00    +0.000 A 
ATOM     20  C   UNL     1       0.243  13.230  21.227  0.00  0.00    +0.000 A 
ATOM     21  C   UNL     1      -0.670  13.545  22.223  0.00  0.00    +0.000 A 
ATOM     22  N   UNL     1      -1.289  12.620  22.986  0.00  0.00    +0.000 NA
ATOM     23  C   UNL     1      -0.985  11.319  22.742  0.00  0.00    +0.000 A 
ENDBRANCH  15  18
ENDBRANCH   3  14
TORSDOF 4
ENDMDL
