MODEL 1
REMARK VINA RESULT:      -8.3      0.000      0.000
REMARK  Name = 
REMARK  9 active torsions:
REMARK  status: ('A' for Active; 'I' for Inactive)
REMARK    1  A    between atoms: C_1  and  O_2
REMARK    2  A    between atoms: O_2  and  C_3
REMARK    3  A    between atoms: C_6  and  N_7
REMARK    4  A    between atoms: C_9  and  C_10
REMARK    5  A    between atoms: C_12  and  C_13
REMARK    6  A    between atoms: C_16  and  N_17
REMARK    7  A    between atoms: N_17  and  S_18
REMARK    8  A    between atoms: S_18  and  C_21
REMARK    9  A    between atoms: C_24  and  C_25
REMARK                            x       y       z     vdW  Elec       q    Type
REMARK                         _______ _______ _______ _____ _____    ______ ____
ROOT
ATOM      1  C   UNL     1      -1.812  11.100  18.809  0.00  0.00    +0.000 A 
ATOM      2  C   UNL     1      -3.084  11.662  18.674  0.00  0.00    +0.000 A 
ATOM      3  C   UNL     1      -3.642  12.407  19.709  0.00  0.00    +0.000 A 
ATOM      4  C   UNL     1      -2.949  12.643  20.897  0.00  0.00    +0.000 A 
ATOM      5  C   UNL     1      -1.652  12.121  21.003  0.00  0.00    +0.000 A 
ATOM      6  C   UNL     1      -1.083  11.354  19.982  0.00  0.00    +0.000 A 
ENDROOT
BRANCH   4   7
ATOM      7  N   UNL     1      -3.534  13.329  21.932  0.00  0.00    +0.000 N 
ATOM      8  C   UNL     1      -4.976  13.266  22.189  0.00  0.00    +0.000 C 
ATOM      9  C   UNL     1      -5.209  12.997  23.700  0.00  0.00    +0.000 C 
ATOM     10  C   UNL     1      -6.705  12.979  24.008  0.00  0.00    +0.000 C 
ATOM     11  N   UNL     1      -4.536  13.990  24.572  0.00  0.00    +0.000 NA
ATOM     12  C   UNL     1      -3.088  14.038  24.251  0.00  0.00    +0.000 C 
ATOM     13  C   UNL     1      -2.428  15.121  25.102  0.00  0.00    +0.000 C 
ATOM     14  C   UNL     1      -2.805  14.303  22.747  0.00  0.00    +0.000 C 
ATOM     15  H   UNL     1      -4.650  13.711  25.545  0.00  0.00    +0.000 HD
ENDBRANCH   4   7
BRANCH   1  17
ATOM     16  C   UNL     1      -2.114  10.018  16.736  0.00  0.00    +0.000 C 
ATOM     17  O   UNL     1      -1.245  10.323  17.830  0.00  0.00    +0.000 OA
ENDBRANCH   1  17
BRANCH   6  18
ATOM     18  N   UNL     1       0.254  10.908  20.178  0.00  0.00    +0.000 N 
ATOM     19  H   UNL     1       1.016  11.345  19.669  0.00  0.00    +0.000 HD
BRANCH  18  20
ATOM     20  S   UNL     1       0.604   9.554  21.094  0.00  0.00    +0.000 S 
ATOM     21  O   UNL     1       1.595   9.954  22.072  0.00  0.00    +0.000 OA
ATOM     22  O   UNL     1      -0.630   8.908  21.504  0.00  0.00    +0.000 OA
BRANCH  20  23
ATOM     23  C   UNL     1       1.423   8.513  19.919  0.00  0.00    +0.000 A 
ATOM     24  C   UNL     1       1.834   7.244  20.327  0.00  0.00    +0.000 A 
ATOM     25  C   UNL     1       2.646   6.484  19.485  0.00  0.00    +0.000 A 
ATOM     26  C   UNL     1       3.040   6.966  18.221  0.00  0.00    +0.000 A 
ATOM     27  C   UNL     1       2.529   8.213  17.807  0.00  0.00    +0.000 A 
ATOM     28  C   UNL     1       1.725   8.988  18.646  0.00  0.00    +0.000 A 
BRANCH  26  29
ATOM     29  C   UNL     1       3.999   6.223  17.389  0.00  0.00    +0.000 A 
ATOM     30  C   UNL     1       4.111   4.842  17.392  0.00  0.00    +0.000 A 
ATOM     31  N   UNL     1       4.996   4.138  16.650  0.00  0.00    +0.000 NA
ATOM     32  C   UNL     1       5.805   4.864  15.868  0.00  0.00    +0.000 A 
ATOM     33  N   UNL     1       5.817   6.199  15.776  0.00  0.00    +0.000 NA
ATOM     34  C   UNL     1       4.912   6.842  16.545  0.00  0.00    +0.000 A 
ENDBRANCH  26  29
ENDBRANCH  20  23
ENDBRANCH  18  20
ENDBRANCH   6  18
TORSDOF 6
ENDMDL
MODEL 2
REMARK VINA RESULT:      -8.3      2.442      4.172
REMARK  Name = 
REMARK  9 active torsions:
REMARK  status: ('A' for Active; 'I' for Inactive)
REMARK    1  A    between atoms: C_1  and  O_2
REMARK    2  A    between atoms: O_2  and  C_3
REMARK    3  A    between atoms: C_6  and  N_7
REMARK    4  A    between atoms: C_9  and  C_10
REMARK    5  A    between atoms: C_12  and  C_13
REMARK    6  A    between atoms: C_16  and  N_17
REMARK    7  A    between atoms: N_17  and  S_18
REMARK    8  A    between atoms: S_18  and  C_21
REMARK    9  A    between atoms: C_24  and  C_25
REMARK                            x       y       z     vdW  Elec       q    Type
REMARK                         _______ _______ _______ _____ _____    ______ ____
ROOT
ATOM      1  C   UNL     1      -0.243  13.050  21.062  0.00  0.00    +0.000 A 
ATOM      2  C   UNL     1      -1.432  13.752  20.846  0.00  0.00    +0.000 A 
ATOM      3  C   UNL     1      -2.421  13.230  20.018  0.00  0.00    +0.000 A 
ATOM      4  C   UNL     1      -2.279  11.986  19.401  0.00  0.00    +0.000 A 
ATOM      5  C   UNL     1      -1.107  11.264  19.667  0.00  0.00    +0.000 A 
ATOM      6  C   UNL     1      -0.093  11.781  20.480  0.00  0.00    +0.000 A 
ENDROOT
BRANCH   4   7
ATOM      7  N   UNL     1      -3.236  11.510  18.541  0.00  0.00    +0.000 N 
ATOM      8  C   UNL     1      -4.667  11.729  18.772  0.00  0.00    +0.000 C 
ATOM      9  C   UNL     1      -5.321  12.234  17.457  0.00  0.00    +0.000 C 
ATOM     10  C   UNL     1      -6.823  12.421  17.653  0.00  0.00    +0.000 C 
ATOM     11  N   UNL     1      -5.080  11.325  16.310  0.00  0.00    +0.000 NA
ATOM     12  C   UNL     1      -3.621  11.112  16.138  0.00  0.00    +0.000 C 
ATOM     13  C   UNL     1      -3.398  10.113  15.005  0.00  0.00    +0.000 C 
ATOM     14  C   UNL     1      -2.923  10.608  17.430  0.00  0.00    +0.000 C 
ATOM     15  H   UNL     1      -5.453  11.752  15.463  0.00  0.00    +0.000 HD
ENDBRANCH   4   7
BRANCH   1  17
ATOM     16  C   UNL     1       0.580  14.897  22.275  0.00  0.00    +0.000 C 
ATOM     17  O   UNL     1       0.774  13.550  21.836  0.00  0.00    +0.000 OA
ENDBRANCH   1  17
BRANCH   6  18
ATOM     18  N   UNL     1       1.036  10.946  20.715  0.00  0.00    +0.000 N 
ATOM     19  H   UNL     1       1.950  11.219  20.368  0.00  0.00    +0.000 HD
BRANCH  18  20
ATOM     20  S   UNL     1       0.879   9.428  21.395  0.00  0.00    +0.000 S 
ATOM     21  O   UNL     1       1.774   9.384  22.533  0.00  0.00    +0.000 OA
ATOM     22  O   UNL     1      -0.528   9.099  21.539  0.00  0.00    +0.000 OA
BRANCH  20  23
ATOM     23  C   UNL     1       1.577   8.387  20.144  0.00  0.00    +0.000 A 
ATOM     24  C   UNL     1       2.039   7.123  20.511  0.00  0.00    +0.000 A 
ATOM     25  C   UNL     1       2.763   6.365  19.590  0.00  0.00    +0.000 A 
ATOM     26  C   UNL     1       3.016   6.845  18.290  0.00  0.00    +0.000 A 
ATOM     27  C   UNL     1       2.454   8.087  17.927  0.00  0.00    +0.000 A 
ATOM     28  C   UNL     1       1.739   8.858  18.844  0.00  0.00    +0.000 A 
BRANCH  26  29
ATOM     29  C   UNL     1       3.887   6.105  17.362  0.00  0.00    +0.000 A 
ATOM     30  C   UNL     1       3.904   4.724  17.260  0.00  0.00    +0.000 A 
ATOM     31  N   UNL     1       4.707   4.020  16.429  0.00  0.00    +0.000 NA
ATOM     32  C   UNL     1       5.533   4.749  15.666  0.00  0.00    +0.000 A 
ATOM     33  N   UNL     1       5.633   6.083  15.671  0.00  0.00    +0.000 NA
ATOM     34  C   UNL     1       4.806   6.725  16.526  0.00  0.00    +0.000 A 
ENDBRANCH  26  29
ENDBRANCH  20  23
ENDBRANCH  18  20
ENDBRANCH   6  18
TORSDOF 6
ENDMDL
MODEL 3
REMARK VINA RESULT:      -8.2      4.682      7.604
REMARK  Name = 
REMARK  9 active torsions:
REMARK  status: ('A' for Active; 'I' for Inactive)
REMARK    1  A    between atoms: C_1  and  O_2
REMARK    2  A    between atoms: O_2  and  C_3
REMARK    3  A    between atoms: C_6  and  N_7
REMARK    4  A    between atoms: C_9  and  C_10
REMARK    5  A    between atoms: C_12  and  C_13
REMARK    6  A    between atoms: C_16  and  N_17
REMARK    7  A    between atoms: N_17  and  S_18
REMARK    8  A    between atoms: S_18  and  C_21
REMARK    9  A    between atoms: C_24  and  C_25
REMARK                            x       y       z     vdW  Elec       q    Type
REMARK                         _______ _______ _______ _____ _____    ______ ____
ROOT
ATOM      1  C   UNL     1       2.879   4.208  19.117  0.00  0.00    +0.000 A 
ATOM      2  C   UNL     1       1.831   4.367  20.027  0.00  0.00    +0.000 A 
ATOM      3  C   UNL     1       1.407   5.639  20.403  0.00  0.00    +0.000 A 
ATOM      4  C   UNL     1       1.985   6.791  19.870  0.00  0.00    +0.000 A 
ATOM      5  C   UNL     1       3.000   6.622  18.916  0.00  0.00    +0.000 A 
ATOM      6  C   UNL     1       3.452   5.353  18.541  0.00  0.00    +0.000 A 
ENDROOT
BRANCH   4   7
ATOM      7  N   UNL     1       1.599   8.037  20.293  0.00  0.00    +0.000 N 
ATOM      8  C   UNL     1       1.528   9.181  19.378  0.00  0.00    +0.000 C 
ATOM      9  C   UNL     1       0.171   9.908  19.580  0.00  0.00    +0.000 C 
ATOM     10  C   UNL     1       0.090  11.136  18.676  0.00  0.00    +0.000 C 
ATOM     11  N   UNL     1      -0.061  10.312  20.988  0.00  0.00    +0.000 NA
ATOM     12  C   UNL     1       0.052   9.127  21.874  0.00  0.00    +0.000 C 
ATOM     13  C   UNL     1      -0.110   9.577  23.324  0.00  0.00    +0.000 C 
ATOM     14  C   UNL     1       1.395   8.366  21.705  0.00  0.00    +0.000 C 
ATOM     15  H   UNL     1      -1.000  10.700  21.073  0.00  0.00    +0.000 HD
ENDBRANCH   4   7
BRANCH   1  17
ATOM     16  C   UNL     1       2.387   1.922  18.814  0.00  0.00    +0.000 C 
ATOM     17  O   UNL     1       3.355   2.973  18.754  0.00  0.00    +0.000 OA
ENDBRANCH   1  17
BRANCH   6  18
ATOM     18  N   UNL     1       4.458   5.297  17.535  0.00  0.00    +0.000 N 
ATOM     19  H   UNL     1       4.221   5.493  16.568  0.00  0.00    +0.000 HD
BRANCH  18  20
ATOM     20  S   UNL     1       5.999   4.740  17.864  0.00  0.00    +0.000 S 
ATOM     21  O   UNL     1       5.976   4.215  19.214  0.00  0.00    +0.000 OA
ATOM     22  O   UNL     1       6.474   3.930  16.756  0.00  0.00    +0.000 OA
BRANCH  20  23
ATOM     23  C   UNL     1       6.935   6.242  17.907  0.00  0.00    +0.000 A 
ATOM     24  C   UNL     1       7.960   6.362  18.846  0.00  0.00    +0.000 A 
ATOM     25  C   UNL     1       8.581   7.598  19.028  0.00  0.00    +0.000 A 
ATOM     26  C   UNL     1       8.206   8.722  18.265  0.00  0.00    +0.000 A 
ATOM     27  C   UNL     1       7.230   8.538  17.263  0.00  0.00    +0.000 A 
ATOM     28  C   UNL     1       6.594   7.309  17.080  0.00  0.00    +0.000 A 
BRANCH  26  29
ATOM     29  C   UNL     1       8.767  10.052  18.545  0.00  0.00    +0.000 A 
ATOM     30  C   UNL     1       8.558  11.160  17.739  0.00  0.00    +0.000 A 
ATOM     31  N   UNL     1       9.077  12.388  17.964  0.00  0.00    +0.000 NA
ATOM     32  C   UNL     1       9.844  12.502  19.057  0.00  0.00    +0.000 A 
ATOM     33  N   UNL     1      10.141  11.518  19.913  0.00  0.00    +0.000 NA
ATOM     34  C   UNL     1       9.595  10.316  19.629  0.00  0.00    +0.000 A 
ENDBRANCH  26  29
ENDBRANCH  20  23
ENDBRANCH  18  20
ENDBRANCH   6  18
TORSDOF 6
ENDMDL
MODEL 4
REMARK VINA RESULT:      -8.1      0.698      1.837
REMARK  Name = 
REMARK  9 active torsions:
REMARK  status: ('A' for Active; 'I' for Inactive)
REMARK    1  A    between atoms: C_1  and  O_2
REMARK    2  A    between atoms: O_2  and  C_3
REMARK    3  A    between atoms: C_6  and  N_7
REMARK    4  A    between atoms: C_9  and  C_10
REMARK    5  A    between atoms: C_12  and  C_13
REMARK    6  A    between atoms: C_16  and  N_17
REMARK    7  A    between atoms: N_17  and  S_18
REMARK    8  A    between atoms: S_18  and  C_21
REMARK    9  A    between atoms: C_24  and  C_25
REMARK                            x       y       z     vdW  Elec       q    Type
REMARK                         _______ _______ _______ _____ _____    ______ ____
ROOT
ATOM      1  C   UNL     1      -1.324  11.490  19.227  0.00  0.00    +0.000 A 
ATOM      2  C   UNL     1      -2.512  12.223  19.162  0.00  0.00    +0.000 A 
ATOM      3  C   UNL     1      -3.085  12.745  20.318  0.00  0.00    +0.000 A 
ATOM      4  C   UNL     1      -2.487  12.585  21.568  0.00  0.00    +0.000 A 
ATOM      5  C   UNL     1      -1.267  11.895  21.617  0.00  0.00    +0.000 A 
ATOM      6  C   UNL     1      -0.687  11.345  20.470  0.00  0.00    +0.000 A 
ENDROOT
BRANCH   4   7
ATOM      7  N   UNL     1      -3.092  13.054  22.707  0.00  0.00    +0.000 N 
ATOM      8  C   UNL     1      -2.319  13.555  23.848  0.00  0.00    +0.000 C 
ATOM      9  C   UNL     1      -2.913  14.915  24.303  0.00  0.00    +0.000 C 
ATOM     10  C   UNL     1      -2.160  15.437  25.525  0.00  0.00    +0.000 C 
ATOM     11  N   UNL     1      -4.361  14.836  24.610  0.00  0.00    +0.000 NA
ATOM     12  C   UNL     1      -5.093  14.296  23.438  0.00  0.00    +0.000 C 
ATOM     13  C   UNL     1      -6.569  14.148  23.801  0.00  0.00    +0.000 C 
ATOM     14  C   UNL     1      -4.532  12.934  22.944  0.00  0.00    +0.000 C 
ATOM     15  H   UNL     1      -4.710  15.772  24.815  0.00  0.00    +0.000 HD
ENDBRANCH   4   7
BRANCH   1  17
ATOM     16  C   UNL     1      -1.539   9.901  17.497  0.00  0.00    +0.000 C 
ATOM     17  O   UNL     1      -0.751  10.921  18.117  0.00  0.00    +0.000 OA
ENDBRANCH   1  17
BRANCH   6  18
ATOM     18  N   UNL     1       0.572  10.701  20.627  0.00  0.00    +0.000 N 
ATOM     19  H   UNL     1       1.402  11.092  20.194  0.00  0.00    +0.000 HD
BRANCH  18  20
ATOM     20  S   UNL     1       0.707   9.205  21.362  0.00  0.00    +0.000 S 
ATOM     21  O   UNL     1       1.634   9.362  22.464  0.00  0.00    +0.000 OA
ATOM     22  O   UNL     1      -0.614   8.642  21.573  0.00  0.00    +0.000 OA
BRANCH  20  23
ATOM     23  C   UNL     1       1.534   8.255  20.119  0.00  0.00    +0.000 A 
ATOM     24  C   UNL     1       1.975   6.972  20.444  0.00  0.00    +0.000 A 
ATOM     25  C   UNL     1       2.792   6.281  19.550  0.00  0.00    +0.000 A 
ATOM     26  C   UNL     1       3.163   6.847  18.314  0.00  0.00    +0.000 A 
ATOM     27  C   UNL     1       2.622   8.107  17.981  0.00  0.00    +0.000 A 
ATOM     28  C   UNL     1       1.813   8.812  18.874  0.00  0.00    +0.000 A 
BRANCH  26  29
ATOM     29  C   UNL     1       4.127   6.176  17.428  0.00  0.00    +0.000 A 
ATOM     30  C   UNL     1       5.216   6.813  16.854  0.00  0.00    +0.000 A 
ATOM     31  N   UNL     1       6.105   6.224  16.023  0.00  0.00    +0.000 NA
ATOM     32  C   UNL     1       5.884   4.929  15.761  0.00  0.00    +0.000 A 
ATOM     33  N   UNL     1       4.870   4.195  16.232  0.00  0.00    +0.000 NA
ATOM     34  C   UNL     1       4.015   4.844  17.053  0.00  0.00    +0.000 A 
ENDBRANCH  26  29
ENDBRANCH  20  23
ENDBRANCH  18  20
ENDBRANCH   6  18
TORSDOF 6
ENDMDL
MODEL 5
REMARK VINA RESULT:      -8.0      1.761      2.506
REMARK  Name = 
REMARK  9 active torsions:
REMARK  status: ('A' for Active; 'I' for Inactive)
REMARK    1  A    between atoms: C_1  and  O_2
REMARK    2  A    between atoms: O_2  and  C_3
REMARK    3  A    between atoms: C_6  and  N_7
REMARK    4  A    between atoms: C_9  and  C_10
REMARK    5  A    between atoms: C_12  and  C_13
REMARK    6  A    between atoms: C_16  and  N_17
REMARK    7  A    between atoms: N_17  and  S_18
REMARK    8  A    between atoms: S_18  and  C_21
REMARK    9  A    between atoms: C_24  and  C_25
REMARK                            x       y       z     vdW  Elec       q    Type
REMARK                         _______ _______ _______ _____ _____    ______ ____
ROOT
ATOM      1  C   UNL     1       0.797  12.627  20.845  0.00  0.00    +0.000 A 
ATOM      2  C   UNL     1       0.773  13.873  21.478  0.00  0.00    +0.000 A 
ATOM      3  C   UNL     1      -0.240  14.190  22.378  0.00  0.00    +0.000 A 
ATOM      4  C   UNL     1      -1.243  13.276  22.703  0.00  0.00    +0.000 A 
ATOM      5  C   UNL     1      -1.182  12.009  22.105  0.00  0.00    +0.000 A 
ATOM      6  C   UNL     1      -0.183  11.680  21.183  0.00  0.00    +0.000 A 
ENDROOT
BRANCH   4   7
ATOM      7  N   UNL     1      -2.269  13.622  23.546  0.00  0.00    +0.000 N 
ATOM      8  C   UNL     1      -2.208  14.816  24.395  0.00  0.00    +0.000 C 
ATOM      9  C   UNL     1      -3.537  15.607  24.253  0.00  0.00    +0.000 C 
ATOM     10  C   UNL     1      -3.523  16.830  25.166  0.00  0.00    +0.000 C 
ATOM     11  N   UNL     1      -4.732  14.780  24.549  0.00  0.00    +0.000 NA
ATOM     12  C   UNL     1      -4.730  13.571  23.688  0.00  0.00    +0.000 C 
ATOM     13  C   UNL     1      -5.923  12.695  24.063  0.00  0.00    +0.000 C 
ATOM     14  C   UNL     1      -3.417  12.749  23.796  0.00  0.00    +0.000 C 
ATOM     15  H   UNL     1      -5.571  15.325  24.352  0.00  0.00    +0.000 HD
ENDBRANCH   4   7
BRANCH   1  17
ATOM     16  C   UNL     1       1.541  12.848  18.619  0.00  0.00    +0.000 C 
ATOM     17  O   UNL     1       1.753  12.292  19.920  0.00  0.00    +0.000 OA
ENDBRANCH   1  17
BRANCH   6  18
ATOM     18  N   UNL     1      -0.191  10.353  20.668  0.00  0.00    +0.000 N 
ATOM     19  H   UNL     1      -0.698  10.142  19.814  0.00  0.00    +0.000 HD
BRANCH  18  20
ATOM     20  S   UNL     1       0.464   9.075  21.523  0.00  0.00    +0.000 S 
ATOM     21  O   UNL     1       1.483   9.629  22.390  0.00  0.00    +0.000 OA
ATOM     22  O   UNL     1      -0.602   8.246  22.058  0.00  0.00    +0.000 OA
BRANCH  20  23
ATOM     23  C   UNL     1       1.300   8.169  20.252  0.00  0.00    +0.000 A 
ATOM     24  C   UNL     1       1.722   6.868  20.529  0.00  0.00    +0.000 A 
ATOM     25  C   UNL     1       2.546   6.207  19.618  0.00  0.00    +0.000 A 
ATOM     26  C   UNL     1       2.942   6.821  18.413  0.00  0.00    +0.000 A 
ATOM     27  C   UNL     1       2.420   8.100  18.127  0.00  0.00    +0.000 A 
ATOM     28  C   UNL     1       1.604   8.775  19.037  0.00  0.00    +0.000 A 
BRANCH  26  29
ATOM     29  C   UNL     1       3.913   6.178  17.514  0.00  0.00    +0.000 A 
ATOM     30  C   UNL     1       4.038   4.805  17.374  0.00  0.00    +0.000 A 
ATOM     31  N   UNL     1       4.934   4.190  16.569  0.00  0.00    +0.000 NA
ATOM     32  C   UNL     1       5.741   5.001  15.872  0.00  0.00    +0.000 A 
ATOM     33  N   UNL     1       5.740   6.338  15.920  0.00  0.00    +0.000 NA
ATOM     34  C   UNL     1       4.824   6.890  16.746  0.00  0.00    +0.000 A 
ENDBRANCH  26  29
ENDBRANCH  20  23
ENDBRANCH  18  20
ENDBRANCH   6  18
TORSDOF 6
ENDMDL
MODEL 6
REMARK VINA RESULT:      -8.0      4.990      8.154
REMARK  Name = 
REMARK  9 active torsions:
REMARK  status: ('A' for Active; 'I' for Inactive)
REMARK    1  A    between atoms: C_1  and  O_2
REMARK    2  A    between atoms: O_2  and  C_3
REMARK    3  A    between atoms: C_6  and  N_7
REMARK    4  A    between atoms: C_9  and  C_10
REMARK    5  A    between atoms: C_12  and  C_13
REMARK    6  A    between atoms: C_16  and  N_17
REMARK    7  A    between atoms: N_17  and  S_18
REMARK    8  A    between atoms: S_18  and  C_21
REMARK    9  A    between atoms: C_24  and  C_25
REMARK                            x       y       z     vdW  Elec       q    Type
REMARK                         _______ _______ _______ _____ _____    ______ ____
ROOT
ATOM      1  C   UNL     1       3.384   4.265  17.830  0.00  0.00    +0.000 A 
ATOM      2  C   UNL     1       2.238   4.319  18.628  0.00  0.00    +0.000 A 
ATOM      3  C   UNL     1       1.795   5.531  19.149  0.00  0.00    +0.000 A 
ATOM      4  C   UNL     1       2.454   6.730  18.875  0.00  0.00    +0.000 A 
ATOM      5  C   UNL     1       3.571   6.675  18.030  0.00  0.00    +0.000 A 
ATOM      6  C   UNL     1       4.043   5.464  17.513  0.00  0.00    +0.000 A 
ENDROOT
BRANCH   4   7
ATOM      7  N   UNL     1       2.042   7.909  19.443  0.00  0.00    +0.000 N 
ATOM      8  C   UNL     1       2.004   9.165  18.686  0.00  0.00    +0.000 C 
ATOM      9  C   UNL     1       0.635   9.858  18.924  0.00  0.00    +0.000 C 
ATOM     10  C   UNL     1       0.586  11.195  18.189  0.00  0.00    +0.000 C 
ATOM     11  N   UNL     1       0.341  10.071  20.362  0.00  0.00    +0.000 NA
ATOM     12  C   UNL     1       0.423   8.779  21.086  0.00  0.00    +0.000 C 
ATOM     13  C   UNL     1       0.195   9.032  22.575  0.00  0.00    +0.000 C 
ATOM     14  C   UNL     1       1.776   8.047  20.876  0.00  0.00    +0.000 C 
ATOM     15  H   UNL     1      -0.603  10.444  20.457  0.00  0.00    +0.000 HD
ENDBRANCH   4   7
BRANCH   1  17
ATOM     16  C   UNL     1       3.284   1.910  17.894  0.00  0.00    +0.000 C 
ATOM     17  O   UNL     1       3.877   3.084  17.334  0.00  0.00    +0.000 OA
ENDBRANCH   1  17
BRANCH   6  18
ATOM     18  N   UNL     1       5.160   5.527  16.633  0.00  0.00    +0.000 N 
ATOM     19  H   UNL     1       5.019   5.714  15.645  0.00  0.00    +0.000 HD
BRANCH  18  20
ATOM     20  S   UNL     1       6.701   5.125  17.140  0.00  0.00    +0.000 S 
ATOM     21  O   UNL     1       6.551   4.224  18.263  0.00  0.00    +0.000 OA
ATOM     22  O   UNL     1       7.514   4.760  15.993  0.00  0.00    +0.000 OA
BRANCH  20  23
ATOM     23  C   UNL     1       7.293   6.665  17.784  0.00  0.00    +0.000 A 
ATOM     24  C   UNL     1       6.959   7.840  17.111  0.00  0.00    +0.000 A 
ATOM     25  C   UNL     1       7.568   9.039  17.484  0.00  0.00    +0.000 A 
ATOM     26  C   UNL     1       8.496   9.087  18.542  0.00  0.00    +0.000 A 
ATOM     27  C   UNL     1       8.737   7.896  19.258  0.00  0.00    +0.000 A 
ATOM     28  C   UNL     1       8.143   6.688  18.885  0.00  0.00    +0.000 A 
BRANCH  26  29
ATOM     29  C   UNL     1       9.234  10.322  18.852  0.00  0.00    +0.000 A 
ATOM     30  C   UNL     1       9.803  11.140  17.889  0.00  0.00    +0.000 A 
ATOM     31  N   UNL     1      10.500  12.269  18.148  0.00  0.00    +0.000 NA
ATOM     32  C   UNL     1      10.628  12.587  19.444  0.00  0.00    +0.000 A 
ATOM     33  N   UNL     1      10.144  11.885  20.475  0.00  0.00    +0.000 NA
ATOM     34  C   UNL     1       9.461  10.767  20.148  0.00  0.00    +0.000 A 
ENDBRANCH  26  29
ENDBRANCH  20  23
ENDBRANCH  18  20
ENDBRANCH   6  18
TORSDOF 6
ENDMDL
MODEL 7
REMARK VINA RESULT:      -7.9      1.288      1.703
REMARK  Name = 
REMARK  9 active torsions:
REMARK  status: ('A' for Active; 'I' for Inactive)
REMARK    1  A    between atoms: C_1  and  O_2
REMARK    2  A    between atoms: O_2  and  C_3
REMARK    3  A    between atoms: C_6  and  N_7
REMARK    4  A    between atoms: C_9  and  C_10
REMARK    5  A    between atoms: C_12  and  C_13
REMARK    6  A    between atoms: C_16  and  N_17
REMARK    7  A    between atoms: N_17  and  S_18
REMARK    8  A    between atoms: S_18  and  C_21
REMARK    9  A    between atoms: C_24  and  C_25
REMARK                            x       y       z     vdW  Elec       q    Type
REMARK                         _______ _______ _______ _____ _____    ______ ____
ROOT
ATOM      1  C   UNL     1      -2.808  11.158  18.226  0.00  0.00    +0.000 A 
ATOM      2  C   UNL     1      -4.133  11.591  18.312  0.00  0.00    +0.000 A 
ATOM      3  C   UNL     1      -4.565  12.337  19.405  0.00  0.00    +0.000 A 
ATOM      4  C   UNL     1      -3.693  12.704  20.431  0.00  0.00    +0.000 A 
ATOM      5  C   UNL     1      -2.353  12.311  20.311  0.00  0.00    +0.000 A 
ATOM      6  C   UNL     1      -1.905  11.544  19.230  0.00  0.00    +0.000 A 
ENDROOT
BRANCH   4   7
ATOM      7  N   UNL     1      -4.144  13.389  21.531  0.00  0.00    +0.000 N 
ATOM      8  C   UNL     1      -5.572  13.499  21.846  0.00  0.00    +0.000 C 
ATOM      9  C   UNL     1      -5.786  13.162  23.347  0.00  0.00    +0.000 C 
ATOM     10  C   UNL     1      -7.259  13.319  23.718  0.00  0.00    +0.000 C 
ATOM     11  N   UNL     1      -4.956  13.997  24.248  0.00  0.00    +0.000 NA
ATOM     12  C   UNL     1      -3.527  13.875  23.868  0.00  0.00    +0.000 C 
ATOM     13  C   UNL     1      -2.699  14.803  24.755  0.00  0.00    +0.000 C 
ATOM     14  C   UNL     1      -3.264  14.202  22.373  0.00  0.00    +0.000 C 
ATOM     15  H   UNL     1      -5.072  13.670  25.206  0.00  0.00    +0.000 HD
ENDBRANCH   4   7
BRANCH   1  17
ATOM     16  C   UNL     1      -2.738  10.846  15.890  0.00  0.00    +0.000 C 
ATOM     17  O   UNL     1      -2.355  10.383  17.188  0.00  0.00    +0.000 OA
ENDBRANCH   1  17
BRANCH   6  18
ATOM     18  N   UNL     1      -0.516  11.236  19.187  0.00  0.00    +0.000 N 
ATOM     19  H   UNL     1      -0.026  11.222  18.298  0.00  0.00    +0.000 HD
BRANCH  18  20
ATOM     20  S   UNL     1       0.311  10.716  20.543  0.00  0.00    +0.000 S 
ATOM     21  O   UNL     1       1.297  11.731  20.848  0.00  0.00    +0.000 OA
ATOM     22  O   UNL     1      -0.634  10.266  21.550  0.00  0.00    +0.000 OA
BRANCH  20  23
ATOM     23  C   UNL     1       1.188   9.308  19.925  0.00  0.00    +0.000 A 
ATOM     24  C   UNL     1       1.482   9.252  18.562  0.00  0.00    +0.000 A 
ATOM     25  C   UNL     1       1.997   8.074  18.020  0.00  0.00    +0.000 A 
ATOM     26  C   UNL     1       2.247   6.948  18.829  0.00  0.00    +0.000 A 
ATOM     27  C   UNL     1       2.025   7.074  20.216  0.00  0.00    +0.000 A 
ATOM     28  C   UNL     1       1.498   8.244  20.767  0.00  0.00    +0.000 A 
BRANCH  26  29
ATOM     29  C   UNL     1       2.668   5.667  18.240  0.00  0.00    +0.000 A 
ATOM     30  C   UNL     1       1.786   4.733  17.720  0.00  0.00    +0.000 A 
ATOM     31  N   UNL     1       2.145   3.542  17.190  0.00  0.00    +0.000 NA
ATOM     32  C   UNL     1       3.459   3.282  17.186  0.00  0.00    +0.000 A 
ATOM     33  N   UNL     1       4.419   4.082  17.665  0.00  0.00    +0.000 NA
ATOM     34  C   UNL     1       3.993   5.255  18.184  0.00  0.00    +0.000 A 
ENDBRANCH  26  29
ENDBRANCH  20  23
ENDBRANCH  18  20
ENDBRANCH   6  18
TORSDOF 6
ENDMDL
MODEL 8
REMARK VINA RESULT:      -7.9      4.839      7.872
REMARK  Name = 
REMARK  9 active torsions:
REMARK  status: ('A' for Active; 'I' for Inactive)
REMARK    1  A    between atoms: C_1  and  O_2
REMARK    2  A    between atoms: O_2  and  C_3
REMARK    3  A    between atoms: C_6  and  N_7
REMARK    4  A    between atoms: C_9  and  C_10
REMARK    5  A    between atoms: C_12  and  C_13
REMARK    6  A    between atoms: C_16  and  N_17
REMARK    7  A    between atoms: N_17  and  S_18
REMARK    8  A    between atoms: S_18  and  C_21
REMARK    9  A    between atoms: C_24  and  C_25
REMARK                            x       y       z     vdW  Elec       q    Type
REMARK                         _______ _______ _______ _____ _____    ______ ____
ROOT
ATOM      1  C   UNL     1       3.054   4.241  18.104  0.00  0.00    +0.000 A 
ATOM      2  C   UNL     1       1.875   4.340  18.847  0.00  0.00    +0.000 A 
ATOM      3  C   UNL     1       1.469   5.564  19.370  0.00  0.00    +0.000 A 
ATOM      4  C   UNL     1       2.199   6.733  19.151  0.00  0.00    +0.000 A 
ATOM      5  C   UNL     1       3.352   6.635  18.359  0.00  0.00    +0.000 A 
ATOM      6  C   UNL     1       3.786   5.410  17.841  0.00  0.00    +0.000 A 
ENDROOT
BRANCH   4   7
ATOM      7  N   UNL     1       1.820   7.921  19.721  0.00  0.00    +0.000 N 
ATOM      8  C   UNL     1       1.801   9.176  18.963  0.00  0.00    +0.000 C 
ATOM      9  C   UNL     1       0.450   9.899  19.216  0.00  0.00    +0.000 C 
ATOM     10  C   UNL     1       0.421  11.236  18.479  0.00  0.00    +0.000 C 
ATOM     11  N   UNL     1       0.178  10.121  20.657  0.00  0.00    +0.000 NA
ATOM     12  C   UNL     1       0.241   8.829  21.383  0.00  0.00    +0.000 C 
ATOM     13  C   UNL     1       0.038   9.089  22.874  0.00  0.00    +0.000 C 
ATOM     14  C   UNL     1       1.575   8.067  21.158  0.00  0.00    +0.000 C 
ATOM     15  H   UNL     1      -0.756  10.515  20.763  0.00  0.00    +0.000 HD
ENDBRANCH   4   7
BRANCH   1  17
ATOM     16  C   UNL     1       2.827   1.894  18.110  0.00  0.00    +0.000 C 
ATOM     17  O   UNL     1       3.510   3.046  17.608  0.00  0.00    +0.000 OA
ENDBRANCH   1  17
BRANCH   6  18
ATOM     18  N   UNL     1       4.946   5.431  17.017  0.00  0.00    +0.000 N 
ATOM     19  H   UNL     1       4.867   5.674  16.034  0.00  0.00    +0.000 HD
BRANCH  18  20
ATOM     20  S   UNL     1       6.428   4.892  17.571  0.00  0.00    +0.000 S 
ATOM     21  O   UNL     1       6.203   4.322  18.883  0.00  0.00    +0.000 OA
ATOM     22  O   UNL     1       7.092   4.129  16.530  0.00  0.00    +0.000 OA
BRANCH  20  23
ATOM     23  C   UNL     1       7.309   6.409  17.807  0.00  0.00    +0.000 A 
ATOM     24  C   UNL     1       8.160   6.521  18.907  0.00  0.00    +0.000 A 
ATOM     25  C   UNL     1       8.714   7.762  19.222  0.00  0.00    +0.000 A 
ATOM     26  C   UNL     1       8.446   8.900  18.435  0.00  0.00    +0.000 A 
ATOM     27  C   UNL     1       7.656   8.728  17.279  0.00  0.00    +0.000 A 
ATOM     28  C   UNL     1       7.088   7.493  16.962  0.00  0.00    +0.000 A 
BRANCH  26  29
ATOM     29  C   UNL     1       8.923  10.233  18.838  0.00  0.00    +0.000 A 
ATOM     30  C   UNL     1       9.337  10.545  20.123  0.00  0.00    +0.000 A 
ATOM     31  N   UNL     1       9.762  11.765  20.522  0.00  0.00    +0.000 NA
ATOM     32  C   UNL     1       9.769  12.715  19.577  0.00  0.00    +0.000 A 
ATOM     33  N   UNL     1       9.384  12.559  18.305  0.00  0.00    +0.000 NA
ATOM     34  C   UNL     1       8.967  11.318  17.972  0.00  0.00    +0.000 A 
ENDBRANCH  26  29
ENDBRANCH  20  23
ENDBRANCH  18  20
ENDBRANCH   6  18
TORSDOF 6
ENDMDL
MODEL 9
REMARK VINA RESULT:      -7.8      2.243     10.236
REMARK  Name = 
REMARK  9 active torsions:
REMARK  status: ('A' for Active; 'I' for Inactive)
REMARK    1  A    between atoms: C_1  and  O_2
REMARK    2  A    between atoms: O_2  and  C_3
REMARK    3  A    between atoms: C_6  and  N_7
REMARK    4  A    between atoms: C_9  and  C_10
REMARK    5  A    between atoms: C_12  and  C_13
REMARK    6  A    between atoms: C_16  and  N_17
REMARK    7  A    between atoms: N_17  and  S_18
REMARK    8  A    between atoms: S_18  and  C_21
REMARK    9  A    between atoms: C_24  and  C_25
REMARK                            x       y       z     vdW  Elec       q    Type
REMARK                         _______ _______ _______ _____ _____    ______ ____
ROOT
ATOM      1  C   UNL     1       1.258  10.092  18.678  0.00  0.00    +0.000 A 
ATOM      2  C   UNL     1       2.179   9.451  17.846  0.00  0.00    +0.000 A 
ATOM      3  C   UNL     1       2.649   8.179  18.160  0.00  0.00    +0.000 A 
ATOM      4  C   UNL     1       2.201   7.490  19.288  0.00  0.00    +0.000 A 
ATOM      5  C   UNL     1       1.236   8.119  20.087  0.00  0.00    +0.000 A 
ATOM      6  C   UNL     1       0.767   9.404  19.799  0.00  0.00    +0.000 A 
ENDROOT
BRANCH   4   7
ATOM      7  N   UNL     1       2.716   6.262  19.617  0.00  0.00    +0.000 N 
ATOM      8  C   UNL     1       1.996   5.325  20.485  0.00  0.00    +0.000 C 
ATOM      9  C   UNL     1       2.005   3.918  19.828  0.00  0.00    +0.000 C 
ATOM     10  C   UNL     1       1.306   2.908  20.735  0.00  0.00    +0.000 C 
ATOM     11  N   UNL     1       3.373   3.439  19.514  0.00  0.00    +0.000 NA
ATOM     12  C   UNL     1       4.068   4.435  18.662  0.00  0.00    +0.000 C 
ATOM     13  C   UNL     1       5.499   3.961  18.416  0.00  0.00    +0.000 C 
ATOM     14  C   UNL     1       4.083   5.860  19.278  0.00  0.00    +0.000 C 
ATOM     15  H   UNL     1       3.309   2.557  19.007  0.00  0.00    +0.000 HD
ENDBRANCH   4   7
BRANCH   1  17
ATOM     16  C   UNL     1       1.832  12.351  18.320  0.00  0.00    +0.000 C 
ATOM     17  O   UNL     1       0.804  11.363  18.427  0.00  0.00    +0.000 OA
ENDBRANCH   1  17
BRANCH   6  18
ATOM     18  N   UNL     1      -0.242   9.931  20.654  0.00  0.00    +0.000 N 
ATOM     19  H   UNL     1      -1.222   9.793  20.428  0.00  0.00    +0.000 HD
BRANCH  18  20
ATOM     20  S   UNL     1       0.130  10.934  21.938  0.00  0.00    +0.000 S 
ATOM     21  O   UNL     1       0.289  10.086  23.101  0.00  0.00    +0.000 OA
ATOM     22  O   UNL     1       1.172  11.866  21.545  0.00  0.00    +0.000 OA
BRANCH  20  23
ATOM     23  C   UNL     1      -1.379  11.835  22.154  0.00  0.00    +0.000 A 
ATOM     24  C   UNL     1      -2.010  11.788  23.397  0.00  0.00    +0.000 A 
ATOM     25  C   UNL     1      -3.290  12.327  23.535  0.00  0.00    +0.000 A 
ATOM     26  C   UNL     1      -3.947  12.936  22.448  0.00  0.00    +0.000 A 
ATOM     27  C   UNL     1      -3.239  13.046  21.233  0.00  0.00    +0.000 A 
ATOM     28  C   UNL     1      -1.964  12.500  21.079  0.00  0.00    +0.000 A 
BRANCH  26  29
ATOM     29  C   UNL     1      -5.343  13.387  22.558  0.00  0.00    +0.000 A 
ATOM     30  C   UNL     1      -6.080  13.875  21.491  0.00  0.00    +0.000 A 
ATOM     31  N   UNL     1      -7.357  14.312  21.570  0.00  0.00    +0.000 NA
ATOM     32  C   UNL     1      -7.916  14.253  22.786  0.00  0.00    +0.000 A 
ATOM     33  N   UNL     1      -7.320  13.820  23.903  0.00  0.00    +0.000 NA
ATOM     34  C   UNL     1      -6.044  13.402  23.756  0.00  0.00    +0.000 A 
ENDBRANCH  26  29
ENDBRANCH  20  23
ENDBRANCH  18  20
ENDBRANCH   6  18
TORSDOF 6
ENDMDL
