MODEL 1
REMARK VINA RESULT:      -7.1      0.000      0.000
REMARK  Name = 
REMARK  14 active torsions:
REMARK  status: ('A' for Active; 'I' for Inactive)
REMARK    1  A    between atoms: C_1  and  O_2
REMARK    2  A    between atoms: O_2  and  C_3
REMARK    3  A    between atoms: C_6  and  N_7
REMARK    4  A    between atoms: C_9  and  C_10
REMARK    5  A    between atoms: C_12  and  O_13
REMARK    6  A    between atoms: O_13  and  C_14
REMARK    7  A    between atoms: C_15  and  O_16
REMARK    8  A    between atoms: O_16  and  C_17
REMARK    9  A    between atoms: C_18  and  O_19
REMARK   10  A    between atoms: O_19  and  C_20
REMARK   11  A    between atoms: C_22  and  C_23
REMARK   12  A    between atoms: C_26  and  O_27
REMARK   13  A    between atoms: O_27  and  C_28
REMARK   14  A    between atoms: C_32  and  N_33
REMARK                            x       y       z     vdW  Elec       q    Type
REMARK                         _______ _______ _______ _____ _____    ______ ____
ROOT
ATOM      1  N   UNL     1       1.046  10.487  19.577  0.00  0.00    +0.000 N 
ATOM      2  N   UNL     1       0.058  10.726  20.498  0.00  0.00    +0.000 NA
ATOM      3  C   UNL     1       0.003  12.069  20.606  0.00  0.00    +0.000 A 
ATOM      4  C   UNL     1       0.841  12.699  19.626  0.00  0.00    +0.000 A 
ATOM      5  C   UNL     1       1.459  11.667  18.950  0.00  0.00    +0.000 A 
ENDROOT
BRANCH   4   6
ATOM      6  C   UNL     1       0.956  14.097  19.213  0.00  0.00    +0.000 A 
ATOM      7  C   UNL     1       2.198  14.745  19.207  0.00  0.00    +0.000 A 
ATOM      8  C   UNL     1       2.304  16.082  18.819  0.00  0.00    +0.000 A 
ATOM      9  C   UNL     1       1.163  16.818  18.495  0.00  0.00    +0.000 A 
ATOM     10  C   UNL     1      -0.076  16.184  18.543  0.00  0.00    +0.000 A 
ATOM     11  F   UNL     1      -1.219  16.843  18.305  0.00  0.00    +0.000 F 
ATOM     12  C   UNL     1      -0.178  14.832  18.858  0.00  0.00    +0.000 A 
BRANCH   9  13
ATOM     13  O   UNL     1       1.413  18.118  18.156  0.00  0.00    +0.000 OA
ATOM     14  C   UNL     1       1.159  18.488  16.808  0.00  0.00    +0.000 C 
ENDBRANCH   9  13
ENDBRANCH   4   6
BRANCH   1  18
ATOM     15  C   UNL     1       2.697   6.692  18.660  0.00  0.00    +0.000 A 
ATOM     16  C   UNL     1       2.440   7.613  17.642  0.00  0.00    +0.000 A 
ATOM     17  C   UNL     1       1.823   8.848  17.910  0.00  0.00    +0.000 A 
ATOM     18  C   UNL     1       1.472   9.164  19.224  0.00  0.00    +0.000 A 
ATOM     19  C   UNL     1       1.635   8.190  20.223  0.00  0.00    +0.000 A 
ATOM     20  C   UNL     1       2.255   6.970  19.950  0.00  0.00    +0.000 A 
BRANCH  15  22
ATOM     21  C   UNL     1       2.619   4.325  18.464  0.00  0.00    +0.000 C 
ATOM     22  O   UNL     1       3.347   5.547  18.286  0.00  0.00    +0.000 OA
ENDBRANCH  15  22
ENDBRANCH   1  18
BRANCH   3  23
ATOM     23  C   UNL     1      -0.905  12.772  21.539  0.00  0.00    +0.000 A 
ATOM     24  C   UNL     1      -2.268  12.437  21.582  0.00  0.00    +0.000 A 
ATOM     25  C   UNL     1      -3.083  12.856  22.641  0.00  0.00    +0.000 A 
ATOM     26  C   UNL     1      -2.566  13.716  23.632  0.00  0.00    +0.000 A 
ATOM     27  C   UNL     1      -1.224  14.144  23.539  0.00  0.00    +0.000 A 
ATOM     28  C   UNL     1      -0.405  13.654  22.501  0.00  0.00    +0.000 A 
BRANCH  25  29
ATOM     29  O   UNL     1      -4.395  12.459  22.778  0.00  0.00    +0.000 OA
ATOM     30  C   UNL     1      -5.288  12.844  21.728  0.00  0.00    +0.000 C 
ENDBRANCH  25  29
BRANCH  26  31
ATOM     31  O   UNL     1      -3.472  14.108  24.593  0.00  0.00    +0.000 OA
ATOM     32  C   UNL     1      -4.110  15.371  24.439  0.00  0.00    +0.000 C 
ENDBRANCH  26  31
BRANCH  27  33
ATOM     33  O   UNL     1      -0.782  15.032  24.485  0.00  0.00    +0.000 OA
ATOM     34  C   UNL     1      -0.398  16.332  24.065  0.00  0.00    +0.000 C 
ENDBRANCH  27  33
ENDBRANCH   3  23
BRANCH   5  35
ATOM     35  N   UNL     1       2.235  11.706  17.822  0.00  0.00    +0.000 N 
ATOM     36  H   UNL     1       3.245  11.644  17.926  0.00  0.00    +0.000 HD
ATOM     37  H   UNL     1       1.998  12.367  17.084  0.00  0.00    +0.000 HD
ENDBRANCH   5  35
TORSDOF 9
ENDMDL
MODEL 2
REMARK VINA RESULT:      -6.8      2.950      5.137
REMARK  Name = 
REMARK  14 active torsions:
REMARK  status: ('A' for Active; 'I' for Inactive)
REMARK    1  A    between atoms: C_1  and  O_2
REMARK    2  A    between atoms: O_2  and  C_3
REMARK    3  A    between atoms: C_6  and  N_7
REMARK    4  A    between atoms: C_9  and  C_10
REMARK    5  A    between atoms: C_12  and  O_13
REMARK    6  A    between atoms: O_13  and  C_14
REMARK    7  A    between atoms: C_15  and  O_16
REMARK    8  A    between atoms: O_16  and  C_17
REMARK    9  A    between atoms: C_18  and  O_19
REMARK   10  A    between atoms: O_19  and  C_20
REMARK   11  A    between atoms: C_22  and  C_23
REMARK   12  A    between atoms: C_26  and  O_27
REMARK   13  A    between atoms: O_27  and  C_28
REMARK   14  A    between atoms: C_32  and  N_33
REMARK                            x       y       z     vdW  Elec       q    Type
REMARK                         _______ _______ _______ _____ _____    ______ ____
ROOT
ATOM      1  N   UNL     1       0.780   9.326  19.500  0.00  0.00    +0.000 N 
ATOM      2  N   UNL     1      -0.198   9.685  18.608  0.00  0.00    +0.000 NA
ATOM      3  C   UNL     1      -0.992  10.537  19.287  0.00  0.00    +0.000 A 
ATOM      4  C   UNL     1      -0.426  10.858  20.566  0.00  0.00    +0.000 A 
ATOM      5  C   UNL     1       0.730  10.110  20.657  0.00  0.00    +0.000 A 
ENDROOT
BRANCH   4   6
ATOM      6  C   UNL     1      -0.794  11.871  21.554  0.00  0.00    +0.000 A 
ATOM      7  C   UNL     1      -1.663  11.565  22.609  0.00  0.00    +0.000 A 
ATOM      8  C   UNL     1      -2.018  12.537  23.547  0.00  0.00    +0.000 A 
ATOM      9  C   UNL     1      -1.566  13.851  23.412  0.00  0.00    +0.000 A 
ATOM     10  C   UNL     1      -0.736  14.163  22.337  0.00  0.00    +0.000 A 
ATOM     11  F   UNL     1      -0.313  15.415  22.110  0.00  0.00    +0.000 F 
ATOM     12  C   UNL     1      -0.321  13.182  21.443  0.00  0.00    +0.000 A 
BRANCH   9  13
ATOM     13  O   UNL     1      -2.009  14.698  24.388  0.00  0.00    +0.000 OA
ATOM     14  C   UNL     1      -3.412  14.741  24.609  0.00  0.00    +0.000 C 
ENDBRANCH   9  13
ENDBRANCH   4   6
BRANCH   1  18
ATOM     15  C   UNL     1       3.511   6.310  18.313  0.00  0.00    +0.000 A 
ATOM     16  C   UNL     1       2.848   6.216  19.539  0.00  0.00    +0.000 A 
ATOM     17  C   UNL     1       1.995   7.241  19.990  0.00  0.00    +0.000 A 
ATOM     18  C   UNL     1       1.799   8.367  19.189  0.00  0.00    +0.000 A 
ATOM     19  C   UNL     1       2.551   8.502  18.010  0.00  0.00    +0.000 A 
ATOM     20  C   UNL     1       3.390   7.477  17.566  0.00  0.00    +0.000 A 
BRANCH  15  22
ATOM     21  C   UNL     1       5.318   4.872  18.872  0.00  0.00    +0.000 C 
ATOM     22  O   UNL     1       4.274   5.230  17.958  0.00  0.00    +0.000 OA
ENDBRANCH  15  22
ENDBRANCH   1  18
BRANCH   3  23
ATOM     23  C   UNL     1      -2.216  11.139  18.714  0.00  0.00    +0.000 A 
ATOM     24  C   UNL     1      -2.544  10.919  17.366  0.00  0.00    +0.000 A 
ATOM     25  C   UNL     1      -3.823  11.212  16.876  0.00  0.00    +0.000 A 
ATOM     26  C   UNL     1      -4.773  11.835  17.711  0.00  0.00    +0.000 A 
ATOM     27  C   UNL     1      -4.416  12.158  19.038  0.00  0.00    +0.000 A 
ATOM     28  C   UNL     1      -3.146  11.790  19.528  0.00  0.00    +0.000 A 
BRANCH  25  29
ATOM     29  O   UNL     1      -4.220  10.909  15.591  0.00  0.00    +0.000 OA
ATOM     30  C   UNL     1      -3.212  10.378  14.724  0.00  0.00    +0.000 C 
ENDBRANCH  25  29
BRANCH  26  31
ATOM     31  O   UNL     1      -5.977  12.127  17.107  0.00  0.00    +0.000 OA
ATOM     32  C   UNL     1      -6.335  13.496  16.949  0.00  0.00    +0.000 C 
ENDBRANCH  26  31
BRANCH  27  33
ATOM     33  O   UNL     1      -5.346  12.823  19.793  0.00  0.00    +0.000 OA
ATOM     34  C   UNL     1      -5.060  13.061  21.163  0.00  0.00    +0.000 C 
ENDBRANCH  27  33
ENDBRANCH   3  23
BRANCH   5  35
ATOM     35  N   UNL     1       1.724  10.156  21.598  0.00  0.00    +0.000 N 
ATOM     36  H   UNL     1       1.720   9.460  22.342  0.00  0.00    +0.000 HD
ATOM     37  H   UNL     1       2.014  11.060  21.965  0.00  0.00    +0.000 HD
ENDBRANCH   5  35
TORSDOF 9
ENDMDL
MODEL 3
REMARK VINA RESULT:      -6.8      0.978      2.439
REMARK  Name = 
REMARK  14 active torsions:
REMARK  status: ('A' for Active; 'I' for Inactive)
REMARK    1  A    between atoms: C_1  and  O_2
REMARK    2  A    between atoms: O_2  and  C_3
REMARK    3  A    between atoms: C_6  and  N_7
REMARK    4  A    between atoms: C_9  and  C_10
REMARK    5  A    between atoms: C_12  and  O_13
REMARK    6  A    between atoms: O_13  and  C_14
REMARK    7  A    between atoms: C_15  and  O_16
REMARK    8  A    between atoms: O_16  and  C_17
REMARK    9  A    between atoms: C_18  and  O_19
REMARK   10  A    between atoms: O_19  and  C_20
REMARK   11  A    between atoms: C_22  and  C_23
REMARK   12  A    between atoms: C_26  and  O_27
REMARK   13  A    between atoms: O_27  and  C_28
REMARK   14  A    between atoms: C_32  and  N_33
REMARK                            x       y       z     vdW  Elec       q    Type
REMARK                         _______ _______ _______ _____ _____    ______ ____
ROOT
ATOM      1  N   UNL     1       1.092  10.226  19.680  0.00  0.00    +0.000 N 
ATOM      2  N   UNL     1       0.112  10.339  20.632  0.00  0.00    +0.000 NA
ATOM      3  C   UNL     1      -0.041  11.666  20.817  0.00  0.00    +0.000 A 
ATOM      4  C   UNL     1       0.723  12.411  19.857  0.00  0.00    +0.000 A 
ATOM      5  C   UNL     1       1.400  11.467  19.111  0.00  0.00    +0.000 A 
ENDROOT
BRANCH   4   6
ATOM      6  C   UNL     1       0.723  13.834  19.522  0.00  0.00    +0.000 A 
ATOM      7  C   UNL     1      -0.410  14.442  18.965  0.00  0.00    +0.000 A 
ATOM      8  C   UNL     1      -0.404  15.800  18.640  0.00  0.00    +0.000 A 
ATOM      9  C   UNL     1       0.753  16.562  18.801  0.00  0.00    +0.000 A 
ATOM     10  C   UNL     1       1.892  15.946  19.316  0.00  0.00    +0.000 A 
ATOM     11  F   UNL     1       3.056  16.599  19.441  0.00  0.00    +0.000 F 
ATOM     12  C   UNL     1       1.869  14.612  19.709  0.00  0.00    +0.000 A 
BRANCH   9  13
ATOM     13  O   UNL     1       0.621  17.868  18.422  0.00  0.00    +0.000 OA
ATOM     14  C   UNL     1      -0.109  18.118  17.229  0.00  0.00    +0.000 C 
ENDBRANCH   9  13
ENDBRANCH   4   6
BRANCH   1  18
ATOM     15  C   UNL     1       2.984   6.598  18.577  0.00  0.00    +0.000 A 
ATOM     16  C   UNL     1       2.818   7.618  17.638  0.00  0.00    +0.000 A 
ATOM     17  C   UNL     1       2.126   8.801  17.957  0.00  0.00    +0.000 A 
ATOM     18  C   UNL     1       1.607   8.962  19.243  0.00  0.00    +0.000 A 
ATOM     19  C   UNL     1       1.686   7.888  20.146  0.00  0.00    +0.000 A 
ATOM     20  C   UNL     1       2.380   6.721  19.824  0.00  0.00    +0.000 A 
BRANCH  15  22
ATOM     21  C   UNL     1       4.634   4.978  19.128  0.00  0.00    +0.000 C 
ATOM     22  O   UNL     1       3.718   5.516  18.167  0.00  0.00    +0.000 OA
ENDBRANCH  15  22
ENDBRANCH   1  18
BRANCH   3  23
ATOM     23  C   UNL     1      -0.976  12.246  21.806  0.00  0.00    +0.000 A 
ATOM     24  C   UNL     1      -0.510  13.162  22.763  0.00  0.00    +0.000 A 
ATOM     25  C   UNL     1      -1.399  13.948  23.505  0.00  0.00    +0.000 A 
ATOM     26  C   UNL     1      -2.790  13.753  23.377  0.00  0.00    +0.000 A 
ATOM     27  C   UNL     1      -3.267  12.758  22.496  0.00  0.00    +0.000 A 
ATOM     28  C   UNL     1      -2.353  12.027  21.708  0.00  0.00    +0.000 A 
BRANCH  25  29
ATOM     29  O   UNL     1      -0.982  14.935  24.372  0.00  0.00    +0.000 OA
ATOM     30  C   UNL     1      -0.421  16.108  23.774  0.00  0.00    +0.000 C 
ENDBRANCH  25  29
BRANCH  26  31
ATOM     31  O   UNL     1      -3.567  14.542  24.197  0.00  0.00    +0.000 OA
ATOM     32  C   UNL     1      -4.221  15.668  23.621  0.00  0.00    +0.000 C 
ENDBRANCH  26  31
BRANCH  27  33
ATOM     33  O   UNL     1      -4.621  12.556  22.452  0.00  0.00    +0.000 OA
ATOM     34  C   UNL     1      -5.279  12.647  21.197  0.00  0.00    +0.000 C 
ENDBRANCH  27  33
ENDBRANCH   3  23
BRANCH   5  35
ATOM     35  N   UNL     1       2.143  11.627  17.972  0.00  0.00    +0.000 N 
ATOM     36  H   UNL     1       3.134  11.841  18.065  0.00  0.00    +0.000 HD
ATOM     37  H   UNL     1       1.744  12.148  17.193  0.00  0.00    +0.000 HD
ENDBRANCH   5  35
TORSDOF 9
ENDMDL
MODEL 4
REMARK VINA RESULT:      -6.7      3.170      5.249
REMARK  Name = 
REMARK  14 active torsions:
REMARK  status: ('A' for Active; 'I' for Inactive)
REMARK    1  A    between atoms: C_1  and  O_2
REMARK    2  A    between atoms: O_2  and  C_3
REMARK    3  A    between atoms: C_6  and  N_7
REMARK    4  A    between atoms: C_9  and  C_10
REMARK    5  A    between atoms: C_12  and  O_13
REMARK    6  A    between atoms: O_13  and  C_14
REMARK    7  A    between atoms: C_15  and  O_16
REMARK    8  A    between atoms: O_16  and  C_17
REMARK    9  A    between atoms: C_18  and  O_19
REMARK   10  A    between atoms: O_19  and  C_20
REMARK   11  A    between atoms: C_22  and  C_23
REMARK   12  A    between atoms: C_26  and  O_27
REMARK   13  A    between atoms: O_27  and  C_28
REMARK   14  A    between atoms: C_32  and  N_33
REMARK                            x       y       z     vdW  Elec       q    Type
REMARK                         _______ _______ _______ _____ _____    ______ ____
ROOT
ATOM      1  N   UNL     1       0.757   9.355  19.461  0.00  0.00    +0.000 N 
ATOM      2  N   UNL     1      -0.208   9.705  18.552  0.00  0.00    +0.000 NA
ATOM      3  C   UNL     1      -1.020  10.552  19.216  0.00  0.00    +0.000 A 
ATOM      4  C   UNL     1      -0.478  10.879  20.505  0.00  0.00    +0.000 A 
ATOM      5  C   UNL     1       0.681  10.140  20.617  0.00  0.00    +0.000 A 
ENDROOT
BRANCH   4   6
ATOM      6  C   UNL     1      -0.870  11.891  21.485  0.00  0.00    +0.000 A 
ATOM      7  C   UNL     1      -0.182  13.107  21.578  0.00  0.00    +0.000 A 
ATOM      8  C   UNL     1      -0.554  14.069  22.520  0.00  0.00    +0.000 A 
ATOM      9  C   UNL     1      -1.578  13.808  23.432  0.00  0.00    +0.000 A 
ATOM     10  C   UNL     1      -2.233  12.580  23.366  0.00  0.00    +0.000 A 
ATOM     11  F   UNL     1      -3.183  12.236  24.247  0.00  0.00    +0.000 F 
ATOM     12  C   UNL     1      -1.915  11.649  22.382  0.00  0.00    +0.000 A 
BRANCH   9  13
ATOM     13  O   UNL     1      -1.820  14.827  24.309  0.00  0.00    +0.000 OA
ATOM     14  C   UNL     1      -3.007  15.580  24.103  0.00  0.00    +0.000 C 
ENDBRANCH   9  13
ENDBRANCH   4   6
BRANCH   1  18
ATOM     15  C   UNL     1       3.528   6.355  18.328  0.00  0.00    +0.000 A 
ATOM     16  C   UNL     1       2.852   6.264  19.547  0.00  0.00    +0.000 A 
ATOM     17  C   UNL     1       1.986   7.284  19.981  0.00  0.00    +0.000 A 
ATOM     18  C   UNL     1       1.788   8.403  19.169  0.00  0.00    +0.000 A 
ATOM     19  C   UNL     1       2.553   8.535  17.998  0.00  0.00    +0.000 A 
ATOM     20  C   UNL     1       3.405   7.516  17.571  0.00  0.00    +0.000 A 
BRANCH  15  22
ATOM     21  C   UNL     1       3.636   4.211  17.309  0.00  0.00    +0.000 C 
ATOM     22  O   UNL     1       4.305   5.280  17.989  0.00  0.00    +0.000 OA
ENDBRANCH  15  22
ENDBRANCH   1  18
BRANCH   3  23
ATOM     23  C   UNL     1      -2.239  11.144  18.622  0.00  0.00    +0.000 A 
ATOM     24  C   UNL     1      -2.561  10.891  17.279  0.00  0.00    +0.000 A 
ATOM     25  C   UNL     1      -3.836  11.177  16.775  0.00  0.00    +0.000 A 
ATOM     26  C   UNL     1      -4.787  11.826  17.588  0.00  0.00    +0.000 A 
ATOM     27  C   UNL     1      -4.436  12.181  18.909  0.00  0.00    +0.000 A 
ATOM     28  C   UNL     1      -3.170  11.821  19.415  0.00  0.00    +0.000 A 
BRANCH  25  29
ATOM     29  O   UNL     1      -4.227  10.843  15.496  0.00  0.00    +0.000 OA
ATOM     30  C   UNL     1      -3.233  10.231  14.668  0.00  0.00    +0.000 C 
ENDBRANCH  25  29
BRANCH  26  31
ATOM     31  O   UNL     1      -5.987  12.107  16.971  0.00  0.00    +0.000 OA
ATOM     32  C   UNL     1      -6.427  13.461  16.944  0.00  0.00    +0.000 C 
ENDBRANCH  26  31
BRANCH  27  33
ATOM     33  O   UNL     1      -5.366  12.870  19.642  0.00  0.00    +0.000 OA
ATOM     34  C   UNL     1      -6.140  12.156  20.594  0.00  0.00    +0.000 C 
ENDBRANCH  27  33
ENDBRANCH   3  23
BRANCH   5  35
ATOM     35  N   UNL     1       1.659  10.194  21.574  0.00  0.00    +0.000 N 
ATOM     36  H   UNL     1       1.578   9.584  22.385  0.00  0.00    +0.000 HD
ATOM     37  H   UNL     1       2.026  11.102  21.854  0.00  0.00    +0.000 HD
ENDBRANCH   5  35
TORSDOF 9
ENDMDL
MODEL 5
REMARK VINA RESULT:      -6.7      0.870      1.440
REMARK  Name = 
REMARK  14 active torsions:
REMARK  status: ('A' for Active; 'I' for Inactive)
REMARK    1  A    between atoms: C_1  and  O_2
REMARK    2  A    between atoms: O_2  and  C_3
REMARK    3  A    between atoms: C_6  and  N_7
REMARK    4  A    between atoms: C_9  and  C_10
REMARK    5  A    between atoms: C_12  and  O_13
REMARK    6  A    between atoms: O_13  and  C_14
REMARK    7  A    between atoms: C_15  and  O_16
REMARK    8  A    between atoms: O_16  and  C_17
REMARK    9  A    between atoms: C_18  and  O_19
REMARK   10  A    between atoms: O_19  and  C_20
REMARK   11  A    between atoms: C_22  and  C_23
REMARK   12  A    between atoms: C_26  and  O_27
REMARK   13  A    between atoms: O_27  and  C_28
REMARK   14  A    between atoms: C_32  and  N_33
REMARK                            x       y       z     vdW  Elec       q    Type
REMARK                         _______ _______ _______ _____ _____    ______ ____
ROOT
ATOM      1  N   UNL     1       1.157  10.578  19.637  0.00  0.00    +0.000 N 
ATOM      2  N   UNL     1       0.142  10.761  20.540  0.00  0.00    +0.000 NA
ATOM      3  C   UNL     1       0.006  12.098  20.644  0.00  0.00    +0.000 A 
ATOM      4  C   UNL     1       0.823  12.775  19.676  0.00  0.00    +0.000 A 
ATOM      5  C   UNL     1       1.511  11.779  19.013  0.00  0.00    +0.000 A 
ENDROOT
BRANCH   4   6
ATOM      6  C   UNL     1       0.864  14.176  19.262  0.00  0.00    +0.000 A 
ATOM      7  C   UNL     1      -0.277  14.809  18.753  0.00  0.00    +0.000 A 
ATOM      8  C   UNL     1      -0.234  16.146  18.352  0.00  0.00    +0.000 A 
ATOM      9  C   UNL     1       0.967  16.857  18.388  0.00  0.00    +0.000 A 
ATOM     10  C   UNL     1       2.111  16.213  18.854  0.00  0.00    +0.000 A 
ATOM     11  F   UNL     1       3.309  16.814  18.860  0.00  0.00    +0.000 F 
ATOM     12  C   UNL     1       2.055  14.905  19.323  0.00  0.00    +0.000 A 
BRANCH   9  13
ATOM     13  O   UNL     1       0.866  18.146  17.946  0.00  0.00    +0.000 OA
ATOM     14  C   UNL     1      -0.230  18.448  17.095  0.00  0.00    +0.000 C 
ENDBRANCH   9  13
ENDBRANCH   4   6
BRANCH   1  18
ATOM     15  C   UNL     1       2.262   6.649  18.495  0.00  0.00    +0.000 A 
ATOM     16  C   UNL     1       2.065   6.961  19.842  0.00  0.00    +0.000 A 
ATOM     17  C   UNL     1       1.774   8.274  20.254  0.00  0.00    +0.000 A 
ATOM     18  C   UNL     1       1.665   9.281  19.294  0.00  0.00    +0.000 A 
ATOM     19  C   UNL     1       1.970   8.981  17.956  0.00  0.00    +0.000 A 
ATOM     20  C   UNL     1       2.252   7.674  17.554  0.00  0.00    +0.000 A 
BRANCH  15  22
ATOM     21  C   UNL     1       2.072   4.390  19.207  0.00  0.00    +0.000 C 
ATOM     22  O   UNL     1       2.491   5.329  18.210  0.00  0.00    +0.000 OA
ENDBRANCH  15  22
ENDBRANCH   1  18
BRANCH   3  23
ATOM     23  C   UNL     1      -0.957  12.749  21.559  0.00  0.00    +0.000 A 
ATOM     24  C   UNL     1      -2.319  12.415  21.502  0.00  0.00    +0.000 A 
ATOM     25  C   UNL     1      -3.196  12.774  22.532  0.00  0.00    +0.000 A 
ATOM     26  C   UNL     1      -2.741  13.575  23.600  0.00  0.00    +0.000 A 
ATOM     27  C   UNL     1      -1.396  14.006  23.611  0.00  0.00    +0.000 A 
ATOM     28  C   UNL     1      -0.516  13.574  22.598  0.00  0.00    +0.000 A 
BRANCH  25  29
ATOM     29  O   UNL     1      -4.514  12.372  22.569  0.00  0.00    +0.000 OA
ATOM     30  C   UNL     1      -5.297  12.659  21.406  0.00  0.00    +0.000 C 
ENDBRANCH  25  29
BRANCH  26  31
ATOM     31  O   UNL     1      -3.703  13.914  24.526  0.00  0.00    +0.000 OA
ATOM     32  C   UNL     1      -4.379  15.157  24.369  0.00  0.00    +0.000 C 
ENDBRANCH  26  31
BRANCH  27  33
ATOM     33  O   UNL     1      -1.013  14.838  24.631  0.00  0.00    +0.000 OA
ATOM     34  C   UNL     1      -0.724  16.194  24.325  0.00  0.00    +0.000 C 
ENDBRANCH  27  33
ENDBRANCH   3  23
BRANCH   5  35
ATOM     35  N   UNL     1       2.302  11.861  17.899  0.00  0.00    +0.000 N 
ATOM     36  H   UNL     1       1.858  11.813  16.984  0.00  0.00    +0.000 HD
ATOM     37  H   UNL     1       3.189  11.359  17.885  0.00  0.00    +0.000 HD
ENDBRANCH   5  35
TORSDOF 9
ENDMDL
MODEL 6
REMARK VINA RESULT:      -6.7      1.971      3.072
REMARK  Name = 
REMARK  14 active torsions:
REMARK  status: ('A' for Active; 'I' for Inactive)
REMARK    1  A    between atoms: C_1  and  O_2
REMARK    2  A    between atoms: O_2  and  C_3
REMARK    3  A    between atoms: C_6  and  N_7
REMARK    4  A    between atoms: C_9  and  C_10
REMARK    5  A    between atoms: C_12  and  O_13
REMARK    6  A    between atoms: O_13  and  C_14
REMARK    7  A    between atoms: C_15  and  O_16
REMARK    8  A    between atoms: O_16  and  C_17
REMARK    9  A    between atoms: C_18  and  O_19
REMARK   10  A    between atoms: O_19  and  C_20
REMARK   11  A    between atoms: C_22  and  C_23
REMARK   12  A    between atoms: C_26  and  O_27
REMARK   13  A    between atoms: O_27  and  C_28
REMARK   14  A    between atoms: C_32  and  N_33
REMARK                            x       y       z     vdW  Elec       q    Type
REMARK                         _______ _______ _______ _____ _____    ______ ____
ROOT
ATOM      1  N   UNL     1       0.410  10.427  19.556  0.00  0.00    +0.000 N 
ATOM      2  N   UNL     1      -0.960  10.392  19.607  0.00  0.00    +0.000 NA
ATOM      3  C   UNL     1      -1.332  11.669  19.828  0.00  0.00    +0.000 A 
ATOM      4  C   UNL     1      -0.205  12.554  19.750  0.00  0.00    +0.000 A 
ATOM      5  C   UNL     1       0.888  11.742  19.527  0.00  0.00    +0.000 A 
ENDROOT
BRANCH   4   6
ATOM      6  C   UNL     1      -0.128  14.014  19.710  0.00  0.00    +0.000 A 
ATOM      7  C   UNL     1      -0.224  14.707  18.496  0.00  0.00    +0.000 A 
ATOM      8  C   UNL     1      -0.144  16.100  18.460  0.00  0.00    +0.000 A 
ATOM      9  C   UNL     1       0.102  16.825  19.627  0.00  0.00    +0.000 A 
ATOM     10  C   UNL     1       0.240  16.132  20.828  0.00  0.00    +0.000 A 
ATOM     11  F   UNL     1       0.537  16.756  21.976  0.00  0.00    +0.000 F 
ATOM     12  C   UNL     1       0.088  14.750  20.879  0.00  0.00    +0.000 A 
BRANCH   9  13
ATOM     13  O   UNL     1       0.178  18.177  19.440  0.00  0.00    +0.000 OA
ATOM     14  C   UNL     1       0.433  18.627  18.117  0.00  0.00    +0.000 C 
ENDBRANCH   9  13
ENDBRANCH   4   6
BRANCH   1  18
ATOM     15  C   UNL     1       2.426   6.749  18.949  0.00  0.00    +0.000 A 
ATOM     16  C   UNL     1       2.010   7.121  20.229  0.00  0.00    +0.000 A 
ATOM     17  C   UNL     1       1.408   8.369  20.470  0.00  0.00    +0.000 A 
ATOM     18  C   UNL     1       1.210   9.248  19.403  0.00  0.00    +0.000 A 
ATOM     19  C   UNL     1       1.727   8.911  18.141  0.00  0.00    +0.000 A 
ATOM     20  C   UNL     1       2.318   7.668  17.909  0.00  0.00    +0.000 A 
BRANCH  15  22
ATOM     21  C   UNL     1       2.104   4.510  18.223  0.00  0.00    +0.000 C 
ATOM     22  O   UNL     1       2.954   5.491  18.828  0.00  0.00    +0.000 OA
ENDBRANCH  15  22
ENDBRANCH   1  18
BRANCH   3  23
ATOM     23  C   UNL     1      -2.741  12.087  20.002  0.00  0.00    +0.000 A 
ATOM     24  C   UNL     1      -3.665  11.899  18.961  0.00  0.00    +0.000 A 
ATOM     25  C   UNL     1      -5.043  11.998  19.191  0.00  0.00    +0.000 A 
ATOM     26  C   UNL     1      -5.521  12.395  20.458  0.00  0.00    +0.000 A 
ATOM     27  C   UNL     1      -4.594  12.689  21.481  0.00  0.00    +0.000 A 
ATOM     28  C   UNL     1      -3.215  12.516  21.245  0.00  0.00    +0.000 A 
BRANCH  25  29
ATOM     29  O   UNL     1      -5.985  11.713  18.226  0.00  0.00    +0.000 OA
ATOM     30  C   UNL     1      -6.073  12.635  17.135  0.00  0.00    +0.000 C 
ENDBRANCH  25  29
BRANCH  26  31
ATOM     31  O   UNL     1      -6.890  12.513  20.553  0.00  0.00    +0.000 OA
ATOM     32  C   UNL     1      -7.623  11.419  21.096  0.00  0.00    +0.000 C 
ENDBRANCH  26  31
BRANCH  27  33
ATOM     33  O   UNL     1      -5.099  13.136  22.674  0.00  0.00    +0.000 OA
ATOM     34  C   UNL     1      -4.349  12.899  23.856  0.00  0.00    +0.000 C 
ENDBRANCH  27  33
ENDBRANCH   3  23
BRANCH   5  35
ATOM     35  N   UNL     1       2.178  12.083  19.220  0.00  0.00    +0.000 N 
ATOM     36  H   UNL     1       2.418  12.245  18.244  0.00  0.00    +0.000 HD
ATOM     37  H   UNL     1       2.941  11.601  19.694  0.00  0.00    +0.000 HD
ENDBRANCH   5  35
TORSDOF 9
ENDMDL
MODEL 7
REMARK VINA RESULT:      -6.7      1.596      5.585
REMARK  Name = 
REMARK  14 active torsions:
REMARK  status: ('A' for Active; 'I' for Inactive)
REMARK    1  A    between atoms: C_1  and  O_2
REMARK    2  A    between atoms: O_2  and  C_3
REMARK    3  A    between atoms: C_6  and  N_7
REMARK    4  A    between atoms: C_9  and  C_10
REMARK    5  A    between atoms: C_12  and  O_13
REMARK    6  A    between atoms: O_13  and  C_14
REMARK    7  A    between atoms: C_15  and  O_16
REMARK    8  A    between atoms: O_16  and  C_17
REMARK    9  A    between atoms: C_18  and  O_19
REMARK   10  A    between atoms: O_19  and  C_20
REMARK   11  A    between atoms: C_22  and  C_23
REMARK   12  A    between atoms: C_26  and  O_27
REMARK   13  A    between atoms: O_27  and  C_28
REMARK   14  A    between atoms: C_32  and  N_33
REMARK                            x       y       z     vdW  Elec       q    Type
REMARK                         _______ _______ _______ _____ _____    ______ ____
ROOT
ATOM      1  N   UNL     1       0.922  10.547  19.593  0.00  0.00    +0.000 N 
ATOM      2  N   UNL     1       1.444  11.740  19.163  0.00  0.00    +0.000 NA
ATOM      3  C   UNL     1       0.638  12.682  19.692  0.00  0.00    +0.000 A 
ATOM      4  C   UNL     1      -0.306  12.099  20.604  0.00  0.00    +0.000 A 
ATOM      5  C   UNL     1      -0.071  10.740  20.559  0.00  0.00    +0.000 A 
ENDROOT
BRANCH   4   6
ATOM      6  C   UNL     1      -1.226  12.713  21.560  0.00  0.00    +0.000 A 
ATOM      7  C   UNL     1      -2.604  12.748  21.311  0.00  0.00    +0.000 A 
ATOM      8  C   UNL     1      -3.479  13.341  22.223  0.00  0.00    +0.000 A 
ATOM      9  C   UNL     1      -2.990  13.971  23.369  0.00  0.00    +0.000 A 
ATOM     10  C   UNL     1      -1.615  13.972  23.593  0.00  0.00    +0.000 A 
ATOM     11  F   UNL     1      -1.069  14.608  24.639  0.00  0.00    +0.000 F 
ATOM     12  C   UNL     1      -0.746  13.318  22.725  0.00  0.00    +0.000 A 
BRANCH   9  13
ATOM     13  O   UNL     1      -3.956  14.526  24.158  0.00  0.00    +0.000 OA
ATOM     14  C   UNL     1      -4.286  15.885  23.906  0.00  0.00    +0.000 C 
ENDBRANCH   9  13
ENDBRANCH   4   6
BRANCH   1  18
ATOM     15  C   UNL     1       2.861   6.915  18.585  0.00  0.00    +0.000 A 
ATOM     16  C   UNL     1       2.682   7.909  17.620  0.00  0.00    +0.000 A 
ATOM     17  C   UNL     1       1.975   9.090  17.908  0.00  0.00    +0.000 A 
ATOM     18  C   UNL     1       1.454   9.278  19.189  0.00  0.00    +0.000 A 
ATOM     19  C   UNL     1       1.545   8.229  20.120  0.00  0.00    +0.000 A 
ATOM     20  C   UNL     1       2.255   7.063  19.829  0.00  0.00    +0.000 A 
BRANCH  15  22
ATOM     21  C   UNL     1       4.682   5.471  19.081  0.00  0.00    +0.000 C 
ATOM     22  O   UNL     1       3.609   5.833  18.204  0.00  0.00    +0.000 OA
ENDBRANCH  15  22
ENDBRANCH   1  18
BRANCH   3  23
ATOM     23  C   UNL     1       0.807  14.131  19.442  0.00  0.00    +0.000 A 
ATOM     24  C   UNL     1       2.095  14.680  19.330  0.00  0.00    +0.000 A 
ATOM     25  C   UNL     1       2.290  15.962  18.801  0.00  0.00    +0.000 A 
ATOM     26  C   UNL     1       1.180  16.767  18.471  0.00  0.00    +0.000 A 
ATOM     27  C   UNL     1      -0.122  16.262  18.682  0.00  0.00    +0.000 A 
ATOM     28  C   UNL     1      -0.292  14.943  19.150  0.00  0.00    +0.000 A 
BRANCH  25  29
ATOM     29  O   UNL     1       3.541  16.494  18.571  0.00  0.00    +0.000 OA
ATOM     30  C   UNL     1       4.502  16.330  19.619  0.00  0.00    +0.000 C 
ENDBRANCH  25  29
BRANCH  26  31
ATOM     31  O   UNL     1       1.490  18.028  18.014  0.00  0.00    +0.000 OA
ATOM     32  C   UNL     1       1.233  18.329  16.646  0.00  0.00    +0.000 C 
ENDBRANCH  26  31
BRANCH  27  33
ATOM     33  O   UNL     1      -1.171  17.101  18.412  0.00  0.00    +0.000 OA
ATOM     34  C   UNL     1      -1.775  17.798  19.491  0.00  0.00    +0.000 C 
ENDBRANCH  27  33
ENDBRANCH   3  23
BRANCH   5  35
ATOM     35  N   UNL     1      -0.582   9.742  21.345  0.00  0.00    +0.000 N 
ATOM     36  H   UNL     1      -0.077   9.483  22.190  0.00  0.00    +0.000 HD
ATOM     37  H   UNL     1      -0.967   8.911  20.899  0.00  0.00    +0.000 HD
ENDBRANCH   5  35
TORSDOF 9
ENDMDL
MODEL 8
REMARK VINA RESULT:      -6.7      1.566      5.590
REMARK  Name = 
REMARK  14 active torsions:
REMARK  status: ('A' for Active; 'I' for Inactive)
REMARK    1  A    between atoms: C_1  and  O_2
REMARK    2  A    between atoms: O_2  and  C_3
REMARK    3  A    between atoms: C_6  and  N_7
REMARK    4  A    between atoms: C_9  and  C_10
REMARK    5  A    between atoms: C_12  and  O_13
REMARK    6  A    between atoms: O_13  and  C_14
REMARK    7  A    between atoms: C_15  and  O_16
REMARK    8  A    between atoms: O_16  and  C_17
REMARK    9  A    between atoms: C_18  and  O_19
REMARK   10  A    between atoms: O_19  and  C_20
REMARK   11  A    between atoms: C_22  and  C_23
REMARK   12  A    between atoms: C_26  and  O_27
REMARK   13  A    between atoms: O_27  and  C_28
REMARK   14  A    between atoms: C_32  and  N_33
REMARK                            x       y       z     vdW  Elec       q    Type
REMARK                         _______ _______ _______ _____ _____    ______ ____
ROOT
ATOM      1  N   UNL     1       0.846  10.588  19.726  0.00  0.00    +0.000 N 
ATOM      2  N   UNL     1       1.363  11.774  19.272  0.00  0.00    +0.000 NA
ATOM      3  C   UNL     1       0.580  12.726  19.818  0.00  0.00    +0.000 A 
ATOM      4  C   UNL     1      -0.339  12.157  20.762  0.00  0.00    +0.000 A 
ATOM      5  C   UNL     1      -0.116  10.796  20.721  0.00  0.00    +0.000 A 
ENDROOT
BRANCH   4   6
ATOM      6  C   UNL     1      -1.226  12.785  21.740  0.00  0.00    +0.000 A 
ATOM      7  C   UNL     1      -0.707  13.501  22.826  0.00  0.00    +0.000 A 
ATOM      8  C   UNL     1      -1.556  14.094  23.763  0.00  0.00    +0.000 A 
ATOM      9  C   UNL     1      -2.939  13.927  23.671  0.00  0.00    +0.000 A 
ATOM     10  C   UNL     1      -3.451  13.178  22.613  0.00  0.00    +0.000 A 
ATOM     11  F   UNL     1      -4.762  12.925  22.496  0.00  0.00    +0.000 F 
ATOM     12  C   UNL     1      -2.613  12.648  21.638  0.00  0.00    +0.000 A 
BRANCH   9  13
ATOM     13  O   UNL     1      -3.644  14.543  24.666  0.00  0.00    +0.000 OA
ATOM     14  C   UNL     1      -4.315  15.747  24.323  0.00  0.00    +0.000 C 
ENDBRANCH   9  13
ENDBRANCH   4   6
BRANCH   1  18
ATOM     15  C   UNL     1       2.739   6.951  18.651  0.00  0.00    +0.000 A 
ATOM     16  C   UNL     1       2.421   7.896  17.672  0.00  0.00    +0.000 A 
ATOM     17  C   UNL     1       1.725   9.076  17.991  0.00  0.00    +0.000 A 
ATOM     18  C   UNL     1       1.356   9.312  19.317  0.00  0.00    +0.000 A 
ATOM     19  C   UNL     1       1.584   8.310  20.275  0.00  0.00    +0.000 A 
ATOM     20  C   UNL     1       2.282   7.144  19.951  0.00  0.00    +0.000 A 
BRANCH  15  22
ATOM     21  C   UNL     1       4.018   5.044  19.262  0.00  0.00    +0.000 C 
ATOM     22  O   UNL     1       3.461   5.867  18.229  0.00  0.00    +0.000 OA
ENDBRANCH  15  22
ENDBRANCH   1  18
BRANCH   3  23
ATOM     23  C   UNL     1       0.752  14.171  19.551  0.00  0.00    +0.000 A 
ATOM     24  C   UNL     1       2.038  14.737  19.539  0.00  0.00    +0.000 A 
ATOM     25  C   UNL     1       2.263  16.010  19.002  0.00  0.00    +0.000 A 
ATOM     26  C   UNL     1       1.175  16.791  18.558  0.00  0.00    +0.000 A 
ATOM     27  C   UNL     1      -0.133  16.272  18.665  0.00  0.00    +0.000 A 
ATOM     28  C   UNL     1      -0.327  14.961  19.146  0.00  0.00    +0.000 A 
BRANCH  25  29
ATOM     29  O   UNL     1       3.521  16.555  18.870  0.00  0.00    +0.000 OA
ATOM     30  C   UNL     1       4.433  15.849  18.022  0.00  0.00    +0.000 C 
ENDBRANCH  25  29
BRANCH  26  31
ATOM     31  O   UNL     1       1.509  18.048  18.101  0.00  0.00    +0.000 OA
ATOM     32  C   UNL     1       1.352  18.321  16.713  0.00  0.00    +0.000 C 
ENDBRANCH  26  31
BRANCH  27  33
ATOM     33  O   UNL     1      -1.165  17.090  18.286  0.00  0.00    +0.000 OA
ATOM     34  C   UNL     1      -1.847  17.828  19.288  0.00  0.00    +0.000 C 
ENDBRANCH  27  33
ENDBRANCH   3  23
BRANCH   5  35
ATOM     35  N   UNL     1      -0.610   9.808  21.530  0.00  0.00    +0.000 N 
ATOM     36  H   UNL     1      -1.450   9.314  21.234  0.00  0.00    +0.000 HD
ATOM     37  H   UNL     1      -0.629   9.959  22.537  0.00  0.00    +0.000 HD
ENDBRANCH   5  35
TORSDOF 9
ENDMDL
MODEL 9
REMARK VINA RESULT:      -6.6      1.366      2.557
REMARK  Name = 
REMARK  14 active torsions:
REMARK  status: ('A' for Active; 'I' for Inactive)
REMARK    1  A    between atoms: C_1  and  O_2
REMARK    2  A    between atoms: O_2  and  C_3
REMARK    3  A    between atoms: C_6  and  N_7
REMARK    4  A    between atoms: C_9  and  C_10
REMARK    5  A    between atoms: C_12  and  O_13
REMARK    6  A    between atoms: O_13  and  C_14
REMARK    7  A    between atoms: C_15  and  O_16
REMARK    8  A    between atoms: O_16  and  C_17
REMARK    9  A    between atoms: C_18  and  O_19
REMARK   10  A    between atoms: O_19  and  C_20
REMARK   11  A    between atoms: C_22  and  C_23
REMARK   12  A    between atoms: C_26  and  O_27
REMARK   13  A    between atoms: O_27  and  C_28
REMARK   14  A    between atoms: C_32  and  N_33
REMARK                            x       y       z     vdW  Elec       q    Type
REMARK                         _______ _______ _______ _____ _____    ______ ____
ROOT
ATOM      1  N   UNL     1       0.757  10.489  19.475  0.00  0.00    +0.000 N 
ATOM      2  N   UNL     1      -0.455  10.591  20.108  0.00  0.00    +0.000 NA
ATOM      3  C   UNL     1      -0.616  11.910  20.339  0.00  0.00    +0.000 A 
ATOM      4  C   UNL     1       0.419  12.674  19.701  0.00  0.00    +0.000 A 
ATOM      5  C   UNL     1       1.255  11.745  19.115  0.00  0.00    +0.000 A 
ENDROOT
BRANCH   4   6
ATOM      6  C   UNL     1       0.561  14.113  19.488  0.00  0.00    +0.000 A 
ATOM      7  C   UNL     1      -0.298  14.800  18.620  0.00  0.00    +0.000 A 
ATOM      8  C   UNL     1      -0.155  16.174  18.414  0.00  0.00    +0.000 A 
ATOM      9  C   UNL     1       0.889  16.876  19.016  0.00  0.00    +0.000 A 
ATOM     10  C   UNL     1       1.769  16.183  19.845  0.00  0.00    +0.000 A 
ATOM     11  F   UNL     1       2.829  16.778  20.408  0.00  0.00    +0.000 F 
ATOM     12  C   UNL     1       1.587  14.830  20.112  0.00  0.00    +0.000 A 
BRANCH   9  13
ATOM     13  O   UNL     1       0.920  18.207  18.708  0.00  0.00    +0.000 OA
ATOM     14  C   UNL     1       0.286  18.598  17.498  0.00  0.00    +0.000 C 
ENDBRANCH   9  13
ENDBRANCH   4   6
BRANCH   1  18
ATOM     15  C   UNL     1       2.843   6.912  18.569  0.00  0.00    +0.000 A 
ATOM     16  C   UNL     1       2.573   7.843  17.563  0.00  0.00    +0.000 A 
ATOM     17  C   UNL     1       1.816   9.001  17.822  0.00  0.00    +0.000 A 
ATOM     18  C   UNL     1       1.338   9.229  19.113  0.00  0.00    +0.000 A 
ATOM     19  C   UNL     1       1.522   8.236  20.091  0.00  0.00    +0.000 A 
ATOM     20  C   UNL     1       2.280   7.094  19.828  0.00  0.00    +0.000 A 
BRANCH  15  22
ATOM     21  C   UNL     1       4.436   5.287  19.252  0.00  0.00    +0.000 C 
ATOM     22  O   UNL     1       3.630   5.851  18.210  0.00  0.00    +0.000 OA
ENDBRANCH  15  22
ENDBRANCH   1  18
BRANCH   3  23
ATOM     23  C   UNL     1      -1.781  12.474  21.055  0.00  0.00    +0.000 A 
ATOM     24  C   UNL     1      -1.665  12.848  22.404  0.00  0.00    +0.000 A 
ATOM     25  C   UNL     1      -2.635  13.650  23.018  0.00  0.00    +0.000 A 
ATOM     26  C   UNL     1      -3.804  14.008  22.314  0.00  0.00    +0.000 A 
ATOM     27  C   UNL     1      -3.978  13.548  20.991  0.00  0.00    +0.000 A 
ATOM     28  C   UNL     1      -2.956  12.799  20.372  0.00  0.00    +0.000 A 
BRANCH  25  29
ATOM     29  O   UNL     1      -2.505  14.130  24.303  0.00  0.00    +0.000 OA
ATOM     30  C   UNL     1      -1.411  15.022  24.540  0.00  0.00    +0.000 C 
ENDBRANCH  25  29
BRANCH  26  31
ATOM     31  O   UNL     1      -4.713  14.751  23.035  0.00  0.00    +0.000 OA
ATOM     32  C   UNL     1      -5.794  14.068  23.660  0.00  0.00    +0.000 C 
ENDBRANCH  26  31
BRANCH  27  33
ATOM     33  O   UNL     1      -5.158  13.862  20.368  0.00  0.00    +0.000 OA
ATOM     34  C   UNL     1      -6.120  12.836  20.184  0.00  0.00    +0.000 C 
ENDBRANCH  27  33
ENDBRANCH   3  23
BRANCH   5  35
ATOM     35  N   UNL     1       2.304  11.938  18.256  0.00  0.00    +0.000 N 
ATOM     36  H   UNL     1       2.140  11.827  17.257  0.00  0.00    +0.000 HD
ATOM     37  H   UNL     1       3.219  11.566  18.504  0.00  0.00    +0.000 HD
ENDBRANCH   5  35
TORSDOF 9
ENDMDL
