MODEL 1
REMARK VINA RESULT:      -8.5      0.000      0.000
REMARK  Name = 
REMARK  11 active torsions:
REMARK  status: ('A' for Active; 'I' for Inactive)
REMARK    1  A    between atoms: C_2  and  C_3
REMARK    2  A    between atoms: C_2  and  O_11
REMARK    3  A    between atoms: C_3  and  C_4
REMARK    4  A    between atoms: C_4  and  C_5
REMARK    5  A    between atoms: O_11  and  C_12
REMARK    6  A    between atoms: C_15  and  O_16
REMARK    7  A    between atoms: C_18  and  O_19
REMARK    8  A    between atoms: C_23  and  C_24
REMARK    9  A    between atoms: C_26  and  O_27
REMARK   10  A    between atoms: C_28  and  O_29
REMARK   11  A    between atoms: C_30  and  O_31
REMARK                            x       y       z     vdW  Elec       q    Type
REMARK                         _______ _______ _______ _____ _____    ______ ____
ROOT
ATOM      1  C   UNL     1       0.809  10.436  19.497  0.00  0.00    +0.000 C 
ATOM      2  C   UNL     1       0.502  10.115  20.965  0.00  0.00    +0.000 C 
ATOM      3  C   UNL     1      -0.448  11.052  21.642  0.00  0.00    +0.000 A 
ATOM      4  C   UNL     1      -1.046  10.725  22.866  0.00  0.00    +0.000 A 
ATOM      5  C   UNL     1      -1.931  11.596  23.491  0.00  0.00    +0.000 A 
ATOM      6  C   UNL     1      -2.219  12.815  22.895  0.00  0.00    +0.000 A 
ATOM      7  C   UNL     1      -1.621  13.175  21.689  0.00  0.00    +0.000 A 
ATOM      8  C   UNL     1      -0.750  12.285  21.058  0.00  0.00    +0.000 A 
ATOM      9  O   UNL     1      -0.226  12.666  19.847  0.00  0.00    +0.000 OA
ATOM     10  C   UNL     1      -0.065  11.573  18.913  0.00  0.00    +0.000 C 
ENDROOT
BRANCH  10  11
ATOM     11  C   UNL     1      -1.428  11.254  18.292  0.00  0.00    +0.000 A 
ATOM     12  C   UNL     1      -1.491  10.385  17.177  0.00  0.00    +0.000 A 
ATOM     13  C   UNL     1      -2.683  10.236  16.468  0.00  0.00    +0.000 A 
ATOM     14  C   UNL     1      -3.808  10.959  16.838  0.00  0.00    +0.000 A 
ATOM     15  C   UNL     1      -3.767  11.786  17.950  0.00  0.00    +0.000 A 
ATOM     16  C   UNL     1      -2.602  11.912  18.696  0.00  0.00    +0.000 A 
BRANCH  13  17
ATOM     17  O   UNL     1      -2.786   9.420  15.375  0.00  0.00    +0.000 OA
ATOM     18  H   UNL     1      -2.004   8.843  15.347  0.00  0.00    +0.000 HD
ENDBRANCH  13  17
BRANCH  14  19
ATOM     19  O   UNL     1      -4.959  10.891  16.100  0.00  0.00    +0.000 OA
ATOM     20  H   UNL     1      -4.937  11.701  15.549  0.00  0.00    +0.000 HD
ENDBRANCH  14  19
BRANCH  15  21
ATOM     21  O   UNL     1      -4.855  12.534  18.292  0.00  0.00    +0.000 OA
ATOM     22  H   UNL     1      -4.788  12.630  19.263  0.00  0.00    +0.000 HD
ENDBRANCH  15  21
ENDBRANCH  10  11
BRANCH   4  23
ATOM     23  O   UNL     1      -0.823   9.544  23.521  0.00  0.00    +0.000 OA
ATOM     24  H   UNL     1      -0.631   9.709  24.457  0.00  0.00    +0.000 HD
ENDBRANCH   4  23
BRANCH   6  25
ATOM     25  O   UNL     1      -3.101  13.682  23.469  0.00  0.00    +0.000 OA
ATOM     26  H   UNL     1      -3.989  13.489  23.123  0.00  0.00    +0.000 HD
ENDBRANCH   6  25
BRANCH   1  27
ATOM     27  O   UNL     1       0.706   9.252  18.672  0.00  0.00    +0.000 OA
BRANCH  27  29
ATOM     28  O   UNL     1       2.465   9.175  17.203  0.00  0.00    +0.000 OA
ATOM     29  C   UNL     1       1.870   8.741  18.173  0.00  0.00    +0.000 C 
BRANCH  29  30
ATOM     30  C   UNL     1       2.302   7.570  19.012  0.00  0.00    +0.000 C 
BRANCH  30  31
ATOM     31  C   UNL     1       2.662   6.357  18.157  0.00  0.00    +0.000 C 
BRANCH  31  32
ATOM     32  C   UNL     1       2.109   5.101  18.786  0.00  0.00    +0.000 A 
ATOM     33  C   UNL     1       1.542   4.105  17.977  0.00  0.00    +0.000 A 
ATOM     34  C   UNL     1       0.961   2.975  18.552  0.00  0.00    +0.000 A 
ATOM     35  C   UNL     1       0.938   2.829  19.936  0.00  0.00    +0.000 A 
ATOM     36  C   UNL     1       1.500   3.814  20.749  0.00  0.00    +0.000 A 
ATOM     37  C   UNL     1       2.083   4.945  20.178  0.00  0.00    +0.000 A 
ENDBRANCH  31  32
ENDBRANCH  30  31
ENDBRANCH  29  30
ENDBRANCH  27  29
ENDBRANCH   1  27
TORSDOF 11
ENDMDL
MODEL 2
REMARK VINA RESULT:      -8.3      3.615      9.390
REMARK  Name = 
REMARK  11 active torsions:
REMARK  status: ('A' for Active; 'I' for Inactive)
REMARK    1  A    between atoms: C_2  and  C_3
REMARK    2  A    between atoms: C_2  and  O_11
REMARK    3  A    between atoms: C_3  and  C_4
REMARK    4  A    between atoms: C_4  and  C_5
REMARK    5  A    between atoms: O_11  and  C_12
REMARK    6  A    between atoms: C_15  and  O_16
REMARK    7  A    between atoms: C_18  and  O_19
REMARK    8  A    between atoms: C_23  and  C_24
REMARK    9  A    between atoms: C_26  and  O_27
REMARK   10  A    between atoms: C_28  and  O_29
REMARK   11  A    between atoms: C_30  and  O_31
REMARK                            x       y       z     vdW  Elec       q    Type
REMARK                         _______ _______ _______ _____ _____    ______ ____
ROOT
ATOM      1  C   UNL     1       2.426   6.353  18.303  0.00  0.00    +0.000 C 
ATOM      2  C   UNL     1       2.073   5.360  19.417  0.00  0.00    +0.000 C 
ATOM      3  C   UNL     1       2.710   4.012  19.301  0.00  0.00    +0.000 A 
ATOM      4  C   UNL     1       2.722   3.116  20.378  0.00  0.00    +0.000 A 
ATOM      5  C   UNL     1       3.319   1.865  20.269  0.00  0.00    +0.000 A 
ATOM      6  C   UNL     1       3.903   1.495  19.067  0.00  0.00    +0.000 A 
ATOM      7  C   UNL     1       3.887   2.357  17.973  0.00  0.00    +0.000 A 
ATOM      8  C   UNL     1       3.305   3.620  18.098  0.00  0.00    +0.000 A 
ATOM      9  O   UNL     1       3.357   4.452  17.006  0.00  0.00    +0.000 OA
ATOM     10  C   UNL     1       3.533   5.847  17.346  0.00  0.00    +0.000 C 
ENDROOT
BRANCH  10  11
ATOM     11  C   UNL     1       5.008   6.089  17.679  0.00  0.00    +0.000 A 
ATOM     12  C   UNL     1       5.586   5.413  18.780  0.00  0.00    +0.000 A 
ATOM     13  C   UNL     1       6.859   5.763  19.230  0.00  0.00    +0.000 A 
ATOM     14  C   UNL     1       7.557   6.793  18.615  0.00  0.00    +0.000 A 
ATOM     15  C   UNL     1       7.014   7.437  17.514  0.00  0.00    +0.000 A 
ATOM     16  C   UNL     1       5.768   7.072  17.022  0.00  0.00    +0.000 A 
BRANCH  13  17
ATOM     17  O   UNL     1       7.450   5.148  20.300  0.00  0.00    +0.000 OA
ATOM     18  H   UNL     1       8.415   5.231  20.207  0.00  0.00    +0.000 HD
ENDBRANCH  13  17
BRANCH  14  19
ATOM     19  O   UNL     1       8.768   7.206  19.099  0.00  0.00    +0.000 OA
ATOM     20  H   UNL     1       8.657   8.171  19.227  0.00  0.00    +0.000 HD
ENDBRANCH  14  19
BRANCH  15  21
ATOM     21  O   UNL     1       7.674   8.481  16.934  0.00  0.00    +0.000 OA
ATOM     22  H   UNL     1       8.289   8.795  17.628  0.00  0.00    +0.000 HD
ENDBRANCH  15  21
ENDBRANCH  10  11
BRANCH   4  23
ATOM     23  O   UNL     1       2.174   3.399  21.599  0.00  0.00    +0.000 OA
ATOM     24  H   UNL     1       1.229   3.179  21.604  0.00  0.00    +0.000 HD
ENDBRANCH   4  23
BRANCH   6  25
ATOM     25  O   UNL     1       4.518   0.285  18.933  0.00  0.00    +0.000 OA
ATOM     26  H   UNL     1       4.185  -0.140  18.124  0.00  0.00    +0.000 HD
ENDBRANCH   6  25
BRANCH   1  27
ATOM     27  O   UNL     1       2.790   7.643  18.851  0.00  0.00    +0.000 OA
BRANCH  27  29
ATOM     28  O   UNL     1       2.414   9.212  17.222  0.00  0.00    +0.000 OA
ATOM     29  C   UNL     1       2.173   8.738  18.317  0.00  0.00    +0.000 C 
BRANCH  29  30
ATOM     30  C   UNL     1       1.150   9.258  19.289  0.00  0.00    +0.000 C 
BRANCH  30  31
ATOM     31  C   UNL     1       0.779  10.711  19.004  0.00  0.00    +0.000 C 
BRANCH  31  32
ATOM     32  C   UNL     1      -0.663  10.799  18.567  0.00  0.00    +0.000 A 
ATOM     33  C   UNL     1      -1.523  11.726  19.174  0.00  0.00    +0.000 A 
ATOM     34  C   UNL     1      -2.874  11.764  18.832  0.00  0.00    +0.000 A 
ATOM     35  C   UNL     1      -3.380  10.880  17.884  0.00  0.00    +0.000 A 
ATOM     36  C   UNL     1      -2.533   9.954  17.274  0.00  0.00    +0.000 A 
ATOM     37  C   UNL     1      -1.181   9.913  17.613  0.00  0.00    +0.000 A 
ENDBRANCH  31  32
ENDBRANCH  30  31
ENDBRANCH  29  30
ENDBRANCH  27  29
ENDBRANCH   1  27
TORSDOF 11
ENDMDL
MODEL 3
REMARK VINA RESULT:      -8.3      4.136      7.777
REMARK  Name = 
REMARK  11 active torsions:
REMARK  status: ('A' for Active; 'I' for Inactive)
REMARK    1  A    between atoms: C_2  and  C_3
REMARK    2  A    between atoms: C_2  and  O_11
REMARK    3  A    between atoms: C_3  and  C_4
REMARK    4  A    between atoms: C_4  and  C_5
REMARK    5  A    between atoms: O_11  and  C_12
REMARK    6  A    between atoms: C_15  and  O_16
REMARK    7  A    between atoms: C_18  and  O_19
REMARK    8  A    between atoms: C_23  and  C_24
REMARK    9  A    between atoms: C_26  and  O_27
REMARK   10  A    between atoms: C_28  and  O_29
REMARK   11  A    between atoms: C_30  and  O_31
REMARK                            x       y       z     vdW  Elec       q    Type
REMARK                         _______ _______ _______ _____ _____    ______ ____
ROOT
ATOM      1  C   UNL     1       4.371   5.117  17.720  0.00  0.00    +0.000 C 
ATOM      2  C   UNL     1       3.560   3.817  17.659  0.00  0.00    +0.000 C 
ATOM      3  C   UNL     1       2.832   3.454  18.914  0.00  0.00    +0.000 A 
ATOM      4  C   UNL     1       1.830   2.475  18.919  0.00  0.00    +0.000 A 
ATOM      5  C   UNL     1       1.153   2.142  20.087  0.00  0.00    +0.000 A 
ATOM      6  C   UNL     1       1.484   2.786  21.270  0.00  0.00    +0.000 A 
ATOM      7  C   UNL     1       2.492   3.747  21.299  0.00  0.00    +0.000 A 
ATOM      8  C   UNL     1       3.151   4.091  20.117  0.00  0.00    +0.000 A 
ATOM      9  O   UNL     1       4.103   5.079  20.189  0.00  0.00    +0.000 OA
ATOM     10  C   UNL     1       4.146   5.930  19.020  0.00  0.00    +0.000 C 
ENDROOT
BRANCH  10  11
ATOM     11  C   UNL     1       2.999   6.941  19.106  0.00  0.00    +0.000 A 
ATOM     12  C   UNL     1       2.841   7.894  18.071  0.00  0.00    +0.000 A 
ATOM     13  C   UNL     1       1.940   8.948  18.219  0.00  0.00    +0.000 A 
ATOM     14  C   UNL     1       1.211   9.083  19.391  0.00  0.00    +0.000 A 
ATOM     15  C   UNL     1       1.332   8.135  20.396  0.00  0.00    +0.000 A 
ATOM     16  C   UNL     1       2.190   7.053  20.249  0.00  0.00    +0.000 A 
BRANCH  13  17
ATOM     17  O   UNL     1       1.766   9.901  17.252  0.00  0.00    +0.000 OA
ATOM     18  H   UNL     1       0.843   9.864  16.946  0.00  0.00    +0.000 HD
ENDBRANCH  13  17
BRANCH  14  19
ATOM     19  O   UNL     1       0.389  10.160  19.586  0.00  0.00    +0.000 OA
ATOM     20  H   UNL     1      -0.443   9.766  19.924  0.00  0.00    +0.000 HD
ENDBRANCH  14  19
BRANCH  15  21
ATOM     21  O   UNL     1       0.653   8.287  21.570  0.00  0.00    +0.000 OA
ATOM     22  H   UNL     1       1.354   8.432  22.238  0.00  0.00    +0.000 HD
ENDBRANCH  15  21
ENDBRANCH  10  11
BRANCH   4  23
ATOM     23  O   UNL     1       1.437   1.795  17.799  0.00  0.00    +0.000 OA
ATOM     24  H   UNL     1       2.206   1.405  17.354  0.00  0.00    +0.000 HD
ENDBRANCH   4  23
BRANCH   6  25
ATOM     25  O   UNL     1       0.823   2.500  22.428  0.00  0.00    +0.000 OA
ATOM     26  H   UNL     1      -0.105   2.307  22.212  0.00  0.00    +0.000 HD
ENDBRANCH   6  25
BRANCH   1  27
ATOM     27  O   UNL     1       4.115   5.946  16.562  0.00  0.00    +0.000 OA
BRANCH  27  29
ATOM     28  O   UNL     1       5.161   7.091  14.873  0.00  0.00    +0.000 OA
ATOM     29  C   UNL     1       5.204   6.423  15.889  0.00  0.00    +0.000 C 
BRANCH  29  30
ATOM     30  C   UNL     1       6.458   6.000  16.606  0.00  0.00    +0.000 C 
BRANCH  30  31
ATOM     31  C   UNL     1       6.942   4.627  16.147  0.00  0.00    +0.000 C 
BRANCH  31  32
ATOM     32  C   UNL     1       6.876   4.533  14.642  0.00  0.00    +0.000 A 
ATOM     33  C   UNL     1       5.965   3.657  14.036  0.00  0.00    +0.000 A 
ATOM     34  C   UNL     1       5.946   3.505  12.650  0.00  0.00    +0.000 A 
ATOM     35  C   UNL     1       6.835   4.224  11.857  0.00  0.00    +0.000 A 
ATOM     36  C   UNL     1       7.746   5.099  12.450  0.00  0.00    +0.000 A 
ATOM     37  C   UNL     1       7.767   5.254  13.836  0.00  0.00    +0.000 A 
ENDBRANCH  31  32
ENDBRANCH  30  31
ENDBRANCH  29  30
ENDBRANCH  27  29
ENDBRANCH   1  27
TORSDOF 11
ENDMDL
MODEL 4
REMARK VINA RESULT:      -8.3      4.443      8.000
REMARK  Name = 
REMARK  11 active torsions:
REMARK  status: ('A' for Active; 'I' for Inactive)
REMARK    1  A    between atoms: C_2  and  C_3
REMARK    2  A    between atoms: C_2  and  O_11
REMARK    3  A    between atoms: C_3  and  C_4
REMARK    4  A    between atoms: C_4  and  C_5
REMARK    5  A    between atoms: O_11  and  C_12
REMARK    6  A    between atoms: C_15  and  O_16
REMARK    7  A    between atoms: C_18  and  O_19
REMARK    8  A    between atoms: C_23  and  C_24
REMARK    9  A    between atoms: C_26  and  O_27
REMARK   10  A    between atoms: C_28  and  O_29
REMARK   11  A    between atoms: C_30  and  O_31
REMARK                            x       y       z     vdW  Elec       q    Type
REMARK                         _______ _______ _______ _____ _____    ______ ____
ROOT
ATOM      1  C   UNL     1       4.383   4.880  17.623  0.00  0.00    +0.000 C 
ATOM      2  C   UNL     1       3.528   3.608  17.608  0.00  0.00    +0.000 C 
ATOM      3  C   UNL     1       2.815   3.298  18.886  0.00  0.00    +0.000 A 
ATOM      4  C   UNL     1       1.780   2.355  18.935  0.00  0.00    +0.000 A 
ATOM      5  C   UNL     1       1.117   2.072  20.123  0.00  0.00    +0.000 A 
ATOM      6  C   UNL     1       1.495   2.730  21.285  0.00  0.00    +0.000 A 
ATOM      7  C   UNL     1       2.535   3.657  21.270  0.00  0.00    +0.000 A 
ATOM      8  C   UNL     1       3.181   3.951  20.067  0.00  0.00    +0.000 A 
ATOM      9  O   UNL     1       4.167   4.907  20.096  0.00  0.00    +0.000 OA
ATOM     10  C   UNL     1       4.214   5.730  18.907  0.00  0.00    +0.000 C 
ENDROOT
BRANCH  10  11
ATOM     11  C   UNL     1       3.105   6.781  18.993  0.00  0.00    +0.000 A 
ATOM     12  C   UNL     1       2.998   7.757  17.973  0.00  0.00    +0.000 A 
ATOM     13  C   UNL     1       2.135   8.842  18.125  0.00  0.00    +0.000 A 
ATOM     14  C   UNL     1       1.393   8.983  19.289  0.00  0.00    +0.000 A 
ATOM     15  C   UNL     1       1.463   8.015  20.278  0.00  0.00    +0.000 A 
ATOM     16  C   UNL     1       2.282   6.904  20.126  0.00  0.00    +0.000 A 
BRANCH  13  17
ATOM     17  O   UNL     1       2.013   9.817  17.173  0.00  0.00    +0.000 OA
ATOM     18  H   UNL     1       1.093   9.822  16.855  0.00  0.00    +0.000 HD
ENDBRANCH  13  17
BRANCH  14  19
ATOM     19  O   UNL     1       0.608  10.087  19.490  0.00  0.00    +0.000 OA
ATOM     20  H   UNL     1      -0.192   9.733  19.931  0.00  0.00    +0.000 HD
ENDBRANCH  14  19
BRANCH  15  21
ATOM     21  O   UNL     1       0.771   8.172  21.444  0.00  0.00    +0.000 OA
ATOM     22  H   UNL     1      -0.165   8.234  21.164  0.00  0.00    +0.000 HD
ENDBRANCH  15  21
ENDBRANCH  10  11
BRANCH   4  23
ATOM     23  O   UNL     1       1.340   1.664  17.839  0.00  0.00    +0.000 OA
ATOM     24  H   UNL     1       0.620   2.145  17.403  0.00  0.00    +0.000 HD
ENDBRANCH   4  23
BRANCH   6  25
ATOM     25  O   UNL     1       0.850   2.494  22.463  0.00  0.00    +0.000 OA
ATOM     26  H   UNL     1       1.515   2.425  23.168  0.00  0.00    +0.000 HD
ENDBRANCH   6  25
BRANCH   1  27
ATOM     27  O   UNL     1       4.132   5.691  16.451  0.00  0.00    +0.000 OA
BRANCH  27  29
ATOM     28  O   UNL     1       5.521   7.064  15.250  0.00  0.00    +0.000 OA
ATOM     29  C   UNL     1       5.199   5.957  15.641  0.00  0.00    +0.000 C 
BRANCH  29  30
ATOM     30  C   UNL     1       5.913   4.673  15.318  0.00  0.00    +0.000 C 
BRANCH  30  31
ATOM     31  C   UNL     1       6.830   4.819  14.106  0.00  0.00    +0.000 C 
BRANCH  31  32
ATOM     32  C   UNL     1       6.357   3.920  12.991  0.00  0.00    +0.000 A 
ATOM     33  C   UNL     1       4.986   3.803  12.719  0.00  0.00    +0.000 A 
ATOM     34  C   UNL     1       4.532   2.918  11.741  0.00  0.00    +0.000 A 
ATOM     35  C   UNL     1       5.440   2.141  11.028  0.00  0.00    +0.000 A 
ATOM     36  C   UNL     1       6.806   2.249  11.290  0.00  0.00    +0.000 A 
ATOM     37  C   UNL     1       7.264   3.135  12.267  0.00  0.00    +0.000 A 
ENDBRANCH  31  32
ENDBRANCH  30  31
ENDBRANCH  29  30
ENDBRANCH  27  29
ENDBRANCH   1  27
TORSDOF 11
ENDMDL
MODEL 5
REMARK VINA RESULT:      -8.2      3.792      9.318
REMARK  Name = 
REMARK  11 active torsions:
REMARK  status: ('A' for Active; 'I' for Inactive)
REMARK    1  A    between atoms: C_2  and  C_3
REMARK    2  A    between atoms: C_2  and  O_11
REMARK    3  A    between atoms: C_3  and  C_4
REMARK    4  A    between atoms: C_4  and  C_5
REMARK    5  A    between atoms: O_11  and  C_12
REMARK    6  A    between atoms: C_15  and  O_16
REMARK    7  A    between atoms: C_18  and  O_19
REMARK    8  A    between atoms: C_23  and  C_24
REMARK    9  A    between atoms: C_26  and  O_27
REMARK   10  A    between atoms: C_28  and  O_29
REMARK   11  A    between atoms: C_30  and  O_31
REMARK                            x       y       z     vdW  Elec       q    Type
REMARK                         _______ _______ _______ _____ _____    ______ ____
ROOT
ATOM      1  C   UNL     1       2.399   6.223  18.477  0.00  0.00    +0.000 C 
ATOM      2  C   UNL     1       2.108   5.259  19.632  0.00  0.00    +0.000 C 
ATOM      3  C   UNL     1       2.774   3.923  19.538  0.00  0.00    +0.000 A 
ATOM      4  C   UNL     1       2.845   3.063  20.642  0.00  0.00    +0.000 A 
ATOM      5  C   UNL     1       3.468   1.824  20.551  0.00  0.00    +0.000 A 
ATOM      6  C   UNL     1       4.021   1.429  19.342  0.00  0.00    +0.000 A 
ATOM      7  C   UNL     1       3.947   2.254  18.222  0.00  0.00    +0.000 A 
ATOM      8  C   UNL     1       3.338   3.507  18.328  0.00  0.00    +0.000 A 
ATOM      9  O   UNL     1       3.333   4.304  17.209  0.00  0.00    +0.000 OA
ATOM     10  C   UNL     1       3.486   5.713  17.498  0.00  0.00    +0.000 C 
ENDROOT
BRANCH  10  11
ATOM     11  C   UNL     1       4.964   6.000  17.773  0.00  0.00    +0.000 A 
ATOM     12  C   UNL     1       5.602   5.356  18.861  0.00  0.00    +0.000 A 
ATOM     13  C   UNL     1       6.880   5.748  19.258  0.00  0.00    +0.000 A 
ATOM     14  C   UNL     1       7.525   6.788  18.604  0.00  0.00    +0.000 A 
ATOM     15  C   UNL     1       6.924   7.401  17.516  0.00  0.00    +0.000 A 
ATOM     16  C   UNL     1       5.671   6.995  17.076  0.00  0.00    +0.000 A 
BRANCH  13  17
ATOM     17  O   UNL     1       7.527   5.166  20.313  0.00  0.00    +0.000 OA
ATOM     18  H   UNL     1       7.195   5.565  21.136  0.00  0.00    +0.000 HD
ENDBRANCH  13  17
BRANCH  14  19
ATOM     19  O   UNL     1       8.741   7.242  19.038  0.00  0.00    +0.000 OA
ATOM     20  H   UNL     1       9.232   6.425  19.265  0.00  0.00    +0.000 HD
ENDBRANCH  14  19
BRANCH  15  21
ATOM     21  O   UNL     1       7.532   8.455  16.897  0.00  0.00    +0.000 OA
ATOM     22  H   UNL     1       7.242   8.389  15.965  0.00  0.00    +0.000 HD
ENDBRANCH  15  21
ENDBRANCH  10  11
BRANCH   4  23
ATOM     23  O   UNL     1       2.330   3.373  21.871  0.00  0.00    +0.000 OA
ATOM     24  H   UNL     1       3.027   3.718  22.451  0.00  0.00    +0.000 HD
ENDBRANCH   4  23
BRANCH   6  25
ATOM     25  O   UNL     1       4.661   0.230  19.226  0.00  0.00    +0.000 OA
ATOM     26  H   UNL     1       4.443  -0.151  18.358  0.00  0.00    +0.000 HD
ENDBRANCH   6  25
BRANCH   1  27
ATOM     27  O   UNL     1       2.749   7.538  18.970  0.00  0.00    +0.000 OA
BRANCH  27  29
ATOM     28  O   UNL     1       2.722   9.000  17.204  0.00  0.00    +0.000 OA
ATOM     29  C   UNL     1       2.276   8.610  18.267  0.00  0.00    +0.000 C 
BRANCH  29  30
ATOM     30  C   UNL     1       1.119   9.223  19.009  0.00  0.00    +0.000 C 
BRANCH  30  31
ATOM     31  C   UNL     1       1.167   8.908  20.501  0.00  0.00    +0.000 C 
BRANCH  31  32
ATOM     32  C   UNL     1       0.209   9.804  21.248  0.00  0.00    +0.000 A 
ATOM     33  C   UNL     1      -0.276  10.970  20.640  0.00  0.00    +0.000 A 
ATOM     34  C   UNL     1      -1.101  11.845  21.347  0.00  0.00    +0.000 A 
ATOM     35  C   UNL     1      -1.447  11.566  22.665  0.00  0.00    +0.000 A 
ATOM     36  C   UNL     1      -0.970  10.408  23.281  0.00  0.00    +0.000 A 
ATOM     37  C   UNL     1      -0.145   9.530  22.576  0.00  0.00    +0.000 A 
ENDBRANCH  31  32
ENDBRANCH  30  31
ENDBRANCH  29  30
ENDBRANCH  27  29
ENDBRANCH   1  27
TORSDOF 11
ENDMDL
MODEL 6
REMARK VINA RESULT:      -8.1      3.890      7.552
REMARK  Name = 
REMARK  11 active torsions:
REMARK  status: ('A' for Active; 'I' for Inactive)
REMARK    1  A    between atoms: C_2  and  C_3
REMARK    2  A    between atoms: C_2  and  O_11
REMARK    3  A    between atoms: C_3  and  C_4
REMARK    4  A    between atoms: C_4  and  C_5
REMARK    5  A    between atoms: O_11  and  C_12
REMARK    6  A    between atoms: C_15  and  O_16
REMARK    7  A    between atoms: C_18  and  O_19
REMARK    8  A    between atoms: C_23  and  C_24
REMARK    9  A    between atoms: C_26  and  O_27
REMARK   10  A    between atoms: C_28  and  O_29
REMARK   11  A    between atoms: C_30  and  O_31
REMARK                            x       y       z     vdW  Elec       q    Type
REMARK                         _______ _______ _______ _____ _____    ______ ____
ROOT
ATOM      1  C   UNL     1       4.233   5.076  17.508  0.00  0.00    +0.000 C 
ATOM      2  C   UNL     1       3.387   3.797  17.510  0.00  0.00    +0.000 C 
ATOM      3  C   UNL     1       2.737   3.459  18.813  0.00  0.00    +0.000 A 
ATOM      4  C   UNL     1       1.712   2.507  18.892  0.00  0.00    +0.000 A 
ATOM      5  C   UNL     1       1.107   2.197  20.105  0.00  0.00    +0.000 A 
ATOM      6  C   UNL     1       1.534   2.836  21.259  0.00  0.00    +0.000 A 
ATOM      7  C   UNL     1       2.566   3.771  21.214  0.00  0.00    +0.000 A 
ATOM      8  C   UNL     1       3.153   4.092  19.988  0.00  0.00    +0.000 A 
ATOM      9  O   UNL     1       4.132   5.056  19.989  0.00  0.00    +0.000 OA
ATOM     10  C   UNL     1       4.118   5.900  18.814  0.00  0.00    +0.000 C 
ENDROOT
BRANCH  10  11
ATOM     11  C   UNL     1       3.006   6.941  18.972  0.00  0.00    +0.000 A 
ATOM     12  C   UNL     1       2.845   7.934  17.975  0.00  0.00    +0.000 A 
ATOM     13  C   UNL     1       1.982   9.008  18.187  0.00  0.00    +0.000 A 
ATOM     14  C   UNL     1       1.295   9.124  19.387  0.00  0.00    +0.000 A 
ATOM     15  C   UNL     1       1.419   8.139  20.355  0.00  0.00    +0.000 A 
ATOM     16  C   UNL     1       2.238   7.038  20.144  0.00  0.00    +0.000 A 
BRANCH  13  17
ATOM     17  O   UNL     1       1.807   9.999  17.260  0.00  0.00    +0.000 OA
ATOM     18  H   UNL     1       1.218   9.665  16.561  0.00  0.00    +0.000 HD
ENDBRANCH  13  17
BRANCH  14  19
ATOM     19  O   UNL     1       0.513  10.218  19.645  0.00  0.00    +0.000 OA
ATOM     20  H   UNL     1       0.900  10.924  19.086  0.00  0.00    +0.000 HD
ENDBRANCH  14  19
BRANCH  15  21
ATOM     21  O   UNL     1       0.782   8.270  21.555  0.00  0.00    +0.000 OA
ATOM     22  H   UNL     1       0.936   9.203  21.810  0.00  0.00    +0.000 HD
ENDBRANCH  15  21
ENDBRANCH  10  11
BRANCH   4  23
ATOM     23  O   UNL     1       1.226   1.832  17.805  0.00  0.00    +0.000 OA
ATOM     24  H   UNL     1       1.805   1.967  17.038  0.00  0.00    +0.000 HD
ENDBRANCH   4  23
BRANCH   6  25
ATOM     25  O   UNL     1       0.946   2.574  22.461  0.00  0.00    +0.000 OA
ATOM     26  H   UNL     1       1.420   1.834  22.879  0.00  0.00    +0.000 HD
ENDBRANCH   6  25
BRANCH   1  27
ATOM     27  O   UNL     1       3.921   5.906  16.364  0.00  0.00    +0.000 OA
BRANCH  27  29
ATOM     28  O   UNL     1       5.144   7.092  14.829  0.00  0.00    +0.000 OA
ATOM     29  C   UNL     1       4.900   6.058  15.424  0.00  0.00    +0.000 C 
BRANCH  29  30
ATOM     30  C   UNL     1       5.630   4.755  15.247  0.00  0.00    +0.000 C 
BRANCH  30  31
ATOM     31  C   UNL     1       7.137   4.915  15.428  0.00  0.00    +0.000 C 
BRANCH  31  32
ATOM     32  C   UNL     1       7.437   5.465  16.801  0.00  0.00    +0.000 A 
ATOM     33  C   UNL     1       7.564   6.849  16.987  0.00  0.00    +0.000 A 
ATOM     34  C   UNL     1       7.914   7.365  18.235  0.00  0.00    +0.000 A 
ATOM     35  C   UNL     1       8.143   6.506  19.306  0.00  0.00    +0.000 A 
ATOM     36  C   UNL     1       8.020   5.127  19.131  0.00  0.00    +0.000 A 
ATOM     37  C   UNL     1       7.668   4.609  17.885  0.00  0.00    +0.000 A 
ENDBRANCH  31  32
ENDBRANCH  30  31
ENDBRANCH  29  30
ENDBRANCH  27  29
ENDBRANCH   1  27
TORSDOF 11
ENDMDL
MODEL 7
REMARK VINA RESULT:      -8.1      3.319      8.734
REMARK  Name = 
REMARK  11 active torsions:
REMARK  status: ('A' for Active; 'I' for Inactive)
REMARK    1  A    between atoms: C_2  and  C_3
REMARK    2  A    between atoms: C_2  and  O_11
REMARK    3  A    between atoms: C_3  and  C_4
REMARK    4  A    between atoms: C_4  and  C_5
REMARK    5  A    between atoms: O_11  and  C_12
REMARK    6  A    between atoms: C_15  and  O_16
REMARK    7  A    between atoms: C_18  and  O_19
REMARK    8  A    between atoms: C_23  and  C_24
REMARK    9  A    between atoms: C_26  and  O_27
REMARK   10  A    between atoms: C_28  and  O_29
REMARK   11  A    between atoms: C_30  and  O_31
REMARK                            x       y       z     vdW  Elec       q    Type
REMARK                         _______ _______ _______ _____ _____    ______ ____
ROOT
ATOM      1  C   UNL     1       2.737   7.791  18.329  0.00  0.00    +0.000 C 
ATOM      2  C   UNL     1       3.704   7.709  17.142  0.00  0.00    +0.000 C 
ATOM      3  C   UNL     1       4.804   6.705  17.278  0.00  0.00    +0.000 A 
ATOM      4  C   UNL     1       5.572   6.310  16.174  0.00  0.00    +0.000 A 
ATOM      5  C   UNL     1       6.591   5.373  16.303  0.00  0.00    +0.000 A 
ATOM      6  C   UNL     1       6.858   4.827  17.549  0.00  0.00    +0.000 A 
ATOM      7  C   UNL     1       6.125   5.217  18.668  0.00  0.00    +0.000 A 
ATOM      8  C   UNL     1       5.088   6.143  18.526  0.00  0.00    +0.000 A 
ATOM      9  O   UNL     1       4.363   6.457  19.649  0.00  0.00    +0.000 OA
ATOM     10  C   UNL     1       2.958   6.684  19.390  0.00  0.00    +0.000 C 
ENDROOT
BRANCH  10  11
ATOM     11  C   UNL     1       2.261   5.329  19.244  0.00  0.00    +0.000 A 
ATOM     12  C   UNL     1       1.716   4.706  20.393  0.00  0.00    +0.000 A 
ATOM     13  C   UNL     1       1.259   3.390  20.329  0.00  0.00    +0.000 A 
ATOM     14  C   UNL     1       1.359   2.675  19.144  0.00  0.00    +0.000 A 
ATOM     15  C   UNL     1       1.858   3.287  18.005  0.00  0.00    +0.000 A 
ATOM     16  C   UNL     1       2.275   4.611  18.036  0.00  0.00    +0.000 A 
BRANCH  13  17
ATOM     17  O   UNL     1       0.741   2.743  21.417  0.00  0.00    +0.000 OA
ATOM     18  H   UNL     1       0.687   3.376  22.154  0.00  0.00    +0.000 HD
ENDBRANCH  13  17
BRANCH  14  19
ATOM     19  O   UNL     1       0.996   1.356  19.088  0.00  0.00    +0.000 OA
ATOM     20  H   UNL     1       0.067   1.378  18.778  0.00  0.00    +0.000 HD
ENDBRANCH  14  19
BRANCH  15  21
ATOM     21  O   UNL     1       2.001   2.576  16.849  0.00  0.00    +0.000 OA
ATOM     22  H   UNL     1       1.632   1.694  17.060  0.00  0.00    +0.000 HD
ENDBRANCH  15  21
ENDBRANCH  10  11
BRANCH   4  23
ATOM     23  O   UNL     1       5.376   6.794  14.909  0.00  0.00    +0.000 OA
ATOM     24  H   UNL     1       6.181   6.688  14.379  0.00  0.00    +0.000 HD
ENDBRANCH   4  23
BRANCH   6  25
ATOM     25  O   UNL     1       7.834   3.888  17.706  0.00  0.00    +0.000 OA
ATOM     26  H   UNL     1       7.505   3.043  17.356  0.00  0.00    +0.000 HD
ENDBRANCH   6  25
BRANCH   1  27
ATOM     27  O   UNL     1       1.361   7.787  17.882  0.00  0.00    +0.000 OA
BRANCH  27  29
ATOM     28  O   UNL     1      -0.279   9.231  17.187  0.00  0.00    +0.000 OA
ATOM     29  C   UNL     1       0.718   8.991  17.842  0.00  0.00    +0.000 C 
BRANCH  29  30
ATOM     30  C   UNL     1       1.431   9.967  18.739  0.00  0.00    +0.000 C 
BRANCH  30  31
ATOM     31  C   UNL     1       0.492  11.048  19.267  0.00  0.00    +0.000 C 
BRANCH  31  32
ATOM     32  C   UNL     1       0.008  10.682  20.648  0.00  0.00    +0.000 A 
ATOM     33  C   UNL     1      -0.602  11.652  21.456  0.00  0.00    +0.000 A 
ATOM     34  C   UNL     1      -0.984  11.345  22.762  0.00  0.00    +0.000 A 
ATOM     35  C   UNL     1      -0.761  10.071  23.274  0.00  0.00    +0.000 A 
ATOM     36  C   UNL     1      -0.155   9.097  22.478  0.00  0.00    +0.000 A 
ATOM     37  C   UNL     1       0.228   9.401  21.171  0.00  0.00    +0.000 A 
ENDBRANCH  31  32
ENDBRANCH  30  31
ENDBRANCH  29  30
ENDBRANCH  27  29
ENDBRANCH   1  27
TORSDOF 11
ENDMDL
MODEL 8
REMARK VINA RESULT:      -8.0      2.078      4.475
REMARK  Name = 
REMARK  11 active torsions:
REMARK  status: ('A' for Active; 'I' for Inactive)
REMARK    1  A    between atoms: C_2  and  C_3
REMARK    2  A    between atoms: C_2  and  O_11
REMARK    3  A    between atoms: C_3  and  C_4
REMARK    4  A    between atoms: C_4  and  C_5
REMARK    5  A    between atoms: O_11  and  C_12
REMARK    6  A    between atoms: C_15  and  O_16
REMARK    7  A    between atoms: C_18  and  O_19
REMARK    8  A    between atoms: C_23  and  C_24
REMARK    9  A    between atoms: C_26  and  O_27
REMARK   10  A    between atoms: C_28  and  O_29
REMARK   11  A    between atoms: C_30  and  O_31
REMARK                            x       y       z     vdW  Elec       q    Type
REMARK                         _______ _______ _______ _____ _____    ______ ____
ROOT
ATOM      1  C   UNL     1       0.220   9.748  18.541  0.00  0.00    +0.000 C 
ATOM      2  C   UNL     1      -0.792   9.439  17.431  0.00  0.00    +0.000 C 
ATOM      3  C   UNL     1      -2.030  10.277  17.440  0.00  0.00    +0.000 A 
ATOM      4  C   UNL     1      -2.892  10.317  16.336  0.00  0.00    +0.000 A 
ATOM      5  C   UNL     1      -4.041  11.099  16.346  0.00  0.00    +0.000 A 
ATOM      6  C   UNL     1      -4.343  11.847  17.474  0.00  0.00    +0.000 A 
ATOM      7  C   UNL     1      -3.516  11.809  18.595  0.00  0.00    +0.000 A 
ATOM      8  C   UNL     1      -2.353  11.037  18.568  0.00  0.00    +0.000 A 
ATOM      9  O   UNL     1      -1.545  11.072  19.679  0.00  0.00    +0.000 OA
ATOM     10  C   UNL     1      -0.133  11.006  19.373  0.00  0.00    +0.000 C 
ENDROOT
BRANCH  10  11
ATOM     11  C   UNL     1       0.335  12.389  18.913  0.00  0.00    +0.000 A 
ATOM     12  C   UNL     1       1.689  12.571  18.540  0.00  0.00    +0.000 A 
ATOM     13  C   UNL     1       2.189  13.853  18.314  0.00  0.00    +0.000 A 
ATOM     14  C   UNL     1       1.369  14.960  18.476  0.00  0.00    +0.000 A 
ATOM     15  C   UNL     1       0.033  14.790  18.805  0.00  0.00    +0.000 A 
ATOM     16  C   UNL     1      -0.496  13.520  18.990  0.00  0.00    +0.000 A 
BRANCH  13  17
ATOM     17  O   UNL     1       3.494  14.077  17.969  0.00  0.00    +0.000 OA
ATOM     18  H   UNL     1       3.984  14.335  18.769  0.00  0.00    +0.000 HD
ENDBRANCH  13  17
BRANCH  14  19
ATOM     19  O   UNL     1       1.867  16.227  18.343  0.00  0.00    +0.000 OA
ATOM     20  H   UNL     1       1.750  16.431  17.392  0.00  0.00    +0.000 HD
ENDBRANCH  14  19
BRANCH  15  21
ATOM     21  O   UNL     1      -0.768  15.876  19.011  0.00  0.00    +0.000 OA
ATOM     22  H   UNL     1      -1.116  16.092  18.122  0.00  0.00    +0.000 HD
ENDBRANCH  15  21
ENDBRANCH  10  11
BRANCH   4  23
ATOM     23  O   UNL     1      -2.669   9.616  15.182  0.00  0.00    +0.000 OA
ATOM     24  H   UNL     1      -1.742   9.335  15.131  0.00  0.00    +0.000 HD
ENDBRANCH   4  23
BRANCH   6  25
ATOM     25  O   UNL     1      -5.449  12.644  17.508  0.00  0.00    +0.000 OA
ATOM     26  H   UNL     1      -5.624  12.886  18.433  0.00  0.00    +0.000 HD
ENDBRANCH   6  25
BRANCH   1  27
ATOM     27  O   UNL     1       1.561   9.862  18.007  0.00  0.00    +0.000 OA
BRANCH  27  29
ATOM     28  O   UNL     1       2.994   8.413  16.956  0.00  0.00    +0.000 OA
ATOM     29  C   UNL     1       2.285   8.709  17.901  0.00  0.00    +0.000 C 
BRANCH  29  30
ATOM     30  C   UNL     1       2.077   7.873  19.134  0.00  0.00    +0.000 C 
BRANCH  30  31
ATOM     31  C   UNL     1       3.068   6.715  19.212  0.00  0.00    +0.000 C 
BRANCH  31  32
ATOM     32  C   UNL     1       2.325   5.404  19.291  0.00  0.00    +0.000 A 
ATOM     33  C   UNL     1       2.115   4.648  18.129  0.00  0.00    +0.000 A 
ATOM     34  C   UNL     1       1.365   3.473  18.177  0.00  0.00    +0.000 A 
ATOM     35  C   UNL     1       0.817   3.043  19.381  0.00  0.00    +0.000 A 
ATOM     36  C   UNL     1       1.020   3.788  20.544  0.00  0.00    +0.000 A 
ATOM     37  C   UNL     1       1.771   4.963  20.500  0.00  0.00    +0.000 A 
ENDBRANCH  31  32
ENDBRANCH  30  31
ENDBRANCH  29  30
ENDBRANCH  27  29
ENDBRANCH   1  27
TORSDOF 11
ENDMDL
MODEL 9
REMARK VINA RESULT:      -8.0      1.464      2.325
REMARK  Name = 
REMARK  11 active torsions:
REMARK  status: ('A' for Active; 'I' for Inactive)
REMARK    1  A    between atoms: C_2  and  C_3
REMARK    2  A    between atoms: C_2  and  O_11
REMARK    3  A    between atoms: C_3  and  C_4
REMARK    4  A    between atoms: C_4  and  C_5
REMARK    5  A    between atoms: O_11  and  C_12
REMARK    6  A    between atoms: C_15  and  O_16
REMARK    7  A    between atoms: C_18  and  O_19
REMARK    8  A    between atoms: C_23  and  C_24
REMARK    9  A    between atoms: C_26  and  O_27
REMARK   10  A    between atoms: C_28  and  O_29
REMARK   11  A    between atoms: C_30  and  O_31
REMARK                            x       y       z     vdW  Elec       q    Type
REMARK                         _______ _______ _______ _____ _____    ______ ____
ROOT
ATOM      1  C   UNL     1       0.897  10.320  19.490  0.00  0.00    +0.000 C 
ATOM      2  C   UNL     1       0.602  10.006  20.961  0.00  0.00    +0.000 C 
ATOM      3  C   UNL     1      -0.320  10.961  21.650  0.00  0.00    +0.000 A 
ATOM      4  C   UNL     1      -0.910  10.646  22.881  0.00  0.00    +0.000 A 
ATOM      5  C   UNL     1      -1.770  11.535  23.517  0.00  0.00    +0.000 A 
ATOM      6  C   UNL     1      -2.039  12.760  22.924  0.00  0.00    +0.000 A 
ATOM      7  C   UNL     1      -1.450  13.108  21.711  0.00  0.00    +0.000 A 
ATOM      8  C   UNL     1      -0.605  12.201  21.069  0.00  0.00    +0.000 A 
ATOM      9  O   UNL     1      -0.087  12.571  19.852  0.00  0.00    +0.000 OA
ATOM     10  C   UNL     1       0.040  11.475  18.916  0.00  0.00    +0.000 C 
ENDROOT
BRANCH  10  11
ATOM     11  C   UNL     1      -1.337  11.184  18.312  0.00  0.00    +0.000 A 
ATOM     12  C   UNL     1      -1.426  10.368  17.159  0.00  0.00    +0.000 A 
ATOM     13  C   UNL     1      -2.633  10.252  16.471  0.00  0.00    +0.000 A 
ATOM     14  C   UNL     1      -3.750  10.955  16.901  0.00  0.00    +0.000 A 
ATOM     15  C   UNL     1      -3.683  11.728  18.049  0.00  0.00    +0.000 A 
ATOM     16  C   UNL     1      -2.502  11.821  18.773  0.00  0.00    +0.000 A 
BRANCH  13  17
ATOM     17  O   UNL     1      -2.761   9.488  15.343  0.00  0.00    +0.000 OA
ATOM     18  H   UNL     1      -3.571   9.760  14.878  0.00  0.00    +0.000 HD
ENDBRANCH  13  17
BRANCH  14  19
ATOM     19  O   UNL     1      -4.917  10.920  16.187  0.00  0.00    +0.000 OA
ATOM     20  H   UNL     1      -4.899  10.047  15.742  0.00  0.00    +0.000 HD
ENDBRANCH  14  19
BRANCH  15  21
ATOM     21  O   UNL     1      -4.764  12.459  18.450  0.00  0.00    +0.000 OA
ATOM     22  H   UNL     1      -4.520  12.782  19.341  0.00  0.00    +0.000 HD
ENDBRANCH  15  21
ENDBRANCH  10  11
BRANCH   4  23
ATOM     23  O   UNL     1      -0.703   9.462  23.534  0.00  0.00    +0.000 OA
ATOM     24  H   UNL     1       0.128   9.492  24.033  0.00  0.00    +0.000 HD
ENDBRANCH   4  23
BRANCH   6  25
ATOM     25  O   UNL     1      -2.897  13.645  23.509  0.00  0.00    +0.000 OA
ATOM     26  H   UNL     1      -3.736  13.187  23.686  0.00  0.00    +0.000 HD
ENDBRANCH   6  25
BRANCH   1  27
ATOM     27  O   UNL     1       0.760   9.138  18.666  0.00  0.00    +0.000 OA
BRANCH  27  29
ATOM     28  O   UNL     1       2.446   9.076  17.113  0.00  0.00    +0.000 OA
ATOM     29  C   UNL     1       1.901   8.636  18.109  0.00  0.00    +0.000 C 
BRANCH  29  30
ATOM     30  C   UNL     1       2.380   7.463  18.922  0.00  0.00    +0.000 C 
BRANCH  30  31
ATOM     31  C   UNL     1       2.809   6.295  18.039  0.00  0.00    +0.000 C 
BRANCH  31  32
ATOM     32  C   UNL     1       4.309   6.135  18.089  0.00  0.00    +0.000 A 
ATOM     33  C   UNL     1       4.898   5.373  19.108  0.00  0.00    +0.000 A 
ATOM     34  C   UNL     1       6.286   5.281  19.208  0.00  0.00    +0.000 A 
ATOM     35  C   UNL     1       7.098   5.948  18.296  0.00  0.00    +0.000 A 
ATOM     36  C   UNL     1       6.522   6.709  17.277  0.00  0.00    +0.000 A 
ATOM     37  C   UNL     1       5.134   6.802  17.174  0.00  0.00    +0.000 A 
ENDBRANCH  31  32
ENDBRANCH  30  31
ENDBRANCH  29  30
ENDBRANCH  27  29
ENDBRANCH   1  27
TORSDOF 11
ENDMDL
