MODEL 1
REMARK VINA RESULT:      -8.6      0.000      0.000
REMARK  Name = 
REMARK  10 active torsions:
REMARK  status: ('A' for Active; 'I' for Inactive)
REMARK    1  A    between atoms: C_1  and  C_2
REMARK    2  A    between atoms: C_2  and  O_3
REMARK    3  A    between atoms: O_3  and  C_4
REMARK    4  A    between atoms: C_6  and  C_7
REMARK    5  A    between atoms: N_11  and  C_12
REMARK    6  A    between atoms: C_15  and  C_16
REMARK    7  A    between atoms: C_22  and  C_23
REMARK    8  A    between atoms: C_26  and  O_27
REMARK    9  A    between atoms: O_27  and  C_28
REMARK   10  A    between atoms: C_28  and  C_30
REMARK                            x       y       z     vdW  Elec       q    Type
REMARK                         _______ _______ _______ _____ _____    ______ ____
ROOT
ATOM      1  C   UNL     1       1.252   6.849  21.026  0.00  0.00    +0.000 C 
ATOM      2  C   UNL     1       2.004   6.083  20.229  0.00  0.00    +0.000 C 
ATOM      3  C   UNL     1       2.782   6.527  19.052  0.00  0.00    +0.000 C 
ATOM      4  O   UNL     1       2.948   7.682  18.703  0.00  0.00    +0.000 OA
ATOM      5  N   UNL     1       3.228   5.319  18.510  0.00  0.00    +0.000 N 
ATOM      6  N   UNL     1       2.884   4.191  19.252  0.00  0.00    +0.000 NA
ATOM      7  C   UNL     1       2.209   4.627  20.280  0.00  0.00    +0.000 C 
ATOM      8  C   UNL     1       1.757   3.747  21.397  0.00  0.00    +0.000 C 
ENDROOT
BRANCH   1  11
ATOM      9  C   UNL     1       0.156  10.103  19.472  0.00  0.00    +0.000 A 
ATOM     10  C   UNL     1       0.548   8.762  19.619  0.00  0.00    +0.000 A 
ATOM     11  C   UNL     1       1.058   8.287  20.830  0.00  0.00    +0.000 A 
ATOM     12  C   UNL     1       1.339   9.189  21.852  0.00  0.00    +0.000 A 
ATOM     13  C   UNL     1       1.022  10.535  21.698  0.00  0.00    +0.000 A 
ATOM     14  C   UNL     1       0.372  10.991  20.539  0.00  0.00    +0.000 A 
BRANCH   9  15
ATOM     15  O   UNL     1      -0.457  10.555  18.329  0.00  0.00    +0.000 OA
BRANCH  15  17
ATOM     16  C   UNL     1      -2.220  10.020  16.788  0.00  0.00    +0.000 C 
ATOM     17  C   UNL     1      -1.855  10.229  18.242  0.00  0.00    +0.000 C 
ENDBRANCH  15  17
ENDBRANCH   9  15
BRANCH  14  18
ATOM     18  O   UNL     1       0.012  12.354  20.452  0.00  0.00    +0.000 OA
BRANCH  18  19
ATOM     19  C   UNL     1      -0.226  13.031  21.664  0.00  0.00    +0.000 C 
ATOM     20  O   UNL     1       0.604  13.709  22.258  0.00  0.00    +0.000 OA
BRANCH  19  21
ATOM     21  C   UNL     1      -1.624  12.877  22.066  0.00  0.00    +0.000 A 
ATOM     22  C   UNL     1      -2.170  12.632  23.313  0.00  0.00    +0.000 A 
ATOM     23  C   UNL     1      -3.596  12.527  23.287  0.00  0.00    +0.000 A 
ATOM     24  C   UNL     1      -4.098  12.684  22.011  0.00  0.00    +0.000 A 
ATOM     25  S   UNL     1      -2.856  12.941  20.863  0.00  0.00    +0.000 S 
ENDBRANCH  19  21
ENDBRANCH  18  19
ENDBRANCH  14  18
ENDBRANCH   1  11
BRANCH   5  26
ATOM     26  C   UNL     1       4.091   5.167  17.400  0.00  0.00    +0.000 A 
ATOM     27  C   UNL     1       4.588   6.286  16.715  0.00  0.00    +0.000 A 
ATOM     28  C   UNL     1       5.477   6.146  15.650  0.00  0.00    +0.000 A 
ATOM     29  C   UNL     1       5.871   4.873  15.232  0.00  0.00    +0.000 A 
ATOM     30  C   UNL     1       5.369   3.748  15.898  0.00  0.00    +0.000 A 
ATOM     31  C   UNL     1       4.489   3.896  16.979  0.00  0.00    +0.000 A 
BRANCH  29  32
ATOM     32  C   UNL     1       6.812   4.657  14.100  0.00  0.00    +0.000 C 
ATOM     33  N   UNL     1       6.563   3.637  13.226  0.00  0.00    +0.000 N 
ATOM     34  O   UNL     1       7.794   5.378  13.936  0.00  0.00    +0.000 OA
ATOM     35  H   UNL     1       5.779   3.007  13.265  0.00  0.00    +0.000 HD
ATOM     36  H   UNL     1       7.217   3.522  12.465  0.00  0.00    +0.000 HD
ENDBRANCH  29  32
ENDBRANCH   5  26
TORSDOF 8
ENDMDL
MODEL 2
REMARK VINA RESULT:      -8.4      0.589      1.156
REMARK  Name = 
REMARK  10 active torsions:
REMARK  status: ('A' for Active; 'I' for Inactive)
REMARK    1  A    between atoms: C_1  and  C_2
REMARK    2  A    between atoms: C_2  and  O_3
REMARK    3  A    between atoms: O_3  and  C_4
REMARK    4  A    between atoms: C_6  and  C_7
REMARK    5  A    between atoms: N_11  and  C_12
REMARK    6  A    between atoms: C_15  and  C_16
REMARK    7  A    between atoms: C_22  and  C_23
REMARK    8  A    between atoms: C_26  and  O_27
REMARK    9  A    between atoms: O_27  and  C_28
REMARK   10  A    between atoms: C_28  and  C_30
REMARK                            x       y       z     vdW  Elec       q    Type
REMARK                         _______ _______ _______ _____ _____    ______ ____
ROOT
ATOM      1  C   UNL     1       1.139   6.891  20.960  0.00  0.00    +0.000 C 
ATOM      2  C   UNL     1       1.898   6.110  20.185  0.00  0.00    +0.000 C 
ATOM      3  C   UNL     1       2.762   6.546  19.066  0.00  0.00    +0.000 C 
ATOM      4  O   UNL     1       3.003   7.700  18.760  0.00  0.00    +0.000 OA
ATOM      5  N   UNL     1       3.181   5.332  18.516  0.00  0.00    +0.000 N 
ATOM      6  N   UNL     1       2.742   4.203  19.205  0.00  0.00    +0.000 NA
ATOM      7  C   UNL     1       2.030   4.645  20.206  0.00  0.00    +0.000 C 
ATOM      8  C   UNL     1       1.474   3.760  21.270  0.00  0.00    +0.000 C 
ENDROOT
BRANCH   1  11
ATOM      9  C   UNL     1       0.127  10.232  19.540  0.00  0.00    +0.000 A 
ATOM     10  C   UNL     1       0.440   8.867  19.639  0.00  0.00    +0.000 A 
ATOM     11  C   UNL     1       1.025   8.342  20.795  0.00  0.00    +0.000 A 
ATOM     12  C   UNL     1       1.457   9.209  21.794  0.00  0.00    +0.000 A 
ATOM     13  C   UNL     1       1.219  10.574  21.681  0.00  0.00    +0.000 A 
ATOM     14  C   UNL     1       0.499  11.089  20.590  0.00  0.00    +0.000 A 
BRANCH   9  15
ATOM     15  O   UNL     1      -0.555  10.741  18.462  0.00  0.00    +0.000 OA
BRANCH  15  17
ATOM     16  C   UNL     1      -2.350  10.567  16.876  0.00  0.00    +0.000 C 
ATOM     17  C   UNL     1      -1.829  10.117  18.224  0.00  0.00    +0.000 C 
ENDBRANCH  15  17
ENDBRANCH   9  15
BRANCH  14  18
ATOM     18  O   UNL     1       0.224  12.474  20.548  0.00  0.00    +0.000 OA
BRANCH  18  19
ATOM     19  C   UNL     1      -0.432  13.030  21.663  0.00  0.00    +0.000 C 
ATOM     20  O   UNL     1       0.131  13.594  22.594  0.00  0.00    +0.000 OA
BRANCH  19  21
ATOM     21  C   UNL     1      -1.881  12.911  21.511  0.00  0.00    +0.000 A 
ATOM     22  C   UNL     1      -2.670  13.023  20.380  0.00  0.00    +0.000 A 
ATOM     23  C   UNL     1      -4.065  12.860  20.654  0.00  0.00    +0.000 A 
ATOM     24  C   UNL     1      -4.301  12.640  21.995  0.00  0.00    +0.000 A 
ATOM     25  S   UNL     1      -2.853  12.643  22.908  0.00  0.00    +0.000 S 
ENDBRANCH  19  21
ENDBRANCH  18  19
ENDBRANCH  14  18
ENDBRANCH   1  11
BRANCH   5  26
ATOM     26  C   UNL     1       4.098   5.167  17.452  0.00  0.00    +0.000 A 
ATOM     27  C   UNL     1       4.546   3.890  17.079  0.00  0.00    +0.000 A 
ATOM     28  C   UNL     1       5.411   3.715  16.000  0.00  0.00    +0.000 A 
ATOM     29  C   UNL     1       5.867   4.823  15.282  0.00  0.00    +0.000 A 
ATOM     30  C   UNL     1       5.440   6.103  15.656  0.00  0.00    +0.000 A 
ATOM     31  C   UNL     1       4.555   6.271  16.731  0.00  0.00    +0.000 A 
BRANCH  29  32
ATOM     32  C   UNL     1       6.796   4.702  14.126  0.00  0.00    +0.000 C 
ATOM     33  N   UNL     1       6.582   3.707  13.215  0.00  0.00    +0.000 N 
ATOM     34  O   UNL     1       7.737   5.479  13.975  0.00  0.00    +0.000 OA
ATOM     35  H   UNL     1       5.832   3.036  13.242  0.00  0.00    +0.000 HD
ATOM     36  H   UNL     1       7.227   3.656  12.439  0.00  0.00    +0.000 HD
ENDBRANCH  29  32
ENDBRANCH   5  26
TORSDOF 8
ENDMDL
MODEL 3
REMARK VINA RESULT:      -8.3      1.724      2.605
REMARK  Name = 
REMARK  10 active torsions:
REMARK  status: ('A' for Active; 'I' for Inactive)
REMARK    1  A    between atoms: C_1  and  C_2
REMARK    2  A    between atoms: C_2  and  O_3
REMARK    3  A    between atoms: O_3  and  C_4
REMARK    4  A    between atoms: C_6  and  C_7
REMARK    5  A    between atoms: N_11  and  C_12
REMARK    6  A    between atoms: C_15  and  C_16
REMARK    7  A    between atoms: C_22  and  C_23
REMARK    8  A    between atoms: C_26  and  O_27
REMARK    9  A    between atoms: O_27  and  C_28
REMARK   10  A    between atoms: C_28  and  C_30
REMARK                            x       y       z     vdW  Elec       q    Type
REMARK                         _______ _______ _______ _____ _____    ______ ____
ROOT
ATOM      1  C   UNL     1       1.252   6.928  21.038  0.00  0.00    +0.000 C 
ATOM      2  C   UNL     1       2.014   6.166  20.247  0.00  0.00    +0.000 C 
ATOM      3  C   UNL     1       2.773   6.609  19.058  0.00  0.00    +0.000 C 
ATOM      4  O   UNL     1       2.914   7.761  18.690  0.00  0.00    +0.000 OA
ATOM      5  N   UNL     1       3.241   5.402  18.531  0.00  0.00    +0.000 N 
ATOM      6  N   UNL     1       2.925   4.278  19.292  0.00  0.00    +0.000 NA
ATOM      7  C   UNL     1       2.248   4.716  20.319  0.00  0.00    +0.000 C 
ATOM      8  C   UNL     1       1.823   3.844  21.452  0.00  0.00    +0.000 C 
ENDROOT
BRANCH   1  11
ATOM      9  C   UNL     1       0.101  10.137  19.430  0.00  0.00    +0.000 A 
ATOM     10  C   UNL     1       0.523   8.808  19.598  0.00  0.00    +0.000 A 
ATOM     11  C   UNL     1       1.026   8.360  20.822  0.00  0.00    +0.000 A 
ATOM     12  C   UNL     1       1.271   9.280  21.837  0.00  0.00    +0.000 A 
ATOM     13  C   UNL     1       0.925  10.616  21.663  0.00  0.00    +0.000 A 
ATOM     14  C   UNL     1       0.282  11.043  20.489  0.00  0.00    +0.000 A 
BRANCH   9  15
ATOM     15  O   UNL     1      -0.505  10.562  18.273  0.00  0.00    +0.000 OA
BRANCH  15  17
ATOM     16  C   UNL     1      -2.276   9.892  16.795  0.00  0.00    +0.000 C 
ATOM     17  C   UNL     1      -1.916  10.284  18.212  0.00  0.00    +0.000 C 
ENDBRANCH  15  17
ENDBRANCH   9  15
BRANCH  14  18
ATOM     18  O   UNL     1      -0.110  12.396  20.381  0.00  0.00    +0.000 OA
BRANCH  18  19
ATOM     19  C   UNL     1       0.768  13.360  20.911  0.00  0.00    +0.000 C 
ATOM     20  O   UNL     1       0.850  13.650  22.099  0.00  0.00    +0.000 OA
BRANCH  19  21
ATOM     21  C   UNL     1       1.623  13.903  19.857  0.00  0.00    +0.000 A 
ATOM     22  C   UNL     1       2.635  13.300  19.131  0.00  0.00    +0.000 A 
ATOM     23  C   UNL     1       3.253  14.186  18.193  0.00  0.00    +0.000 A 
ATOM     24  C   UNL     1       2.699  15.449  18.240  0.00  0.00    +0.000 A 
ATOM     25  S   UNL     1       1.458  15.560  19.412  0.00  0.00    +0.000 S 
ENDBRANCH  19  21
ENDBRANCH  18  19
ENDBRANCH  14  18
ENDBRANCH   1  11
BRANCH   5  26
ATOM     26  C   UNL     1       4.098   5.251  17.417  0.00  0.00    +0.000 A 
ATOM     27  C   UNL     1       4.607   6.371  16.742  0.00  0.00    +0.000 A 
ATOM     28  C   UNL     1       5.492   6.231  15.674  0.00  0.00    +0.000 A 
ATOM     29  C   UNL     1       5.870   4.958  15.241  0.00  0.00    +0.000 A 
ATOM     30  C   UNL     1       5.355   3.833  15.896  0.00  0.00    +0.000 A 
ATOM     31  C   UNL     1       4.480   3.980  16.982  0.00  0.00    +0.000 A 
BRANCH  29  32
ATOM     32  C   UNL     1       6.805   4.742  14.104  0.00  0.00    +0.000 C 
ATOM     33  N   UNL     1       6.547   3.728  13.227  0.00  0.00    +0.000 N 
ATOM     34  O   UNL     1       7.790   5.460  13.939  0.00  0.00    +0.000 OA
ATOM     35  H   UNL     1       5.760   3.101  13.267  0.00  0.00    +0.000 HD
ATOM     36  H   UNL     1       7.198   3.612  12.463  0.00  0.00    +0.000 HD
ENDBRANCH  29  32
ENDBRANCH   5  26
TORSDOF 8
ENDMDL
MODEL 4
REMARK VINA RESULT:      -8.2      1.323      1.738
REMARK  Name = 
REMARK  10 active torsions:
REMARK  status: ('A' for Active; 'I' for Inactive)
REMARK    1  A    between atoms: C_1  and  C_2
REMARK    2  A    between atoms: C_2  and  O_3
REMARK    3  A    between atoms: O_3  and  C_4
REMARK    4  A    between atoms: C_6  and  C_7
REMARK    5  A    between atoms: N_11  and  C_12
REMARK    6  A    between atoms: C_15  and  C_16
REMARK    7  A    between atoms: C_22  and  C_23
REMARK    8  A    between atoms: C_26  and  O_27
REMARK    9  A    between atoms: O_27  and  C_28
REMARK   10  A    between atoms: C_28  and  C_30
REMARK                            x       y       z     vdW  Elec       q    Type
REMARK                         _______ _______ _______ _____ _____    ______ ____
ROOT
ATOM      1  C   UNL     1       1.077   6.607  21.188  0.00  0.00    +0.000 C 
ATOM      2  C   UNL     1       1.844   5.893  20.358  0.00  0.00    +0.000 C 
ATOM      3  C   UNL     1       2.650   6.411  19.232  0.00  0.00    +0.000 C 
ATOM      4  O   UNL     1       2.830   7.585  18.966  0.00  0.00    +0.000 OA
ATOM      5  N   UNL     1       3.103   5.239  18.620  0.00  0.00    +0.000 N 
ATOM      6  N   UNL     1       2.737   4.065  19.275  0.00  0.00    +0.000 NA
ATOM      7  C   UNL     1       2.040   4.435  20.315  0.00  0.00    +0.000 C 
ATOM      8  C   UNL     1       1.558   3.484  21.359  0.00  0.00    +0.000 C 
ENDROOT
BRANCH   1  11
ATOM      9  C   UNL     1      -0.291   9.943  20.090  0.00  0.00    +0.000 A 
ATOM     10  C   UNL     1       0.071   8.586  20.089  0.00  0.00    +0.000 A 
ATOM     11  C   UNL     1       0.894   8.057  21.086  0.00  0.00    +0.000 A 
ATOM     12  C   UNL     1       1.501   8.917  21.997  0.00  0.00    +0.000 A 
ATOM     13  C   UNL     1       1.210  10.277  21.969  0.00  0.00    +0.000 A 
ATOM     14  C   UNL     1       0.267  10.791  21.062  0.00  0.00    +0.000 A 
BRANCH   9  15
ATOM     15  O   UNL     1      -1.193  10.451  19.188  0.00  0.00    +0.000 OA
BRANCH  15  17
ATOM     16  C   UNL     1      -2.197   9.981  17.058  0.00  0.00    +0.000 C 
ATOM     17  C   UNL     1      -0.897  10.134  17.816  0.00  0.00    +0.000 C 
ENDBRANCH  15  17
ENDBRANCH   9  15
BRANCH  14  18
ATOM     18  O   UNL     1      -0.046  12.167  21.113  0.00  0.00    +0.000 OA
BRANCH  18  19
ATOM     19  C   UNL     1      -0.897  12.592  22.150  0.00  0.00    +0.000 C 
ATOM     20  O   UNL     1      -1.759  11.895  22.674  0.00  0.00    +0.000 OA
BRANCH  19  21
ATOM     21  C   UNL     1      -0.551  13.949  22.567  0.00  0.00    +0.000 A 
ATOM     22  C   UNL     1       0.425  14.807  22.090  0.00  0.00    +0.000 A 
ATOM     23  C   UNL     1       0.459  16.056  22.786  0.00  0.00    +0.000 A 
ATOM     24  C   UNL     1      -0.490  16.111  23.786  0.00  0.00    +0.000 A 
ATOM     25  S   UNL     1      -1.397  14.663  23.888  0.00  0.00    +0.000 S 
ENDBRANCH  19  21
ENDBRANCH  18  19
ENDBRANCH  14  18
ENDBRANCH   1  11
BRANCH   5  26
ATOM     26  C   UNL     1       3.990   5.157  17.522  0.00  0.00    +0.000 A 
ATOM     27  C   UNL     1       4.411   6.313  16.847  0.00  0.00    +0.000 A 
ATOM     28  C   UNL     1       5.323   6.245  15.795  0.00  0.00    +0.000 A 
ATOM     29  C   UNL     1       5.819   5.008  15.379  0.00  0.00    +0.000 A 
ATOM     30  C   UNL     1       5.393   3.846  16.033  0.00  0.00    +0.000 A 
ATOM     31  C   UNL     1       4.489   3.922  17.103  0.00  0.00    +0.000 A 
BRANCH  29  32
ATOM     32  C   UNL     1       6.789   4.868  14.259  0.00  0.00    +0.000 C 
ATOM     33  N   UNL     1       6.496   4.005  13.242  0.00  0.00    +0.000 N 
ATOM     34  O   UNL     1       7.834   5.515  14.233  0.00  0.00    +0.000 OA
ATOM     35  H   UNL     1       5.661   3.448  13.165  0.00  0.00    +0.000 HD
ATOM     36  H   UNL     1       7.172   3.939  12.494  0.00  0.00    +0.000 HD
ENDBRANCH  29  32
ENDBRANCH   5  26
TORSDOF 8
ENDMDL
MODEL 5
REMARK VINA RESULT:      -8.1      1.759      2.280
REMARK  Name = 
REMARK  10 active torsions:
REMARK  status: ('A' for Active; 'I' for Inactive)
REMARK    1  A    between atoms: C_1  and  C_2
REMARK    2  A    between atoms: C_2  and  O_3
REMARK    3  A    between atoms: O_3  and  C_4
REMARK    4  A    between atoms: C_6  and  C_7
REMARK    5  A    between atoms: N_11  and  C_12
REMARK    6  A    between atoms: C_15  and  C_16
REMARK    7  A    between atoms: C_22  and  C_23
REMARK    8  A    between atoms: C_26  and  O_27
REMARK    9  A    between atoms: O_27  and  C_28
REMARK   10  A    between atoms: C_28  and  C_30
REMARK                            x       y       z     vdW  Elec       q    Type
REMARK                         _______ _______ _______ _____ _____    ______ ____
ROOT
ATOM      1  C   UNL     1       1.185   6.709  21.052  0.00  0.00    +0.000 C 
ATOM      2  C   UNL     1       1.910   5.967  20.210  0.00  0.00    +0.000 C 
ATOM      3  C   UNL     1       2.747   6.459  19.094  0.00  0.00    +0.000 C 
ATOM      4  O   UNL     1       2.995   7.626  18.850  0.00  0.00    +0.000 OA
ATOM      5  N   UNL     1       3.134   5.275  18.460  0.00  0.00    +0.000 N 
ATOM      6  N   UNL     1       2.699   4.112  19.093  0.00  0.00    +0.000 NA
ATOM      7  C   UNL     1       2.023   4.502  20.139  0.00  0.00    +0.000 C 
ATOM      8  C   UNL     1       1.486   3.561  21.165  0.00  0.00    +0.000 C 
ENDROOT
BRANCH   1  11
ATOM      9  C   UNL     1       0.426  10.151  19.716  0.00  0.00    +0.000 A 
ATOM     10  C   UNL     1       0.732   8.781  19.772  0.00  0.00    +0.000 A 
ATOM     11  C   UNL     1       1.085   8.169  20.977  0.00  0.00    +0.000 A 
ATOM     12  C   UNL     1       1.302   8.956  22.104  0.00  0.00    +0.000 A 
ATOM     13  C   UNL     1       1.072  10.327  22.049  0.00  0.00    +0.000 A 
ATOM     14  C   UNL     1       0.573  10.925  20.880  0.00  0.00    +0.000 A 
BRANCH   9  15
ATOM     15  O   UNL     1      -0.038  10.741  18.566  0.00  0.00    +0.000 OA
BRANCH  15  17
ATOM     16  C   UNL     1      -1.804   9.893  17.176  0.00  0.00    +0.000 C 
ATOM     17  C   UNL     1      -1.468  10.694  18.415  0.00  0.00    +0.000 C 
ENDBRANCH  15  17
ENDBRANCH   9  15
BRANCH  14  18
ATOM     18  O   UNL     1       0.293  12.309  20.889  0.00  0.00    +0.000 OA
BRANCH  18  19
ATOM     19  C   UNL     1       1.385  13.183  20.736  0.00  0.00    +0.000 C 
ATOM     20  O   UNL     1       2.517  12.965  21.152  0.00  0.00    +0.000 OA
BRANCH  19  21
ATOM     21  C   UNL     1       0.997  14.347  19.940  0.00  0.00    +0.000 A 
ATOM     22  C   UNL     1       1.778  15.239  19.228  0.00  0.00    +0.000 A 
ATOM     23  C   UNL     1       1.012  16.267  18.592  0.00  0.00    +0.000 A 
ATOM     24  C   UNL     1      -0.337  16.133  18.849  0.00  0.00    +0.000 A 
ATOM     25  S   UNL     1      -0.666  14.790  19.857  0.00  0.00    +0.000 S 
ENDBRANCH  19  21
ENDBRANCH  18  19
ENDBRANCH  14  18
ENDBRANCH   1  11
BRANCH   5  26
ATOM     26  C   UNL     1       4.016   5.163  17.361  0.00  0.00    +0.000 A 
ATOM     27  C   UNL     1       4.556   6.305  16.750  0.00  0.00    +0.000 A 
ATOM     28  C   UNL     1       5.465   6.202  15.698  0.00  0.00    +0.000 A 
ATOM     29  C   UNL     1       5.837   4.944  15.218  0.00  0.00    +0.000 A 
ATOM     30  C   UNL     1       5.293   3.798  15.808  0.00  0.00    +0.000 A 
ATOM     31  C   UNL     1       4.393   3.908  16.878  0.00  0.00    +0.000 A 
BRANCH  29  32
ATOM     32  C   UNL     1       6.797   4.768  14.095  0.00  0.00    +0.000 C 
ATOM     33  N   UNL     1       7.936   5.522  14.081  0.00  0.00    +0.000 N 
ATOM     34  O   UNL     1       6.587   3.959  13.193  0.00  0.00    +0.000 OA
ATOM     35  H   UNL     1       8.204   6.195  14.780  0.00  0.00    +0.000 HD
ATOM     36  H   UNL     1       8.569   5.373  13.308  0.00  0.00    +0.000 HD
ENDBRANCH  29  32
ENDBRANCH   5  26
TORSDOF 8
ENDMDL
MODEL 6
REMARK VINA RESULT:      -8.0      1.197      1.509
REMARK  Name = 
REMARK  10 active torsions:
REMARK  status: ('A' for Active; 'I' for Inactive)
REMARK    1  A    between atoms: C_1  and  C_2
REMARK    2  A    between atoms: C_2  and  O_3
REMARK    3  A    between atoms: O_3  and  C_4
REMARK    4  A    between atoms: C_6  and  C_7
REMARK    5  A    between atoms: N_11  and  C_12
REMARK    6  A    between atoms: C_15  and  C_16
REMARK    7  A    between atoms: C_22  and  C_23
REMARK    8  A    between atoms: C_26  and  O_27
REMARK    9  A    between atoms: O_27  and  C_28
REMARK   10  A    between atoms: C_28  and  C_30
REMARK                            x       y       z     vdW  Elec       q    Type
REMARK                         _______ _______ _______ _____ _____    ______ ____
ROOT
ATOM      1  C   UNL     1       1.186   6.744  20.945  0.00  0.00    +0.000 C 
ATOM      2  C   UNL     1       1.973   5.993  20.169  0.00  0.00    +0.000 C 
ATOM      3  C   UNL     1       2.812   6.461  19.044  0.00  0.00    +0.000 C 
ATOM      4  O   UNL     1       3.002   7.622  18.732  0.00  0.00    +0.000 OA
ATOM      5  N   UNL     1       3.279   5.263  18.497  0.00  0.00    +0.000 N 
ATOM      6  N   UNL     1       2.892   4.119  19.193  0.00  0.00    +0.000 NA
ATOM      7  C   UNL     1       2.168   4.535  20.196  0.00  0.00    +0.000 C 
ATOM      8  C   UNL     1       1.655   3.632  21.267  0.00  0.00    +0.000 C 
ENDROOT
BRANCH   1  11
ATOM      9  C   UNL     1       0.153  10.039  19.434  0.00  0.00    +0.000 A 
ATOM     10  C   UNL     1       0.530   8.692  19.562  0.00  0.00    +0.000 A 
ATOM     11  C   UNL     1       1.009   8.189  20.774  0.00  0.00    +0.000 A 
ATOM     12  C   UNL     1       1.275   9.067  21.820  0.00  0.00    +0.000 A 
ATOM     13  C   UNL     1       0.974  10.419  21.687  0.00  0.00    +0.000 A 
ATOM     14  C   UNL     1       0.354  10.904  20.523  0.00  0.00    +0.000 A 
BRANCH   9  15
ATOM     15  O   UNL     1      -0.429  10.521  18.287  0.00  0.00    +0.000 OA
BRANCH  15  17
ATOM     16  C   UNL     1      -2.203  10.216  16.696  0.00  0.00    +0.000 C 
ATOM     17  C   UNL     1      -1.829  10.209  18.162  0.00  0.00    +0.000 C 
ENDBRANCH  15  17
ENDBRANCH   9  15
BRANCH  14  18
ATOM     18  O   UNL     1       0.008  12.272  20.457  0.00  0.00    +0.000 OA
BRANCH  18  19
ATOM     19  C   UNL     1       0.688  13.147  21.325  0.00  0.00    +0.000 C 
ATOM     20  O   UNL     1       1.896  13.349  21.304  0.00  0.00    +0.000 OA
BRANCH  19  21
ATOM     21  C   UNL     1      -0.262  13.839  22.195  0.00  0.00    +0.000 A 
ATOM     22  C   UNL     1      -1.050  13.349  23.221  0.00  0.00    +0.000 A 
ATOM     23  C   UNL     1      -1.871  14.354  23.823  0.00  0.00    +0.000 A 
ATOM     24  C   UNL     1      -1.692  15.585  23.227  0.00  0.00    +0.000 A 
ATOM     25  S   UNL     1      -0.556  15.518  21.949  0.00  0.00    +0.000 S 
ENDBRANCH  19  21
ENDBRANCH  18  19
ENDBRANCH  14  18
ENDBRANCH   1  11
BRANCH   5  26
ATOM     26  C   UNL     1       4.196   5.132  17.428  0.00  0.00    +0.000 A 
ATOM     27  C   UNL     1       4.699   3.875  17.060  0.00  0.00    +0.000 A 
ATOM     28  C   UNL     1       5.565   3.731  15.977  0.00  0.00    +0.000 A 
ATOM     29  C   UNL     1       5.967   4.854  15.250  0.00  0.00    +0.000 A 
ATOM     30  C   UNL     1       5.485   6.116  15.619  0.00  0.00    +0.000 A 
ATOM     31  C   UNL     1       4.600   6.251  16.698  0.00  0.00    +0.000 A 
BRANCH  29  32
ATOM     32  C   UNL     1       6.894   4.767  14.089  0.00  0.00    +0.000 C 
ATOM     33  N   UNL     1       8.025   5.532  14.096  0.00  0.00    +0.000 N 
ATOM     34  O   UNL     1       6.662   4.022  13.139  0.00  0.00    +0.000 OA
ATOM     35  H   UNL     1       8.310   6.156  14.833  0.00  0.00    +0.000 HD
ATOM     36  H   UNL     1       8.636   5.445  13.296  0.00  0.00    +0.000 HD
ENDBRANCH  29  32
ENDBRANCH   5  26
TORSDOF 8
ENDMDL
MODEL 7
REMARK VINA RESULT:      -8.0      1.936      2.447
REMARK  Name = 
REMARK  10 active torsions:
REMARK  status: ('A' for Active; 'I' for Inactive)
REMARK    1  A    between atoms: C_1  and  C_2
REMARK    2  A    between atoms: C_2  and  O_3
REMARK    3  A    between atoms: O_3  and  C_4
REMARK    4  A    between atoms: C_6  and  C_7
REMARK    5  A    between atoms: N_11  and  C_12
REMARK    6  A    between atoms: C_15  and  C_16
REMARK    7  A    between atoms: C_22  and  C_23
REMARK    8  A    between atoms: C_26  and  O_27
REMARK    9  A    between atoms: O_27  and  C_28
REMARK   10  A    between atoms: C_28  and  C_30
REMARK                            x       y       z     vdW  Elec       q    Type
REMARK                         _______ _______ _______ _____ _____    ______ ____
ROOT
ATOM      1  C   UNL     1       1.151   6.902  21.158  0.00  0.00    +0.000 C 
ATOM      2  C   UNL     1       1.931   6.158  20.368  0.00  0.00    +0.000 C 
ATOM      3  C   UNL     1       2.658   6.611  19.162  0.00  0.00    +0.000 C 
ATOM      4  O   UNL     1       2.750   7.762  18.777  0.00  0.00    +0.000 OA
ATOM      5  N   UNL     1       3.164   5.415  18.647  0.00  0.00    +0.000 N 
ATOM      6  N   UNL     1       2.901   4.291  19.428  0.00  0.00    +0.000 NA
ATOM      7  C   UNL     1       2.222   4.719  20.457  0.00  0.00    +0.000 C 
ATOM      8  C   UNL     1       1.844   3.848  21.608  0.00  0.00    +0.000 C 
ENDROOT
BRANCH   1  11
ATOM      9  C   UNL     1      -0.500  10.021  19.834  0.00  0.00    +0.000 A 
ATOM     10  C   UNL     1      -0.052   8.694  19.943  0.00  0.00    +0.000 A 
ATOM     11  C   UNL     1       0.868   8.320  20.925  0.00  0.00    +0.000 A 
ATOM     12  C   UNL     1       1.478   9.304  21.698  0.00  0.00    +0.000 A 
ATOM     13  C   UNL     1       1.099  10.635  21.556  0.00  0.00    +0.000 A 
ATOM     14  C   UNL     1       0.066  10.996  20.673  0.00  0.00    +0.000 A 
BRANCH   9  15
ATOM     15  O   UNL     1      -1.491  10.380  18.954  0.00  0.00    +0.000 OA
BRANCH  15  17
ATOM     16  C   UNL     1      -2.538   9.988  16.828  0.00  0.00    +0.000 C 
ATOM     17  C   UNL     1      -1.230  10.007  17.589  0.00  0.00    +0.000 C 
ENDBRANCH  15  17
ENDBRANCH   9  15
BRANCH  14  18
ATOM     18  O   UNL     1      -0.331  12.350  20.608  0.00  0.00    +0.000 OA
BRANCH  18  19
ATOM     19  C   UNL     1       0.438  13.203  19.794  0.00  0.00    +0.000 C 
ATOM     20  O   UNL     1       0.338  13.280  18.575  0.00  0.00    +0.000 OA
BRANCH  19  21
ATOM     21  C   UNL     1       1.309  14.042  20.616  0.00  0.00    +0.000 A 
ATOM     22  C   UNL     1       0.990  14.969  21.592  0.00  0.00    +0.000 A 
ATOM     23  C   UNL     1       2.142  15.603  22.156  0.00  0.00    +0.000 A 
ATOM     24  C   UNL     1       3.310  15.146  21.583  0.00  0.00    +0.000 A 
ATOM     25  S   UNL     1       3.013  13.977  20.370  0.00  0.00    +0.000 S 
ENDBRANCH  19  21
ENDBRANCH  18  19
ENDBRANCH  14  18
ENDBRANCH   1  11
BRANCH   5  26
ATOM     26  C   UNL     1       4.013   5.281  17.524  0.00  0.00    +0.000 A 
ATOM     27  C   UNL     1       4.564   6.409  16.897  0.00  0.00    +0.000 A 
ATOM     28  C   UNL     1       5.440   6.282  15.820  0.00  0.00    +0.000 A 
ATOM     29  C   UNL     1       5.766   5.015  15.330  0.00  0.00    +0.000 A 
ATOM     30  C   UNL     1       5.209   3.883  15.936  0.00  0.00    +0.000 A 
ATOM     31  C   UNL     1       4.343   4.016  17.031  0.00  0.00    +0.000 A 
BRANCH  29  32
ATOM     32  C   UNL     1       6.689   4.814  14.180  0.00  0.00    +0.000 C 
ATOM     33  N   UNL     1       7.866   5.506  14.156  0.00  0.00    +0.000 N 
ATOM     34  O   UNL     1       6.415   4.039  13.266  0.00  0.00    +0.000 OA
ATOM     35  H   UNL     1       8.187   6.147  14.864  0.00  0.00    +0.000 HD
ATOM     36  H   UNL     1       8.473   5.342  13.365  0.00  0.00    +0.000 HD
ENDBRANCH  29  32
ENDBRANCH   5  26
TORSDOF 8
ENDMDL
MODEL 8
REMARK VINA RESULT:      -7.9      1.675      2.056
REMARK  Name = 
REMARK  10 active torsions:
REMARK  status: ('A' for Active; 'I' for Inactive)
REMARK    1  A    between atoms: C_1  and  C_2
REMARK    2  A    between atoms: C_2  and  O_3
REMARK    3  A    between atoms: O_3  and  C_4
REMARK    4  A    between atoms: C_6  and  C_7
REMARK    5  A    between atoms: N_11  and  C_12
REMARK    6  A    between atoms: C_15  and  C_16
REMARK    7  A    between atoms: C_22  and  C_23
REMARK    8  A    between atoms: C_26  and  O_27
REMARK    9  A    between atoms: O_27  and  C_28
REMARK   10  A    between atoms: C_28  and  C_30
REMARK                            x       y       z     vdW  Elec       q    Type
REMARK                         _______ _______ _______ _____ _____    ______ ____
ROOT
ATOM      1  C   UNL     1       1.104   6.715  21.207  0.00  0.00    +0.000 C 
ATOM      2  C   UNL     1       1.879   5.978  20.407  0.00  0.00    +0.000 C 
ATOM      3  C   UNL     1       2.659   6.456  19.244  0.00  0.00    +0.000 C 
ATOM      4  O   UNL     1       2.805   7.618  18.914  0.00  0.00    +0.000 OA
ATOM      5  N   UNL     1       3.135   5.265  18.688  0.00  0.00    +0.000 N 
ATOM      6  N   UNL     1       2.807   4.119  19.410  0.00  0.00    +0.000 NA
ATOM      7  C   UNL     1       2.113   4.525  20.438  0.00  0.00    +0.000 C 
ATOM      8  C   UNL     1       1.669   3.619  21.537  0.00  0.00    +0.000 C 
ENDROOT
BRANCH   1  11
ATOM      9  C   UNL     1      -0.403   9.952  20.000  0.00  0.00    +0.000 A 
ATOM     10  C   UNL     1      -0.011   8.604  20.057  0.00  0.00    +0.000 A 
ATOM     11  C   UNL     1       0.882   8.153  21.032  0.00  0.00    +0.000 A 
ATOM     12  C   UNL     1       1.522   9.077  21.851  0.00  0.00    +0.000 A 
ATOM     13  C   UNL     1       1.199  10.427  21.761  0.00  0.00    +0.000 A 
ATOM     14  C   UNL     1       0.192  10.867  20.885  0.00  0.00    +0.000 A 
BRANCH   9  15
ATOM     15  O   UNL     1      -1.369  10.387  19.126  0.00  0.00    +0.000 OA
BRANCH  15  17
ATOM     16  C   UNL     1      -2.452   9.984  17.020  0.00  0.00    +0.000 C 
ATOM     17  C   UNL     1      -1.130  10.024  17.755  0.00  0.00    +0.000 C 
ENDBRANCH  15  17
ENDBRANCH   9  15
BRANCH  14  18
ATOM     18  O   UNL     1      -0.149  12.237  20.873  0.00  0.00    +0.000 OA
BRANCH  18  19
ATOM     19  C   UNL     1       0.701  13.102  20.158  0.00  0.00    +0.000 C 
ATOM     20  O   UNL     1       1.179  12.856  19.056  0.00  0.00    +0.000 OA
BRANCH  19  21
ATOM     21  C   UNL     1       0.865  14.364  20.878  0.00  0.00    +0.000 A 
ATOM     22  C   UNL     1       1.855  14.766  21.757  0.00  0.00    +0.000 A 
ATOM     23  C   UNL     1       1.642  16.084  22.272  0.00  0.00    +0.000 A 
ATOM     24  C   UNL     1       0.483  16.646  21.777  0.00  0.00    +0.000 A 
ATOM     25  S   UNL     1      -0.339  15.586  20.715  0.00  0.00    +0.000 S 
ENDBRANCH  19  21
ENDBRANCH  18  19
ENDBRANCH  14  18
ENDBRANCH   1  11
BRANCH   5  26
ATOM     26  C   UNL     1       4.011   5.148  17.585  0.00  0.00    +0.000 A 
ATOM     27  C   UNL     1       4.389   6.276  16.841  0.00  0.00    +0.000 A 
ATOM     28  C   UNL     1       5.290   6.176  15.782  0.00  0.00    +0.000 A 
ATOM     29  C   UNL     1       5.818   4.932  15.429  0.00  0.00    +0.000 A 
ATOM     30  C   UNL     1       5.435   3.796  16.153  0.00  0.00    +0.000 A 
ATOM     31  C   UNL     1       4.542   3.906  17.228  0.00  0.00    +0.000 A 
BRANCH  29  32
ATOM     32  C   UNL     1       6.778   4.758  14.306  0.00  0.00    +0.000 C 
ATOM     33  N   UNL     1       6.518   3.806  13.362  0.00  0.00    +0.000 N 
ATOM     34  O   UNL     1       7.787   5.455  14.211  0.00  0.00    +0.000 OA
ATOM     35  H   UNL     1       5.713   3.201  13.343  0.00  0.00    +0.000 HD
ATOM     36  H   UNL     1       7.186   3.718  12.610  0.00  0.00    +0.000 HD
ENDBRANCH  29  32
ENDBRANCH   5  26
TORSDOF 8
ENDMDL
MODEL 9
REMARK VINA RESULT:      -7.9      1.713      2.174
REMARK  Name = 
REMARK  10 active torsions:
REMARK  status: ('A' for Active; 'I' for Inactive)
REMARK    1  A    between atoms: C_1  and  C_2
REMARK    2  A    between atoms: C_2  and  O_3
REMARK    3  A    between atoms: O_3  and  C_4
REMARK    4  A    between atoms: C_6  and  C_7
REMARK    5  A    between atoms: N_11  and  C_12
REMARK    6  A    between atoms: C_15  and  C_16
REMARK    7  A    between atoms: C_22  and  C_23
REMARK    8  A    between atoms: C_26  and  O_27
REMARK    9  A    between atoms: O_27  and  C_28
REMARK   10  A    between atoms: C_28  and  C_30
REMARK                            x       y       z     vdW  Elec       q    Type
REMARK                         _______ _______ _______ _____ _____    ______ ____
ROOT
ATOM      1  C   UNL     1       1.071   6.573  21.186  0.00  0.00    +0.000 C 
ATOM      2  C   UNL     1       1.840   5.835  20.381  0.00  0.00    +0.000 C 
ATOM      3  C   UNL     1       2.678   6.325  19.265  0.00  0.00    +0.000 C 
ATOM      4  O   UNL     1       2.885   7.492  18.989  0.00  0.00    +0.000 OA
ATOM      5  N   UNL     1       3.123   5.138  18.676  0.00  0.00    +0.000 N 
ATOM      6  N   UNL     1       2.722   3.979  19.337  0.00  0.00    +0.000 NA
ATOM      7  C   UNL     1       2.011   4.374  20.359  0.00  0.00    +0.000 C 
ATOM      8  C   UNL     1       1.492   3.444  21.404  0.00  0.00    +0.000 C 
ENDROOT
BRANCH   1  11
ATOM      9  C   UNL     1      -0.279   9.918  20.095  0.00  0.00    +0.000 A 
ATOM     10  C   UNL     1       0.050   8.553  20.103  0.00  0.00    +0.000 A 
ATOM     11  C   UNL     1       0.916   8.024  21.064  0.00  0.00    +0.000 A 
ATOM     12  C   UNL     1       1.593   8.887  21.921  0.00  0.00    +0.000 A 
ATOM     13  C   UNL     1       1.332  10.253  21.880  0.00  0.00    +0.000 A 
ATOM     14  C   UNL     1       0.352  10.771  21.017  0.00  0.00    +0.000 A 
BRANCH   9  15
ATOM     15  O   UNL     1      -1.218  10.430  19.234  0.00  0.00    +0.000 OA
BRANCH  15  17
ATOM     16  C   UNL     1      -2.223   9.944  17.107  0.00  0.00    +0.000 C 
ATOM     17  C   UNL     1      -0.927  10.205  17.843  0.00  0.00    +0.000 C 
ENDBRANCH  15  17
ENDBRANCH   9  15
BRANCH  14  18
ATOM     18  O   UNL     1       0.075  12.155  21.055  0.00  0.00    +0.000 OA
BRANCH  18  19
ATOM     19  C   UNL     1       0.764  12.972  20.138  0.00  0.00    +0.000 C 
ATOM     20  O   UNL     1       1.759  12.629  19.510  0.00  0.00    +0.000 OA
BRANCH  19  21
ATOM     21  C   UNL     1       0.075  14.252  19.980  0.00  0.00    +0.000 A 
ATOM     22  C   UNL     1      -1.144  14.675  20.478  0.00  0.00    +0.000 A 
ATOM     23  C   UNL     1      -1.480  16.006  20.076  0.00  0.00    +0.000 A 
ATOM     24  C   UNL     1      -0.507  16.557  19.269  0.00  0.00    +0.000 A 
ATOM     25  S   UNL     1       0.787  15.472  18.993  0.00  0.00    +0.000 S 
ENDBRANCH  19  21
ENDBRANCH  18  19
ENDBRANCH  14  18
ENDBRANCH   1  11
BRANCH   5  26
ATOM     26  C   UNL     1       4.030   5.027  17.597  0.00  0.00    +0.000 A 
ATOM     27  C   UNL     1       4.439   3.770  17.125  0.00  0.00    +0.000 A 
ATOM     28  C   UNL     1       5.294   3.652  16.031  0.00  0.00    +0.000 A 
ATOM     29  C   UNL     1       5.780   4.797  15.397  0.00  0.00    +0.000 A 
ATOM     30  C   UNL     1       5.392   6.057  15.869  0.00  0.00    +0.000 A 
ATOM     31  C   UNL     1       4.517   6.169  16.959  0.00  0.00    +0.000 A 
BRANCH  29  32
ATOM     32  C   UNL     1       6.700   4.737  14.229  0.00  0.00    +0.000 C 
ATOM     33  N   UNL     1       7.824   5.513  14.240  0.00  0.00    +0.000 N 
ATOM     34  O   UNL     1       6.471   4.004  13.269  0.00  0.00    +0.000 OA
ATOM     35  H   UNL     1       8.107   6.128  14.985  0.00  0.00    +0.000 HD
ATOM     36  H   UNL     1       8.431   5.444  13.435  0.00  0.00    +0.000 HD
ENDBRANCH  29  32
ENDBRANCH   5  26
TORSDOF 8
ENDMDL
