MODEL 1
REMARK VINA RESULT:      -8.0      0.000      0.000
REMARK  Name = 
REMARK  6 active torsions:
REMARK  status: ('A' for Active; 'I' for Inactive)
REMARK    1  A    between atoms: C_1  and  C_2
REMARK    2  A    between atoms: C_6  and  C_7
REMARK    3  A    between atoms: C_10  and  N_11
REMARK    4  A    between atoms: C_16  and  C_17
REMARK    5  A    between atoms: N_18  and  N_19
REMARK    6  A    between atoms: C_24  and  C_25
REMARK                            x       y       z     vdW  Elec       q    Type
REMARK                         _______ _______ _______ _____ _____    ______ ____
ROOT
ATOM      1  C   UNL     1      -0.997  11.401  20.711  0.00  0.00    +0.000 C 
ATOM      2  C   UNL     1      -0.021  10.462  20.081  0.00  0.00    +0.000 A 
ATOM      3  S   UNL     1       0.664  10.892  18.522  0.00  0.00    +0.000 S 
ATOM      4  C   UNL     1       1.563   9.425  18.562  0.00  0.00    +0.000 A 
ATOM      5  N   UNL     1       2.392   8.943  17.713  0.00  0.00    +0.000 NA
ATOM      6  C   UNL     1       2.783   7.753  18.266  0.00  0.00    +0.000 A 
ATOM      7  C   UNL     1       2.161   7.522  19.520  0.00  0.00    +0.000 A 
ATOM      8  N   UNL     1       1.351   8.662  19.685  0.00  0.00    +0.000 N 
ATOM      9  C   UNL     1       0.434   9.273  20.566  0.00  0.00    +0.000 A 
ATOM     10  C   UNL     1      -0.021   8.761  21.882  0.00  0.00    +0.000 C 
ENDROOT
BRANCH   6  11
ATOM     11  C   UNL     1       3.712   6.967  17.454  0.00  0.00    +0.000 A 
ATOM     12  C   UNL     1       3.538   5.562  17.448  0.00  0.00    +0.000 A 
ATOM     13  C   UNL     1       4.506   4.699  16.923  0.00  0.00    +0.000 A 
ATOM     14  C   UNL     1       5.668   5.242  16.378  0.00  0.00    +0.000 A 
ATOM     15  C   UNL     1       5.864   6.631  16.369  0.00  0.00    +0.000 A 
ATOM     16  C   UNL     1       4.886   7.489  16.907  0.00  0.00    +0.000 A 
BRANCH  14  17
ATOM     17  N   UNL     1       6.706   4.339  15.847  0.00  0.00    +0.000 N 
ATOM     18  O   UNL     1       6.418   3.629  14.879  0.00  0.00    +0.000 OA
ATOM     19  O   UNL     1       7.816   4.357  16.406  0.00  0.00    +0.000 OA
ENDBRANCH  14  17
ENDBRANCH   6  11
BRANCH   7  20
ATOM     20  C   UNL     1       2.359   6.379  20.398  0.00  0.00    +0.000 C 
ATOM     21  N   UNL     1       1.547   5.367  20.495  0.00  0.00    +0.000 NA
BRANCH  21  22
ATOM     22  N   UNL     1       2.000   4.430  21.454  0.00  0.00    +0.000 NA
ATOM     23  C   UNL     1       1.502   3.237  21.316  0.00  0.00    +0.000 C 
ATOM     24  N   UNL     1       0.647   2.834  20.344  0.00  0.00    +0.000 N 
ATOM     25  N   UNL     1       1.802   2.217  22.144  0.00  0.00    +0.000 N 
ATOM     26  H   UNL     1       0.240   3.646  19.893  0.00  0.00    +0.000 HD
ATOM     27  H   UNL     1      -0.052   2.163  20.636  0.00  0.00    +0.000 HD
ATOM     28  H   UNL     1       2.436   2.381  22.911  0.00  0.00    +0.000 HD
ATOM     29  H   UNL     1       1.409   1.296  22.030  0.00  0.00    +0.000 HD
ENDBRANCH  21  22
ENDBRANCH   7  20
TORSDOF 4
ENDMDL
MODEL 2
REMARK VINA RESULT:      -7.9      0.556      1.111
REMARK  Name = 
REMARK  6 active torsions:
REMARK  status: ('A' for Active; 'I' for Inactive)
REMARK    1  A    between atoms: C_1  and  C_2
REMARK    2  A    between atoms: C_6  and  C_7
REMARK    3  A    between atoms: C_10  and  N_11
REMARK    4  A    between atoms: C_16  and  C_17
REMARK    5  A    between atoms: N_18  and  N_19
REMARK    6  A    between atoms: C_24  and  C_25
REMARK                            x       y       z     vdW  Elec       q    Type
REMARK                         _______ _______ _______ _____ _____    ______ ____
ROOT
ATOM      1  C   UNL     1      -0.966  11.311  20.275  0.00  0.00    +0.000 C 
ATOM      2  C   UNL     1       0.044  10.324  19.786  0.00  0.00    +0.000 A 
ATOM      3  S   UNL     1       0.888  10.666  18.285  0.00  0.00    +0.000 S 
ATOM      4  C   UNL     1       1.743   9.186  18.478  0.00  0.00    +0.000 A 
ATOM      5  N   UNL     1       2.639   8.647  17.738  0.00  0.00    +0.000 NA
ATOM      6  C   UNL     1       2.944   7.476  18.379  0.00  0.00    +0.000 A 
ATOM      7  C   UNL     1       2.197   7.317  19.575  0.00  0.00    +0.000 A 
ATOM      8  N   UNL     1       1.403   8.480  19.608  0.00  0.00    +0.000 N 
ATOM      9  C   UNL     1       0.420   9.150  20.366  0.00  0.00    +0.000 A 
ATOM     10  C   UNL     1      -0.174   8.710  21.652  0.00  0.00    +0.000 C 
ENDROOT
BRANCH   6  11
ATOM     11  C   UNL     1       3.928   6.635  17.699  0.00  0.00    +0.000 A 
ATOM     12  C   UNL     1       5.074   7.277  17.171  0.00  0.00    +0.000 A 
ATOM     13  C   UNL     1       5.946   6.628  16.290  0.00  0.00    +0.000 A 
ATOM     14  C   UNL     1       5.684   5.306  15.936  0.00  0.00    +0.000 A 
ATOM     15  C   UNL     1       4.556   4.645  16.448  0.00  0.00    +0.000 A 
ATOM     16  C   UNL     1       3.682   5.312  17.327  0.00  0.00    +0.000 A 
BRANCH  14  17
ATOM     17  N   UNL     1       6.582   4.621  14.987  0.00  0.00    +0.000 N 
ATOM     18  O   UNL     1       6.193   3.565  14.479  0.00  0.00    +0.000 OA
ATOM     19  O   UNL     1       7.677   5.158  14.750  0.00  0.00    +0.000 OA
ENDBRANCH  14  17
ENDBRANCH   6  11
BRANCH   7  20
ATOM     20  C   UNL     1       2.279   6.213  20.518  0.00  0.00    +0.000 C 
ATOM     21  N   UNL     1       2.246   4.953  20.192  0.00  0.00    +0.000 NA
BRANCH  21  22
ATOM     22  N   UNL     1       2.318   4.122  21.335  0.00  0.00    +0.000 NA
ATOM     23  C   UNL     1       1.436   3.167  21.360  0.00  0.00    +0.000 C 
ATOM     24  N   UNL     1       0.518   2.899  20.400  0.00  0.00    +0.000 N 
ATOM     25  N   UNL     1       1.339   2.285  22.375  0.00  0.00    +0.000 N 
ATOM     26  H   UNL     1       0.433   3.699  19.781  0.00  0.00    +0.000 HD
ATOM     27  H   UNL     1      -0.380   2.577  20.739  0.00  0.00    +0.000 HD
ATOM     28  H   UNL     1       1.972   2.368  23.156  0.00  0.00    +0.000 HD
ATOM     29  H   UNL     1       0.650   1.549  22.386  0.00  0.00    +0.000 HD
ENDBRANCH  21  22
ENDBRANCH   7  20
TORSDOF 4
ENDMDL
MODEL 3
REMARK VINA RESULT:      -7.7      3.110      5.500
REMARK  Name = 
REMARK  6 active torsions:
REMARK  status: ('A' for Active; 'I' for Inactive)
REMARK    1  A    between atoms: C_1  and  C_2
REMARK    2  A    between atoms: C_6  and  C_7
REMARK    3  A    between atoms: C_10  and  N_11
REMARK    4  A    between atoms: C_16  and  C_17
REMARK    5  A    between atoms: N_18  and  N_19
REMARK    6  A    between atoms: C_24  and  C_25
REMARK                            x       y       z     vdW  Elec       q    Type
REMARK                         _______ _______ _______ _____ _____    ______ ____
ROOT
ATOM      1  C   UNL     1       1.155   2.878  21.819  0.00  0.00    +0.000 C 
ATOM      2  C   UNL     1       2.021   3.194  20.643  0.00  0.00    +0.000 A 
ATOM      3  S   UNL     1       2.883   1.878  19.863  0.00  0.00    +0.000 S 
ATOM      4  C   UNL     1       3.538   3.022  18.756  0.00  0.00    +0.000 A 
ATOM      5  N   UNL     1       4.340   2.851  17.772  0.00  0.00    +0.000 NA
ATOM      6  C   UNL     1       4.520   4.110  17.264  0.00  0.00    +0.000 A 
ATOM      7  C   UNL     1       3.773   5.081  17.980  0.00  0.00    +0.000 A 
ATOM      8  N   UNL     1       3.129   4.316  18.971  0.00  0.00    +0.000 N 
ATOM      9  C   UNL     1       2.242   4.408  20.066  0.00  0.00    +0.000 A 
ATOM     10  C   UNL     1       1.579   5.631  20.580  0.00  0.00    +0.000 C 
ENDROOT
BRANCH   6  11
ATOM     11  C   UNL     1       5.450   4.198  16.139  0.00  0.00    +0.000 A 
ATOM     12  C   UNL     1       6.592   5.019  16.305  0.00  0.00    +0.000 A 
ATOM     13  C   UNL     1       7.407   5.379  15.227  0.00  0.00    +0.000 A 
ATOM     14  C   UNL     1       7.091   4.904  13.956  0.00  0.00    +0.000 A 
ATOM     15  C   UNL     1       5.966   4.087  13.764  0.00  0.00    +0.000 A 
ATOM     16  C   UNL     1       5.149   3.737  14.856  0.00  0.00    +0.000 A 
BRANCH  14  17
ATOM     17  N   UNL     1       7.928   5.301  12.808  0.00  0.00    +0.000 N 
ATOM     18  O   UNL     1       7.583   4.929  11.682  0.00  0.00    +0.000 OA
ATOM     19  O   UNL     1       8.929   5.996  13.047  0.00  0.00    +0.000 OA
ENDBRANCH  14  17
ENDBRANCH   6  11
BRANCH   7  20
ATOM     20  C   UNL     1       3.703   6.508  17.707  0.00  0.00    +0.000 C 
ATOM     21  N   UNL     1       2.617   7.222  17.751  0.00  0.00    +0.000 NA
BRANCH  21  22
ATOM     22  N   UNL     1       2.870   8.572  17.409  0.00  0.00    +0.000 NA
ATOM     23  C   UNL     1       2.070   9.427  17.973  0.00  0.00    +0.000 C 
ATOM     24  N   UNL     1       1.079   9.139  18.852  0.00  0.00    +0.000 N 
ATOM     25  N   UNL     1       2.146  10.755  17.755  0.00  0.00    +0.000 N 
ATOM     26  H   UNL     1       0.870   8.147  18.813  0.00  0.00    +0.000 HD
ATOM     27  H   UNL     1       0.249   9.712  18.770  0.00  0.00    +0.000 HD
ATOM     28  H   UNL     1       2.848  11.108  17.122  0.00  0.00    +0.000 HD
ATOM     29  H   UNL     1       1.520  11.411  18.196  0.00  0.00    +0.000 HD
ENDBRANCH  21  22
ENDBRANCH   7  20
TORSDOF 4
ENDMDL
MODEL 4
REMARK VINA RESULT:      -7.4      2.949      5.348
REMARK  Name = 
REMARK  6 active torsions:
REMARK  status: ('A' for Active; 'I' for Inactive)
REMARK    1  A    between atoms: C_1  and  C_2
REMARK    2  A    between atoms: C_6  and  C_7
REMARK    3  A    between atoms: C_10  and  N_11
REMARK    4  A    between atoms: C_16  and  C_17
REMARK    5  A    between atoms: N_18  and  N_19
REMARK    6  A    between atoms: C_24  and  C_25
REMARK                            x       y       z     vdW  Elec       q    Type
REMARK                         _______ _______ _______ _____ _____    ______ ____
ROOT
ATOM      1  C   UNL     1       1.757   2.513  22.140  0.00  0.00    +0.000 C 
ATOM      2  C   UNL     1       2.443   3.048  20.925  0.00  0.00    +0.000 A 
ATOM      3  S   UNL     1       3.756   2.114  20.227  0.00  0.00    +0.000 S 
ATOM      4  C   UNL     1       3.924   3.332  19.023  0.00  0.00    +0.000 A 
ATOM      5  N   UNL     1       4.738   3.411  18.037  0.00  0.00    +0.000 NA
ATOM      6  C   UNL     1       4.418   4.597  17.433  0.00  0.00    +0.000 A 
ATOM      7  C   UNL     1       3.345   5.254  18.089  0.00  0.00    +0.000 A 
ATOM      8  N   UNL     1       3.042   4.378  19.150  0.00  0.00    +0.000 N 
ATOM      9  C   UNL     1       2.179   4.203  20.253  0.00  0.00    +0.000 A 
ATOM     10  C   UNL     1       1.088   5.108  20.689  0.00  0.00    +0.000 C 
ENDROOT
BRANCH   6  11
ATOM     11  C   UNL     1       5.250   4.952  16.283  0.00  0.00    +0.000 A 
ATOM     12  C   UNL     1       4.951   4.325  15.049  0.00  0.00    +0.000 A 
ATOM     13  C   UNL     1       5.822   4.389  13.957  0.00  0.00    +0.000 A 
ATOM     14  C   UNL     1       7.012   5.103  14.086  0.00  0.00    +0.000 A 
ATOM     15  C   UNL     1       7.332   5.735  15.297  0.00  0.00    +0.000 A 
ATOM     16  C   UNL     1       6.450   5.658  16.391  0.00  0.00    +0.000 A 
BRANCH  14  17
ATOM     17  N   UNL     1       7.951   5.152  12.949  0.00  0.00    +0.000 N 
ATOM     18  O   UNL     1       8.943   5.880  13.047  0.00  0.00    +0.000 OA
ATOM     19  O   UNL     1       7.686   4.448  11.960  0.00  0.00    +0.000 OA
ENDBRANCH  14  17
ENDBRANCH   6  11
BRANCH   7  20
ATOM     20  C   UNL     1       2.729   6.516  17.711  0.00  0.00    +0.000 C 
ATOM     21  N   UNL     1       2.617   7.552  18.490  0.00  0.00    +0.000 NA
BRANCH  21  22
ATOM     22  N   UNL     1       1.946   8.616  17.843  0.00  0.00    +0.000 NA
ATOM     23  C   UNL     1       1.215   9.348  18.631  0.00  0.00    +0.000 C 
ATOM     24  N   UNL     1       1.084   9.196  19.971  0.00  0.00    +0.000 N 
ATOM     25  N   UNL     1       0.490  10.396  18.194  0.00  0.00    +0.000 N 
ATOM     26  H   UNL     1       1.420   8.278  20.242  0.00  0.00    +0.000 HD
ATOM     27  H   UNL     1       0.162   9.394  20.340  0.00  0.00    +0.000 HD
ATOM     28  H   UNL     1       0.503  10.625  17.211  0.00  0.00    +0.000 HD
ATOM     29  H   UNL     1      -0.075  10.957  18.812  0.00  0.00    +0.000 HD
ENDBRANCH  21  22
ENDBRANCH   7  20
TORSDOF 4
ENDMDL
MODEL 5
REMARK VINA RESULT:      -7.4      4.030      6.625
REMARK  Name = 
REMARK  6 active torsions:
REMARK  status: ('A' for Active; 'I' for Inactive)
REMARK    1  A    between atoms: C_1  and  C_2
REMARK    2  A    between atoms: C_6  and  C_7
REMARK    3  A    between atoms: C_10  and  N_11
REMARK    4  A    between atoms: C_16  and  C_17
REMARK    5  A    between atoms: N_18  and  N_19
REMARK    6  A    between atoms: C_24  and  C_25
REMARK                            x       y       z     vdW  Elec       q    Type
REMARK                         _______ _______ _______ _____ _____    ______ ____
ROOT
ATOM      1  C   UNL     1       6.300   4.020  15.482  0.00  0.00    +0.000 C 
ATOM      2  C   UNL     1       5.348   4.882  16.245  0.00  0.00    +0.000 A 
ATOM      3  S   UNL     1       5.277   6.593  15.857  0.00  0.00    +0.000 S 
ATOM      4  C   UNL     1       4.068   6.773  17.069  0.00  0.00    +0.000 A 
ATOM      5  N   UNL     1       3.429   7.816  17.448  0.00  0.00    +0.000 NA
ATOM      6  C   UNL     1       2.610   7.362  18.447  0.00  0.00    +0.000 A 
ATOM      7  C   UNL     1       2.761   5.968  18.663  0.00  0.00    +0.000 A 
ATOM      8  N   UNL     1       3.747   5.608  17.723  0.00  0.00    +0.000 N 
ATOM      9  C   UNL     1       4.489   4.512  17.235  0.00  0.00    +0.000 A 
ATOM     10  C   UNL     1       4.398   3.100  17.679  0.00  0.00    +0.000 C 
ENDROOT
BRANCH   6  11
ATOM     11  C   UNL     1       1.792   8.388  19.093  0.00  0.00    +0.000 A 
ATOM     12  C   UNL     1       1.495   9.549  18.339  0.00  0.00    +0.000 A 
ATOM     13  C   UNL     1       0.946  10.694  18.927  0.00  0.00    +0.000 A 
ATOM     14  C   UNL     1       0.671  10.681  20.293  0.00  0.00    +0.000 A 
ATOM     15  C   UNL     1       0.953   9.543  21.063  0.00  0.00    +0.000 A 
ATOM     16  C   UNL     1       1.512   8.400  20.461  0.00  0.00    +0.000 A 
BRANCH  14  17
ATOM     17  N   UNL     1       0.118  11.892  20.928  0.00  0.00    +0.000 N 
ATOM     18  O   UNL     1      -0.220  12.829  20.197  0.00  0.00    +0.000 OA
ATOM     19  O   UNL     1       0.017  11.891  22.167  0.00  0.00    +0.000 OA
ENDBRANCH  14  17
ENDBRANCH   6  11
BRANCH   7  20
ATOM     20  C   UNL     1       2.038   5.147  19.622  0.00  0.00    +0.000 C 
ATOM     21  N   UNL     1       1.525   3.980  19.365  0.00  0.00    +0.000 NA
BRANCH  21  22
ATOM     22  N   UNL     1       0.861   3.446  20.494  0.00  0.00    +0.000 NA
ATOM     23  C   UNL     1       1.633   2.794  21.312  0.00  0.00    +0.000 C 
ATOM     24  N   UNL     1       2.972   2.627  21.188  0.00  0.00    +0.000 N 
ATOM     25  N   UNL     1       1.178   2.202  22.434  0.00  0.00    +0.000 N 
ATOM     26  H   UNL     1       3.254   2.850  20.239  0.00  0.00    +0.000 HD
ATOM     27  H   UNL     1       3.325   1.729  21.494  0.00  0.00    +0.000 HD
ATOM     28  H   UNL     1       0.194   2.256  22.651  0.00  0.00    +0.000 HD
ATOM     29  H   UNL     1       1.784   1.697  23.062  0.00  0.00    +0.000 HD
ENDBRANCH  21  22
ENDBRANCH   7  20
TORSDOF 4
ENDMDL
MODEL 6
REMARK VINA RESULT:      -7.3      4.066      6.627
REMARK  Name = 
REMARK  6 active torsions:
REMARK  status: ('A' for Active; 'I' for Inactive)
REMARK    1  A    between atoms: C_1  and  C_2
REMARK    2  A    between atoms: C_6  and  C_7
REMARK    3  A    between atoms: C_10  and  N_11
REMARK    4  A    between atoms: C_16  and  C_17
REMARK    5  A    between atoms: N_18  and  N_19
REMARK    6  A    between atoms: C_24  and  C_25
REMARK                            x       y       z     vdW  Elec       q    Type
REMARK                         _______ _______ _______ _____ _____    ______ ____
ROOT
ATOM      1  C   UNL     1       6.176   3.891  15.412  0.00  0.00    +0.000 C 
ATOM      2  C   UNL     1       5.283   4.805  16.186  0.00  0.00    +0.000 A 
ATOM      3  S   UNL     1       5.275   6.512  15.773  0.00  0.00    +0.000 S 
ATOM      4  C   UNL     1       4.109   6.762  17.014  0.00  0.00    +0.000 A 
ATOM      5  N   UNL     1       3.526   7.838  17.393  0.00  0.00    +0.000 NA
ATOM      6  C   UNL     1       2.717   7.435  18.421  0.00  0.00    +0.000 A 
ATOM      7  C   UNL     1       2.814   6.039  18.657  0.00  0.00    +0.000 A 
ATOM      8  N   UNL     1       3.756   5.623  17.696  0.00  0.00    +0.000 N 
ATOM      9  C   UNL     1       4.438   4.488  17.206  0.00  0.00    +0.000 A 
ATOM     10  C   UNL     1       4.298   3.088  17.675  0.00  0.00    +0.000 C 
ENDROOT
BRANCH   6  11
ATOM     11  C   UNL     1       1.962   8.505  19.073  0.00  0.00    +0.000 A 
ATOM     12  C   UNL     1       1.544   8.283  20.407  0.00  0.00    +0.000 A 
ATOM     13  C   UNL     1       0.611   9.113  21.038  0.00  0.00    +0.000 A 
ATOM     14  C   UNL     1       0.091  10.198  20.334  0.00  0.00    +0.000 A 
ATOM     15  C   UNL     1       0.490  10.442  19.011  0.00  0.00    +0.000 A 
ATOM     16  C   UNL     1       1.424   9.595  18.385  0.00  0.00    +0.000 A 
BRANCH  14  17
ATOM     17  N   UNL     1      -0.914  11.063  20.981  0.00  0.00    +0.000 N 
ATOM     18  O   UNL     1      -1.668  11.718  20.256  0.00  0.00    +0.000 OA
ATOM     19  O   UNL     1      -0.943  11.072  22.223  0.00  0.00    +0.000 OA
ENDBRANCH  14  17
ENDBRANCH   6  11
BRANCH   7  20
ATOM     20  C   UNL     1       2.083   5.265  19.648  0.00  0.00    +0.000 C 
ATOM     21  N   UNL     1       1.517   4.115  19.425  0.00  0.00    +0.000 NA
BRANCH  21  22
ATOM     22  N   UNL     1       0.861   3.628  20.580  0.00  0.00    +0.000 NA
ATOM     23  C   UNL     1       1.609   2.898  21.353  0.00  0.00    +0.000 C 
ATOM     24  N   UNL     1       2.919   2.610  21.162  0.00  0.00    +0.000 N 
ATOM     25  N   UNL     1       1.155   2.333  22.490  0.00  0.00    +0.000 N 
ATOM     26  H   UNL     1       3.175   2.820  20.203  0.00  0.00    +0.000 HD
ATOM     27  H   UNL     1       3.203   1.680  21.443  0.00  0.00    +0.000 HD
ATOM     28  H   UNL     1       0.192   2.474  22.756  0.00  0.00    +0.000 HD
ATOM     29  H   UNL     1       1.742   1.767  23.083  0.00  0.00    +0.000 HD
ENDBRANCH  21  22
ENDBRANCH   7  20
TORSDOF 4
ENDMDL
MODEL 7
REMARK VINA RESULT:      -7.2      3.476      5.827
REMARK  Name = 
REMARK  6 active torsions:
REMARK  status: ('A' for Active; 'I' for Inactive)
REMARK    1  A    between atoms: C_1  and  C_2
REMARK    2  A    between atoms: C_6  and  C_7
REMARK    3  A    between atoms: C_10  and  N_11
REMARK    4  A    between atoms: C_16  and  C_17
REMARK    5  A    between atoms: N_18  and  N_19
REMARK    6  A    between atoms: C_24  and  C_25
REMARK                            x       y       z     vdW  Elec       q    Type
REMARK                         _______ _______ _______ _____ _____    ______ ____
ROOT
ATOM      1  C   UNL     1      -3.119  13.776  22.353  0.00  0.00    +0.000 C 
ATOM      2  C   UNL     1      -2.213  12.763  21.732  0.00  0.00    +0.000 A 
ATOM      3  S   UNL     1      -0.872  12.147  22.683  0.00  0.00    +0.000 S 
ATOM      4  C   UNL     1      -0.431  11.162  21.344  0.00  0.00    +0.000 A 
ATOM      5  N   UNL     1       0.533  10.328  21.214  0.00  0.00    +0.000 NA
ATOM      6  C   UNL     1       0.396   9.852  19.938  0.00  0.00    +0.000 A 
ATOM      7  C   UNL     1      -0.721  10.425  19.276  0.00  0.00    +0.000 A 
ATOM      8  N   UNL     1      -1.249  11.297  20.248  0.00  0.00    +0.000 N 
ATOM      9  C   UNL     1      -2.287  12.225  20.483  0.00  0.00    +0.000 A 
ATOM     10  C   UNL     1      -3.370  12.612  19.547  0.00  0.00    +0.000 C 
ENDROOT
BRANCH   6  11
ATOM     11  C   UNL     1       1.423   8.901  19.516  0.00  0.00    +0.000 A 
ATOM     12  C   UNL     1       1.963   9.062  18.217  0.00  0.00    +0.000 A 
ATOM     13  C   UNL     1       2.753   8.077  17.616  0.00  0.00    +0.000 A 
ATOM     14  C   UNL     1       3.027   6.909  18.325  0.00  0.00    +0.000 A 
ATOM     15  C   UNL     1       2.508   6.725  19.616  0.00  0.00    +0.000 A 
ATOM     16  C   UNL     1       1.708   7.721  20.207  0.00  0.00    +0.000 A 
BRANCH  14  17
ATOM     17  N   UNL     1       3.837   5.852  17.690  0.00  0.00    +0.000 N 
ATOM     18  O   UNL     1       4.584   6.173  16.761  0.00  0.00    +0.000 OA
ATOM     19  O   UNL     1       3.722   4.699  18.138  0.00  0.00    +0.000 OA
ENDBRANCH  14  17
ENDBRANCH   6  11
BRANCH   7  20
ATOM     20  C   UNL     1      -1.182  10.137  17.927  0.00  0.00    +0.000 C 
ATOM     21  N   UNL     1      -2.414   9.870  17.603  0.00  0.00    +0.000 NA
BRANCH  21  22
ATOM     22  N   UNL     1      -2.539   9.606  16.219  0.00  0.00    +0.000 NA
ATOM     23  C   UNL     1      -3.301  10.444  15.580  0.00  0.00    +0.000 C 
ATOM     24  N   UNL     1      -3.926  11.523  16.110  0.00  0.00    +0.000 N 
ATOM     25  N   UNL     1      -3.553  10.345  14.260  0.00  0.00    +0.000 N 
ATOM     26  H   UNL     1      -3.937  11.444  17.122  0.00  0.00    +0.000 HD
ATOM     27  H   UNL     1      -4.842  11.722  15.728  0.00  0.00    +0.000 HD
ATOM     28  H   UNL     1      -3.141   9.585  13.739  0.00  0.00    +0.000 HD
ATOM     29  H   UNL     1      -4.146  10.999  13.773  0.00  0.00    +0.000 HD
ENDBRANCH  21  22
ENDBRANCH   7  20
TORSDOF 4
ENDMDL
MODEL 8
REMARK VINA RESULT:      -7.0      1.793      2.164
REMARK  Name = 
REMARK  6 active torsions:
REMARK  status: ('A' for Active; 'I' for Inactive)
REMARK    1  A    between atoms: C_1  and  C_2
REMARK    2  A    between atoms: C_6  and  C_7
REMARK    3  A    between atoms: C_10  and  N_11
REMARK    4  A    between atoms: C_16  and  C_17
REMARK    5  A    between atoms: N_18  and  N_19
REMARK    6  A    between atoms: C_24  and  C_25
REMARK                            x       y       z     vdW  Elec       q    Type
REMARK                         _______ _______ _______ _____ _____    ______ ____
ROOT
ATOM      1  C   UNL     1      -0.259  10.193  20.661  0.00  0.00    +0.000 C 
ATOM      2  C   UNL     1       0.733   9.328  19.954  0.00  0.00    +0.000 A 
ATOM      3  S   UNL     1       1.378   9.881  18.417  0.00  0.00    +0.000 S 
ATOM      4  C   UNL     1       2.320   8.444  18.344  0.00  0.00    +0.000 A 
ATOM      5  N   UNL     1       3.148   8.044  17.452  0.00  0.00    +0.000 NA
ATOM      6  C   UNL     1       3.583   6.832  17.917  0.00  0.00    +0.000 A 
ATOM      7  C   UNL     1       2.989   6.499  19.163  0.00  0.00    +0.000 A 
ATOM      8  N   UNL     1       2.149   7.601  19.416  0.00  0.00    +0.000 N 
ATOM      9  C   UNL     1       1.230   8.124  20.351  0.00  0.00    +0.000 A 
ATOM     10  C   UNL     1       0.814   7.511  21.636  0.00  0.00    +0.000 C 
ENDROOT
BRANCH   6  11
ATOM     11  C   UNL     1       4.520   6.131  17.041  0.00  0.00    +0.000 A 
ATOM     12  C   UNL     1       5.631   6.866  16.559  0.00  0.00    +0.000 A 
ATOM     13  C   UNL     1       6.443   6.388  15.526  0.00  0.00    +0.000 A 
ATOM     14  C   UNL     1       6.157   5.144  14.966  0.00  0.00    +0.000 A 
ATOM     15  C   UNL     1       5.064   4.394  15.426  0.00  0.00    +0.000 A 
ATOM     16  C   UNL     1       4.249   4.889  16.461  0.00  0.00    +0.000 A 
BRANCH  14  17
ATOM     17  N   UNL     1       6.991   4.643  13.858  0.00  0.00    +0.000 N 
ATOM     18  O   UNL     1       6.620   3.624  13.267  0.00  0.00    +0.000 OA
ATOM     19  O   UNL     1       8.017   5.286  13.580  0.00  0.00    +0.000 OA
ENDBRANCH  14  17
ENDBRANCH   6  11
BRANCH   7  20
ATOM     20  C   UNL     1       3.235   5.306  19.958  0.00  0.00    +0.000 C 
ATOM     21  N   UNL     1       2.841   4.107  19.642  0.00  0.00    +0.000 NA
BRANCH  21  22
ATOM     22  N   UNL     1       3.208   3.164  20.631  0.00  0.00    +0.000 NA
ATOM     23  C   UNL     1       4.295   2.502  20.362  0.00  0.00    +0.000 C 
ATOM     24  N   UNL     1       5.084   2.666  19.273  0.00  0.00    +0.000 N 
ATOM     25  N   UNL     1       4.793   1.551  21.177  0.00  0.00    +0.000 N 
ATOM     26  H   UNL     1       4.579   3.187  18.564  0.00  0.00    +0.000 HD
ATOM     27  H   UNL     1       5.497   1.817  18.908  0.00  0.00    +0.000 HD
ATOM     28  H   UNL     1       4.302   1.333  22.031  0.00  0.00    +0.000 HD
ATOM     29  H   UNL     1       5.635   1.042  20.960  0.00  0.00    +0.000 HD
ENDBRANCH  21  22
ENDBRANCH   7  20
TORSDOF 4
ENDMDL
MODEL 9
REMARK VINA RESULT:      -6.7      3.930      6.651
REMARK  Name = 
REMARK  6 active torsions:
REMARK  status: ('A' for Active; 'I' for Inactive)
REMARK    1  A    between atoms: C_1  and  C_2
REMARK    2  A    between atoms: C_6  and  C_7
REMARK    3  A    between atoms: C_10  and  N_11
REMARK    4  A    between atoms: C_16  and  C_17
REMARK    5  A    between atoms: N_18  and  N_19
REMARK    6  A    between atoms: C_24  and  C_25
REMARK                            x       y       z     vdW  Elec       q    Type
REMARK                         _______ _______ _______ _____ _____    ______ ____
ROOT
ATOM      1  C   UNL     1       6.687   4.230  14.782  0.00  0.00    +0.000 C 
ATOM      2  C   UNL     1       5.700   4.892  15.687  0.00  0.00    +0.000 A 
ATOM      3  S   UNL     1       5.564   6.642  15.640  0.00  0.00    +0.000 S 
ATOM      4  C   UNL     1       4.346   6.537  16.851  0.00  0.00    +0.000 A 
ATOM      5  N   UNL     1       3.666   7.461  17.419  0.00  0.00    +0.000 NA
ATOM      6  C   UNL     1       2.861   6.791  18.302  0.00  0.00    +0.000 A 
ATOM      7  C   UNL     1       3.065   5.388  18.244  0.00  0.00    +0.000 A 
ATOM      8  N   UNL     1       4.067   5.256  17.262  0.00  0.00    +0.000 N 
ATOM      9  C   UNL     1       4.853   4.304  16.578  0.00  0.00    +0.000 A 
ATOM     10  C   UNL     1       4.815   2.830  16.737  0.00  0.00    +0.000 C 
ENDROOT
BRANCH   6  11
ATOM     11  C   UNL     1       2.002   7.640  19.126  0.00  0.00    +0.000 A 
ATOM     12  C   UNL     1       1.648   8.907  18.601  0.00  0.00    +0.000 A 
ATOM     13  C   UNL     1       1.052   9.895  19.392  0.00  0.00    +0.000 A 
ATOM     14  C   UNL     1       0.787   9.616  20.732  0.00  0.00    +0.000 A 
ATOM     15  C   UNL     1       1.125   8.368  21.276  0.00  0.00    +0.000 A 
ATOM     16  C   UNL     1       1.732   7.385  20.472  0.00  0.00    +0.000 A 
BRANCH  14  17
ATOM     17  N   UNL     1       0.184  10.661  21.581  0.00  0.00    +0.000 N 
ATOM     18  O   UNL     1      -0.449  11.565  21.027  0.00  0.00    +0.000 OA
ATOM     19  O   UNL     1       0.345  10.560  22.809  0.00  0.00    +0.000 OA
ENDBRANCH  14  17
ENDBRANCH   6  11
BRANCH   7  20
ATOM     20  C   UNL     1       2.371   4.370  19.016  0.00  0.00    +0.000 C 
ATOM     21  N   UNL     1       2.951   3.394  19.652  0.00  0.00    +0.000 NA
BRANCH  21  22
ATOM     22  N   UNL     1       2.005   2.555  20.286  0.00  0.00    +0.000 NA
ATOM     23  C   UNL     1       1.804   2.826  21.542  0.00  0.00    +0.000 C 
ATOM     24  N   UNL     1       2.381   3.829  22.247  0.00  0.00    +0.000 N 
ATOM     25  N   UNL     1       0.951   2.125  22.315  0.00  0.00    +0.000 N 
ATOM     26  H   UNL     1       3.188   4.179  21.740  0.00  0.00    +0.000 HD
ATOM     27  H   UNL     1       2.597   3.610  23.211  0.00  0.00    +0.000 HD
ATOM     28  H   UNL     1       0.448   1.350  21.911  0.00  0.00    +0.000 HD
ATOM     29  H   UNL     1       0.804   2.341  23.289  0.00  0.00    +0.000 HD
ENDBRANCH  21  22
ENDBRANCH   7  20
TORSDOF 4
ENDMDL
