MODEL 1
REMARK VINA RESULT:      -7.0      0.000      0.000
REMARK  Name = 
REMARK  10 active torsions:
REMARK  status: ('A' for Active; 'I' for Inactive)
REMARK    1  A    between atoms: C_1  and  C_2
REMARK    2  A    between atoms: C_2  and  C_3
REMARK    3  A    between atoms: C_3  and  C_4
REMARK    4  A    between atoms: C_4  and  O_6
REMARK    5  A    between atoms: O_6  and  C_7
REMARK    6  A    between atoms: C_7  and  C_8
REMARK    7  A    between atoms: C_8  and  C_9
REMARK    8  A    between atoms: C_13  and  C_15
REMARK    9  A    between atoms: C_15  and  C_16
REMARK   10  A    between atoms: C_16  and  C_17
REMARK                            x       y       z     vdW  Elec       q    Type
REMARK                         _______ _______ _______ _____ _____    ______ ____
ROOT
ATOM      1  C   UNL     1       4.002   6.464  17.458  0.00  0.00    +0.000 C 
ATOM      2  C   UNL     1       3.277   7.756  17.742  0.00  0.00    +0.000 C 
ATOM      3  C   UNL     1       3.347   5.291  17.546  0.00  0.00    +0.000 C 
ATOM      4  C   UNL     1       1.925   4.882  17.820  0.00  0.00    +0.000 C 
ATOM      5  N   UNL     1       2.423   3.519  17.864  0.00  0.00    +0.000 N 
ATOM      6  C   UNL     1       2.071   2.491  18.717  0.00  0.00    +0.000 C 
ATOM      7  O   UNL     1       2.596   1.384  18.703  0.00  0.00    +0.000 OA
ATOM      8  C   UNL     1       3.702   3.868  17.512  0.00  0.00    +0.000 C 
ATOM      9  O   UNL     1       4.721   3.265  17.264  0.00  0.00    +0.000 OA
ENDROOT
BRANCH   1  10
ATOM     10  C   UNL     1       5.488   6.570  17.200  0.00  0.00    +0.000 C 
BRANCH  10  11
ATOM     11  O   UNL     1       5.784   6.122  15.864  0.00  0.00    +0.000 OA
BRANCH  11  12
ATOM     12  C   UNL     1       6.844   5.274  15.751  0.00  0.00    +0.000 C 
ATOM     13  O   UNL     1       7.607   4.977  16.663  0.00  0.00    +0.000 OA
BRANCH  12  14
ATOM     14  C   UNL     1       6.998   4.780  14.329  0.00  0.00    +0.000 C 
BRANCH  14  16
ATOM     15  C   UNL     1       5.877   3.398  12.520  0.00  0.00    +0.000 C 
ATOM     16  C   UNL     1       5.707   4.113  13.850  0.00  0.00    +0.000 C 
ENDBRANCH  14  16
ENDBRANCH  12  14
ENDBRANCH  11  12
ENDBRANCH  10  11
ENDBRANCH   1  10
BRANCH   6  17
ATOM     17  C   UNL     1       0.873   2.809  19.616  0.00  0.00    +0.000 C 
BRANCH  17  18
ATOM     18  C   UNL     1       1.239   2.839  21.098  0.00  0.00    +0.000 C 
ATOM     19  C   UNL     1       2.169   3.996  21.440  0.00  0.00    +0.000 C 
ENDBRANCH  17  18
ENDBRANCH   6  17
TORSDOF 7
ENDMDL
MODEL 2
REMARK VINA RESULT:      -7.0      2.063      5.895
REMARK  Name = 
REMARK  10 active torsions:
REMARK  status: ('A' for Active; 'I' for Inactive)
REMARK    1  A    between atoms: C_1  and  C_2
REMARK    2  A    between atoms: C_2  and  C_3
REMARK    3  A    between atoms: C_3  and  C_4
REMARK    4  A    between atoms: C_4  and  O_6
REMARK    5  A    between atoms: O_6  and  C_7
REMARK    6  A    between atoms: C_7  and  C_8
REMARK    7  A    between atoms: C_8  and  C_9
REMARK    8  A    between atoms: C_13  and  C_15
REMARK    9  A    between atoms: C_15  and  C_16
REMARK   10  A    between atoms: C_16  and  C_17
REMARK                            x       y       z     vdW  Elec       q    Type
REMARK                         _______ _______ _______ _____ _____    ______ ____
ROOT
ATOM      1  C   UNL     1       3.246   5.836  18.961  0.00  0.00    +0.000 C 
ATOM      2  C   UNL     1       2.094   6.376  18.149  0.00  0.00    +0.000 C 
ATOM      3  C   UNL     1       4.485   5.811  18.437  0.00  0.00    +0.000 C 
ATOM      4  C   UNL     1       5.108   6.280  17.150  0.00  0.00    +0.000 C 
ATOM      5  N   UNL     1       6.309   5.591  17.588  0.00  0.00    +0.000 N 
ATOM      6  C   UNL     1       7.199   4.839  16.847  0.00  0.00    +0.000 C 
ATOM      7  O   UNL     1       8.161   4.250  17.329  0.00  0.00    +0.000 OA
ATOM      8  C   UNL     1       5.787   5.246  18.809  0.00  0.00    +0.000 C 
ATOM      9  O   UNL     1       6.211   4.703  19.803  0.00  0.00    +0.000 OA
ENDROOT
BRANCH   1  10
ATOM     10  C   UNL     1       2.897   5.235  20.304  0.00  0.00    +0.000 C 
BRANCH  10  11
ATOM     11  O   UNL     1       1.505   4.869  20.327  0.00  0.00    +0.000 OA
BRANCH  11  12
ATOM     12  C   UNL     1       1.250   3.544  20.515  0.00  0.00    +0.000 C 
ATOM     13  O   UNL     1       1.351   2.953  21.585  0.00  0.00    +0.000 OA
BRANCH  12  14
ATOM     14  C   UNL     1       0.874   2.871  19.213  0.00  0.00    +0.000 C 
BRANCH  14  16
ATOM     15  C   UNL     1       2.594   2.658  17.360  0.00  0.00    +0.000 C 
ATOM     16  C   UNL     1       2.058   2.077  18.658  0.00  0.00    +0.000 C 
ENDBRANCH  14  16
ENDBRANCH  12  14
ENDBRANCH  11  12
ENDBRANCH  10  11
ENDBRANCH   1  10
BRANCH   6  17
ATOM     17  C   UNL     1       6.958   4.894  15.336  0.00  0.00    +0.000 C 
BRANCH  17  18
ATOM     18  C   UNL     1       6.138   3.712  14.825  0.00  0.00    +0.000 C 
ATOM     19  C   UNL     1       5.711   3.890  13.373  0.00  0.00    +0.000 C 
ENDBRANCH  17  18
ENDBRANCH   6  17
TORSDOF 7
ENDMDL
MODEL 3
REMARK VINA RESULT:      -7.0      2.348      6.101
REMARK  Name = 
REMARK  10 active torsions:
REMARK  status: ('A' for Active; 'I' for Inactive)
REMARK    1  A    between atoms: C_1  and  C_2
REMARK    2  A    between atoms: C_2  and  C_3
REMARK    3  A    between atoms: C_3  and  C_4
REMARK    4  A    between atoms: C_4  and  O_6
REMARK    5  A    between atoms: O_6  and  C_7
REMARK    6  A    between atoms: C_7  and  C_8
REMARK    7  A    between atoms: C_8  and  C_9
REMARK    8  A    between atoms: C_13  and  C_15
REMARK    9  A    between atoms: C_15  and  C_16
REMARK   10  A    between atoms: C_16  and  C_17
REMARK                            x       y       z     vdW  Elec       q    Type
REMARK                         _______ _______ _______ _____ _____    ______ ____
ROOT
ATOM      1  C   UNL     1       2.791   5.198  18.428  0.00  0.00    +0.000 C 
ATOM      2  C   UNL     1       2.191   6.201  19.382  0.00  0.00    +0.000 C 
ATOM      3  C   UNL     1       4.119   4.974  18.435  0.00  0.00    +0.000 C 
ATOM      4  C   UNL     1       5.278   5.459  19.263  0.00  0.00    +0.000 C 
ATOM      5  N   UNL     1       6.128   4.774  18.306  0.00  0.00    +0.000 N 
ATOM      6  C   UNL     1       7.337   5.177  17.773  0.00  0.00    +0.000 C 
ATOM      7  O   UNL     1       7.953   4.543  16.924  0.00  0.00    +0.000 OA
ATOM      8  C   UNL     1       5.079   4.240  17.603  0.00  0.00    +0.000 C 
ATOM      9  O   UNL     1       4.967   3.472  16.676  0.00  0.00    +0.000 OA
ENDROOT
BRANCH   1  10
ATOM     10  C   UNL     1       1.848   4.580  17.422  0.00  0.00    +0.000 C 
BRANCH  10  11
ATOM     11  O   UNL     1       0.952   3.671  18.087  0.00  0.00    +0.000 OA
BRANCH  11  12
ATOM     12  C   UNL     1       1.516   2.518  18.542  0.00  0.00    +0.000 C 
ATOM     13  O   UNL     1       2.401   1.895  17.967  0.00  0.00    +0.000 OA
BRANCH  12  14
ATOM     14  C   UNL     1       0.871   2.068  19.834  0.00  0.00    +0.000 C 
BRANCH  14  16
ATOM     15  C   UNL     1       2.678   2.782  21.466  0.00  0.00    +0.000 C 
ATOM     16  C   UNL     1       1.255   3.004  20.981  0.00  0.00    +0.000 C 
ENDBRANCH  14  16
ENDBRANCH  12  14
ENDBRANCH  11  12
ENDBRANCH  10  11
ENDBRANCH   1  10
BRANCH   6  17
ATOM     17  C   UNL     1       7.917   6.438  18.421  0.00  0.00    +0.000 C 
BRANCH  17  18
ATOM     18  C   UNL     1       7.666   7.696  17.595  0.00  0.00    +0.000 C 
ATOM     19  C   UNL     1       8.368   8.918  18.175  0.00  0.00    +0.000 C 
ENDBRANCH  17  18
ENDBRANCH   6  17
TORSDOF 7
ENDMDL
MODEL 4
REMARK VINA RESULT:      -6.7      1.524      2.197
REMARK  Name = 
REMARK  10 active torsions:
REMARK  status: ('A' for Active; 'I' for Inactive)
REMARK    1  A    between atoms: C_1  and  C_2
REMARK    2  A    between atoms: C_2  and  C_3
REMARK    3  A    between atoms: C_3  and  C_4
REMARK    4  A    between atoms: C_4  and  O_6
REMARK    5  A    between atoms: O_6  and  C_7
REMARK    6  A    between atoms: C_7  and  C_8
REMARK    7  A    between atoms: C_8  and  C_9
REMARK    8  A    between atoms: C_13  and  C_15
REMARK    9  A    between atoms: C_15  and  C_16
REMARK   10  A    between atoms: C_16  and  C_17
REMARK                            x       y       z     vdW  Elec       q    Type
REMARK                         _______ _______ _______ _____ _____    ______ ____
ROOT
ATOM      1  C   UNL     1       6.243   5.337  17.473  0.00  0.00    +0.000 C 
ATOM      2  C   UNL     1       7.170   6.149  18.344  0.00  0.00    +0.000 C 
ATOM      3  C   UNL     1       4.927   5.292  17.748  0.00  0.00    +0.000 C 
ATOM      4  C   UNL     1       4.026   5.949  18.759  0.00  0.00    +0.000 C 
ATOM      5  N   UNL     1       2.984   5.064  18.269  0.00  0.00    +0.000 N 
ATOM      6  C   UNL     1       2.009   4.392  18.979  0.00  0.00    +0.000 C 
ATOM      7  O   UNL     1       1.204   3.620  18.469  0.00  0.00    +0.000 OA
ATOM      8  C   UNL     1       3.765   4.531  17.275  0.00  0.00    +0.000 C 
ATOM      9  O   UNL     1       3.588   3.753  16.366  0.00  0.00    +0.000 OA
ENDROOT
BRANCH   1  10
ATOM     10  C   UNL     1       6.895   4.512  16.387  0.00  0.00    +0.000 C 
BRANCH  10  11
ATOM     11  O   UNL     1       7.505   5.381  15.414  0.00  0.00    +0.000 OA
BRANCH  11  12
ATOM     12  C   UNL     1       7.300   5.038  14.112  0.00  0.00    +0.000 C 
ATOM     13  O   UNL     1       7.890   5.527  13.155  0.00  0.00    +0.000 OA
BRANCH  12  14
ATOM     14  C   UNL     1       6.203   4.004  13.986  0.00  0.00    +0.000 C 
BRANCH  14  16
ATOM     15  C   UNL     1       4.778   3.397  11.976  0.00  0.00    +0.000 C 
ATOM     16  C   UNL     1       6.176   3.419  12.573  0.00  0.00    +0.000 C 
ENDBRANCH  14  16
ENDBRANCH  12  14
ENDBRANCH  11  12
ENDBRANCH  10  11
ENDBRANCH   1  10
BRANCH   6  17
ATOM     17  C   UNL     1       1.932   4.782  20.458  0.00  0.00    +0.000 C 
BRANCH  17  18
ATOM     18  C   UNL     1       2.473   3.697  21.385  0.00  0.00    +0.000 C 
ATOM     19  C   UNL     1       1.444   2.607  21.660  0.00  0.00    +0.000 C 
ENDBRANCH  17  18
ENDBRANCH   6  17
TORSDOF 7
ENDMDL
MODEL 5
REMARK VINA RESULT:      -6.7      1.481      1.873
REMARK  Name = 
REMARK  10 active torsions:
REMARK  status: ('A' for Active; 'I' for Inactive)
REMARK    1  A    between atoms: C_1  and  C_2
REMARK    2  A    between atoms: C_2  and  C_3
REMARK    3  A    between atoms: C_3  and  C_4
REMARK    4  A    between atoms: C_4  and  O_6
REMARK    5  A    between atoms: O_6  and  C_7
REMARK    6  A    between atoms: C_7  and  C_8
REMARK    7  A    between atoms: C_8  and  C_9
REMARK    8  A    between atoms: C_13  and  C_15
REMARK    9  A    between atoms: C_15  and  C_16
REMARK   10  A    between atoms: C_16  and  C_17
REMARK                            x       y       z     vdW  Elec       q    Type
REMARK                         _______ _______ _______ _____ _____    ______ ____
ROOT
ATOM      1  C   UNL     1       4.797   4.801  16.912  0.00  0.00    +0.000 C 
ATOM      2  C   UNL     1       5.506   6.057  17.356  0.00  0.00    +0.000 C 
ATOM      3  C   UNL     1       3.550   4.542  17.347  0.00  0.00    +0.000 C 
ATOM      4  C   UNL     1       2.545   5.272  18.197  0.00  0.00    +0.000 C 
ATOM      5  N   UNL     1       1.757   4.052  18.148  0.00  0.00    +0.000 N 
ATOM      6  C   UNL     1       1.021   3.452  19.151  0.00  0.00    +0.000 C 
ATOM      7  O   UNL     1       0.431   2.386  19.018  0.00  0.00    +0.000 OA
ATOM      8  C   UNL     1       2.615   3.413  17.290  0.00  0.00    +0.000 C 
ATOM      9  O   UNL     1       2.617   2.354  16.707  0.00  0.00    +0.000 OA
ENDROOT
BRANCH   1  10
ATOM     10  C   UNL     1       5.604   3.834  16.076  0.00  0.00    +0.000 C 
BRANCH  10  11
ATOM     11  O   UNL     1       5.510   4.195  14.685  0.00  0.00    +0.000 OA
BRANCH  11  12
ATOM     12  C   UNL     1       6.678   4.578  14.098  0.00  0.00    +0.000 C 
ATOM     13  O   UNL     1       7.540   5.266  14.632  0.00  0.00    +0.000 OA
BRANCH  12  14
ATOM     14  C   UNL     1       6.755   4.087  12.669  0.00  0.00    +0.000 C 
BRANCH  14  16
ATOM     15  C   UNL     1       5.779   2.018  11.571  0.00  0.00    +0.000 C 
ATOM     16  C   UNL     1       5.484   3.322  12.294  0.00  0.00    +0.000 C 
ENDBRANCH  14  16
ENDBRANCH  12  14
ENDBRANCH  11  12
ENDBRANCH  10  11
ENDBRANCH   1  10
BRANCH   6  17
ATOM     17  C   UNL     1       0.897   4.294  20.424  0.00  0.00    +0.000 C 
BRANCH  17  18
ATOM     18  C   UNL     1       2.095   4.134  21.357  0.00  0.00    +0.000 C 
ATOM     19  C   UNL     1       2.457   2.672  21.586  0.00  0.00    +0.000 C 
ENDBRANCH  17  18
ENDBRANCH   6  17
TORSDOF 7
ENDMDL
MODEL 6
REMARK VINA RESULT:      -6.6      1.865      6.436
REMARK  Name = 
REMARK  10 active torsions:
REMARK  status: ('A' for Active; 'I' for Inactive)
REMARK    1  A    between atoms: C_1  and  C_2
REMARK    2  A    between atoms: C_2  and  C_3
REMARK    3  A    between atoms: C_3  and  C_4
REMARK    4  A    between atoms: C_4  and  O_6
REMARK    5  A    between atoms: O_6  and  C_7
REMARK    6  A    between atoms: C_7  and  C_8
REMARK    7  A    between atoms: C_8  and  C_9
REMARK    8  A    between atoms: C_13  and  C_15
REMARK    9  A    between atoms: C_15  and  C_16
REMARK   10  A    between atoms: C_16  and  C_17
REMARK                            x       y       z     vdW  Elec       q    Type
REMARK                         _______ _______ _______ _____ _____    ______ ____
ROOT
ATOM      1  C   UNL     1       3.415   2.819  18.490  0.00  0.00    +0.000 C 
ATOM      2  C   UNL     1       2.250   2.242  17.725  0.00  0.00    +0.000 C 
ATOM      3  C   UNL     1       4.169   3.788  17.939  0.00  0.00    +0.000 C 
ATOM      4  C   UNL     1       4.123   4.575  16.657  0.00  0.00    +0.000 C 
ATOM      5  N   UNL     1       5.420   5.103  17.043  0.00  0.00    +0.000 N 
ATOM      6  C   UNL     1       6.527   5.351  16.255  0.00  0.00    +0.000 C 
ATOM      7  O   UNL     1       7.600   5.750  16.693  0.00  0.00    +0.000 OA
ATOM      8  C   UNL     1       5.427   4.472  18.261  0.00  0.00    +0.000 C 
ATOM      9  O   UNL     1       6.158   4.469  19.224  0.00  0.00    +0.000 OA
ENDROOT
BRANCH   1  10
ATOM     10  C   UNL     1       3.735   2.169  19.817  0.00  0.00    +0.000 C 
BRANCH  10  11
ATOM     11  O   UNL     1       3.456   3.086  20.890  0.00  0.00    +0.000 OA
BRANCH  11  12
ATOM     12  C   UNL     1       2.168   3.095  21.334  0.00  0.00    +0.000 C 
ATOM     13  O   UNL     1       1.676   2.257  22.081  0.00  0.00    +0.000 OA
BRANCH  12  14
ATOM     14  C   UNL     1       1.395   4.252  20.740  0.00  0.00    +0.000 C 
BRANCH  14  16
ATOM     15  C   UNL     1       2.198   6.289  19.457  0.00  0.00    +0.000 C 
ATOM     16  C   UNL     1       2.233   5.532  20.774  0.00  0.00    +0.000 C 
ENDBRANCH  14  16
ENDBRANCH  12  14
ENDBRANCH  11  12
ENDBRANCH  10  11
ENDBRANCH   1  10
BRANCH   6  17
ATOM     17  C   UNL     1       6.270   5.203  14.753  0.00  0.00    +0.000 C 
BRANCH  17  18
ATOM     18  C   UNL     1       6.369   3.755  14.276  0.00  0.00    +0.000 C 
ATOM     19  C   UNL     1       6.046   3.612  12.794  0.00  0.00    +0.000 C 
ENDBRANCH  17  18
ENDBRANCH   6  17
TORSDOF 7
ENDMDL
MODEL 7
REMARK VINA RESULT:      -6.6      2.421      5.970
REMARK  Name = 
REMARK  10 active torsions:
REMARK  status: ('A' for Active; 'I' for Inactive)
REMARK    1  A    between atoms: C_1  and  C_2
REMARK    2  A    between atoms: C_2  and  C_3
REMARK    3  A    between atoms: C_3  and  C_4
REMARK    4  A    between atoms: C_4  and  O_6
REMARK    5  A    between atoms: O_6  and  C_7
REMARK    6  A    between atoms: C_7  and  C_8
REMARK    7  A    between atoms: C_8  and  C_9
REMARK    8  A    between atoms: C_13  and  C_15
REMARK    9  A    between atoms: C_15  and  C_16
REMARK   10  A    between atoms: C_16  and  C_17
REMARK                            x       y       z     vdW  Elec       q    Type
REMARK                         _______ _______ _______ _____ _____    ______ ____
ROOT
ATOM      1  C   UNL     1       2.819   5.191  18.686  0.00  0.00    +0.000 C 
ATOM      2  C   UNL     1       2.306   5.983  19.863  0.00  0.00    +0.000 C 
ATOM      3  C   UNL     1       4.144   5.067  18.484  0.00  0.00    +0.000 C 
ATOM      4  C   UNL     1       5.381   5.499  19.225  0.00  0.00    +0.000 C 
ATOM      5  N   UNL     1       6.124   5.039  18.065  0.00  0.00    +0.000 N 
ATOM      6  C   UNL     1       7.224   5.610  17.456  0.00  0.00    +0.000 C 
ATOM      7  O   UNL     1       7.748   5.166  16.440  0.00  0.00    +0.000 OA
ATOM      8  C   UNL     1       5.016   4.547  17.424  0.00  0.00    +0.000 C 
ATOM      9  O   UNL     1       4.816   3.930  16.404  0.00  0.00    +0.000 OA
ENDROOT
BRANCH   1  10
ATOM     10  C   UNL     1       1.778   4.673  17.720  0.00  0.00    +0.000 C 
BRANCH  10  11
ATOM     11  O   UNL     1       1.891   3.242  17.603  0.00  0.00    +0.000 OA
BRANCH  11  12
ATOM     12  C   UNL     1       1.203   2.522  18.532  0.00  0.00    +0.000 C 
ATOM     13  O   UNL     1       0.001   2.284  18.488  0.00  0.00    +0.000 OA
BRANCH  12  14
ATOM     14  C   UNL     1       2.106   2.091  19.666  0.00  0.00    +0.000 C 
BRANCH  14  16
ATOM     15  C   UNL     1       4.601   1.901  20.087  0.00  0.00    +0.000 C 
ATOM     16  C   UNL     1       3.458   1.619  19.127  0.00  0.00    +0.000 C 
ENDBRANCH  14  16
ENDBRANCH  12  14
ENDBRANCH  11  12
ENDBRANCH  10  11
ENDBRANCH   1  10
BRANCH   6  17
ATOM     17  C   UNL     1       7.823   6.791  18.226  0.00  0.00    +0.000 C 
BRANCH  17  18
ATOM     18  C   UNL     1       7.657   8.120  17.492  0.00  0.00    +0.000 C 
ATOM     19  C   UNL     1       8.405   9.256  18.179  0.00  0.00    +0.000 C 
ENDBRANCH  17  18
ENDBRANCH   6  17
TORSDOF 7
ENDMDL
MODEL 8
REMARK VINA RESULT:      -6.6      1.520      2.086
REMARK  Name = 
REMARK  10 active torsions:
REMARK  status: ('A' for Active; 'I' for Inactive)
REMARK    1  A    between atoms: C_1  and  C_2
REMARK    2  A    between atoms: C_2  and  C_3
REMARK    3  A    between atoms: C_3  and  C_4
REMARK    4  A    between atoms: C_4  and  O_6
REMARK    5  A    between atoms: O_6  and  C_7
REMARK    6  A    between atoms: C_7  and  C_8
REMARK    7  A    between atoms: C_8  and  C_9
REMARK    8  A    between atoms: C_13  and  C_15
REMARK    9  A    between atoms: C_15  and  C_16
REMARK   10  A    between atoms: C_16  and  C_17
REMARK                            x       y       z     vdW  Elec       q    Type
REMARK                         _______ _______ _______ _____ _____    ______ ____
ROOT
ATOM      1  C   UNL     1       6.099   5.003  18.256  0.00  0.00    +0.000 C 
ATOM      2  C   UNL     1       6.968   5.676  19.289  0.00  0.00    +0.000 C 
ATOM      3  C   UNL     1       4.761   4.997  18.402  0.00  0.00    +0.000 C 
ATOM      4  C   UNL     1       3.793   5.595  19.388  0.00  0.00    +0.000 C 
ATOM      5  N   UNL     1       2.769   4.816  18.714  0.00  0.00    +0.000 N 
ATOM      6  C   UNL     1       1.703   4.127  19.257  0.00  0.00    +0.000 C 
ATOM      7  O   UNL     1       0.921   3.451  18.597  0.00  0.00    +0.000 OA
ATOM      8  C   UNL     1       3.621   4.346  17.747  0.00  0.00    +0.000 C 
ATOM      9  O   UNL     1       3.502   3.673  16.749  0.00  0.00    +0.000 OA
ENDROOT
BRANCH   1  10
ATOM     10  C   UNL     1       6.819   4.258  17.155  0.00  0.00    +0.000 C 
BRANCH  10  11
ATOM     11  O   UNL     1       7.132   5.162  16.079  0.00  0.00    +0.000 OA
BRANCH  11  12
ATOM     12  C   UNL     1       6.108   5.431  15.222  0.00  0.00    +0.000 C 
ATOM     13  O   UNL     1       5.552   6.517  15.110  0.00  0.00    +0.000 OA
BRANCH  12  14
ATOM     14  C   UNL     1       5.701   4.193  14.454  0.00  0.00    +0.000 C 
BRANCH  14  16
ATOM     15  C   UNL     1       5.912   3.223  12.118  0.00  0.00    +0.000 C 
ATOM     16  C   UNL     1       6.598   4.002  13.229  0.00  0.00    +0.000 C 
ENDBRANCH  14  16
ENDBRANCH  12  14
ENDBRANCH  11  12
ENDBRANCH  10  11
ENDBRANCH   1  10
BRANCH   6  17
ATOM     17  C   UNL     1       1.498   4.372  20.755  0.00  0.00    +0.000 C 
BRANCH  17  18
ATOM     18  C   UNL     1       1.660   3.103  21.588  0.00  0.00    +0.000 C 
ATOM     19  C   UNL     1       3.002   2.423  21.351  0.00  0.00    +0.000 C 
ENDBRANCH  17  18
ENDBRANCH   6  17
TORSDOF 7
ENDMDL
MODEL 9
REMARK VINA RESULT:      -6.5      1.409      1.749
REMARK  Name = 
REMARK  10 active torsions:
REMARK  status: ('A' for Active; 'I' for Inactive)
REMARK    1  A    between atoms: C_1  and  C_2
REMARK    2  A    between atoms: C_2  and  C_3
REMARK    3  A    between atoms: C_3  and  C_4
REMARK    4  A    between atoms: C_4  and  O_6
REMARK    5  A    between atoms: O_6  and  C_7
REMARK    6  A    between atoms: C_7  and  C_8
REMARK    7  A    between atoms: C_8  and  C_9
REMARK    8  A    between atoms: C_13  and  C_15
REMARK    9  A    between atoms: C_15  and  C_16
REMARK   10  A    between atoms: C_16  and  C_17
REMARK                            x       y       z     vdW  Elec       q    Type
REMARK                         _______ _______ _______ _____ _____    ______ ____
ROOT
ATOM      1  C   UNL     1       5.317   6.414  17.169  0.00  0.00    +0.000 C 
ATOM      2  C   UNL     1       4.553   7.389  16.307  0.00  0.00    +0.000 C 
ATOM      3  C   UNL     1       4.665   5.421  17.802  0.00  0.00    +0.000 C 
ATOM      4  C   UNL     1       3.242   4.933  17.838  0.00  0.00    +0.000 C 
ATOM      5  N   UNL     1       3.671   4.048  18.907  0.00  0.00    +0.000 N 
ATOM      6  C   UNL     1       3.007   3.703  20.068  0.00  0.00    +0.000 C 
ATOM      7  O   UNL     1       3.485   2.983  20.938  0.00  0.00    +0.000 OA
ATOM      8  C   UNL     1       4.990   4.409  18.814  0.00  0.00    +0.000 C 
ATOM      9  O   UNL     1       6.020   4.051  19.338  0.00  0.00    +0.000 OA
ENDROOT
BRANCH   1  10
ATOM     10  C   UNL     1       6.789   6.699  17.361  0.00  0.00    +0.000 C 
BRANCH  10  11
ATOM     11  O   UNL     1       7.507   6.392  16.151  0.00  0.00    +0.000 OA
BRANCH  11  12
ATOM     12  C   UNL     1       7.519   5.077  15.794  0.00  0.00    +0.000 C 
ATOM     13  O   UNL     1       7.843   4.152  16.530  0.00  0.00    +0.000 OA
BRANCH  12  14
ATOM     14  C   UNL     1       7.131   4.903  14.342  0.00  0.00    +0.000 C 
BRANCH  14  16
ATOM     15  C   UNL     1       5.695   3.531  12.762  0.00  0.00    +0.000 C 
ATOM     16  C   UNL     1       5.996   3.885  14.209  0.00  0.00    +0.000 C 
ENDBRANCH  14  16
ENDBRANCH  12  14
ENDBRANCH  11  12
ENDBRANCH  10  11
ENDBRANCH   1  10
BRANCH   6  17
ATOM     17  C   UNL     1       1.559   4.198  20.131  0.00  0.00    +0.000 C 
BRANCH  17  18
ATOM     18  C   UNL     1       0.542   3.061  20.060  0.00  0.00    +0.000 C 
ATOM     19  C   UNL     1       0.662   2.260  18.770  0.00  0.00    +0.000 C 
ENDBRANCH  17  18
ENDBRANCH   6  17
TORSDOF 7
ENDMDL
