MODEL 1
REMARK VINA RESULT:      -8.0      0.000      0.000
REMARK  Name = 
REMARK  13 active torsions:
REMARK  status: ('A' for Active; 'I' for Inactive)
REMARK    1  A    between atoms: C_1  and  C_2
REMARK    2  A    between atoms: C_2  and  C_3
REMARK    3  A    between atoms: C_3  and  O_4
REMARK    4  A    between atoms: O_4  and  C_5
REMARK    5  A    between atoms: C_8  and  C_9
REMARK    6  A    between atoms: C_9  and  C_10
REMARK    7  A    between atoms: C_9  and  N_14
REMARK    8  A    between atoms: C_10  and  C_11
REMARK    9  A    between atoms: C_11  and  O_13
REMARK   10  A    between atoms: N_14  and  S_15
REMARK   11  A    between atoms: S_15  and  C_18
REMARK   12  A    between atoms: C_21  and  N_22
REMARK   13  A    between atoms: C_23  and  C_24
REMARK                            x       y       z     vdW  Elec       q    Type
REMARK                         _______ _______ _______ _____ _____    ______ ____
ROOT
ATOM      1  C   UNL     1       5.147   4.307  16.694  0.00  0.00    +0.000 C 
ENDROOT
BRANCH   1   5
ATOM      2  C   UNL     1       7.821   7.356  18.277  0.00  0.00    +0.000 A 
ATOM      3  C   UNL     1       6.865   7.640  17.304  0.00  0.00    +0.000 A 
ATOM      4  C   UNL     1       5.981   6.659  16.868  0.00  0.00    +0.000 A 
ATOM      5  C   UNL     1       6.050   5.347  17.350  0.00  0.00    +0.000 A 
ATOM      6  C   UNL     1       7.004   5.060  18.337  0.00  0.00    +0.000 A 
ATOM      7  C   UNL     1       7.878   6.064  18.803  0.00  0.00    +0.000 A 
BRANCH   2   8
ATOM      8  O   UNL     1       8.733   8.269  18.757  0.00  0.00    +0.000 OA
BRANCH   8   9
ATOM      9  C   UNL     1       8.587   9.587  18.212  0.00  0.00    +0.000 C 
BRANCH   9  11
ATOM     10  C   UNL     1       9.876  11.720  18.092  0.00  0.00    +0.000 C 
ATOM     11  C   UNL     1       9.380  10.612  19.012  0.00  0.00    +0.000 C 
ENDBRANCH   9  11
ENDBRANCH   8   9
ENDBRANCH   2   8
ENDBRANCH   1   5
BRANCH   1  12
ATOM     12  N   UNL     1       4.575   3.375  17.706  0.00  0.00    +0.000 NA
ATOM     13  H   UNL     1       5.065   3.351  18.603  0.00  0.00    +0.000 HD
BRANCH  12  14
ATOM     14  S   UNL     1       2.901   3.323  17.947  0.00  0.00    +0.000 S 
ATOM     15  O   UNL     1       2.292   3.452  16.644  0.00  0.00    +0.000 OA
ATOM     16  O   UNL     1       2.610   2.212  18.826  0.00  0.00    +0.000 OA
BRANCH  14  17
ATOM     17  C   UNL     1       2.596   4.842  18.828  0.00  0.00    +0.000 A 
ATOM     18  C   UNL     1       2.169   4.783  20.151  0.00  0.00    +0.000 A 
ATOM     19  C   UNL     1       1.809   5.961  20.814  0.00  0.00    +0.000 A 
ATOM     20  C   UNL     1       1.851   7.200  20.163  0.00  0.00    +0.000 A 
ATOM     21  C   UNL     1       2.300   7.246  18.837  0.00  0.00    +0.000 A 
ATOM     22  C   UNL     1       2.710   6.079  18.183  0.00  0.00    +0.000 A 
BRANCH  20  23
ATOM     23  N   UNL     1       1.474   8.420  20.775  0.00  0.00    +0.000 N 
ATOM     24  C   UNL     1       0.297   8.676  21.451  0.00  0.00    +0.000 C 
ATOM     25  C   UNL     1       0.230  10.065  22.030  0.00  0.00    +0.000 C 
ATOM     26  O   UNL     1      -0.651   7.910  21.588  0.00  0.00    +0.000 OA
ATOM     27  H   UNL     1       2.156   9.169  20.732  0.00  0.00    +0.000 HD
ENDBRANCH  20  23
ENDBRANCH  14  17
ENDBRANCH  12  14
ENDBRANCH   1  12
BRANCH   1  28
ATOM     28  C   UNL     1       5.922   3.540  15.620  0.00  0.00    +0.000 C 
BRANCH  28  29
ATOM     29  C   UNL     1       6.201   4.273  14.335  0.00  0.00    +0.000 C 
ATOM     30  O   UNL     1       7.099   5.078  14.158  0.00  0.00    +0.000 OA
BRANCH  29  31
ATOM     31  O   UNL     1       5.238   4.057  13.405  0.00  0.00    +0.000 OA
ATOM     32  H   UNL     1       5.028   3.114  13.260  0.00  0.00    +0.000 HD
ENDBRANCH  29  31
ENDBRANCH  28  29
ENDBRANCH   1  28
TORSDOF 11
ENDMDL
MODEL 2
REMARK VINA RESULT:      -7.9      3.068      7.884
REMARK  Name = 
REMARK  13 active torsions:
REMARK  status: ('A' for Active; 'I' for Inactive)
REMARK    1  A    between atoms: C_1  and  C_2
REMARK    2  A    between atoms: C_2  and  C_3
REMARK    3  A    between atoms: C_3  and  O_4
REMARK    4  A    between atoms: O_4  and  C_5
REMARK    5  A    between atoms: C_8  and  C_9
REMARK    6  A    between atoms: C_9  and  C_10
REMARK    7  A    between atoms: C_9  and  N_14
REMARK    8  A    between atoms: C_10  and  C_11
REMARK    9  A    between atoms: C_11  and  O_13
REMARK   10  A    between atoms: N_14  and  S_15
REMARK   11  A    between atoms: S_15  and  C_18
REMARK   12  A    between atoms: C_21  and  N_22
REMARK   13  A    between atoms: C_23  and  C_24
REMARK                            x       y       z     vdW  Elec       q    Type
REMARK                         _______ _______ _______ _____ _____    ______ ____
ROOT
ATOM      1  C   UNL     1       2.915   5.892  20.058  0.00  0.00    +0.000 C 
ENDROOT
BRANCH   1   5
ATOM      2  C   UNL     1       0.972   9.590  18.834  0.00  0.00    +0.000 A 
ATOM      3  C   UNL     1       0.930   9.129  20.148  0.00  0.00    +0.000 A 
ATOM      4  C   UNL     1       1.617   7.980  20.521  0.00  0.00    +0.000 A 
ATOM      5  C   UNL     1       2.330   7.220  19.587  0.00  0.00    +0.000 A 
ATOM      6  C   UNL     1       2.384   7.687  18.265  0.00  0.00    +0.000 A 
ATOM      7  C   UNL     1       1.715   8.871  17.895  0.00  0.00    +0.000 A 
BRANCH   2   8
ATOM      8  O   UNL     1       0.317  10.715  18.385  0.00  0.00    +0.000 OA
BRANCH   8   9
ATOM      9  C   UNL     1      -1.090  10.722  18.656  0.00  0.00    +0.000 C 
BRANCH   9  11
ATOM     10  C   UNL     1      -3.084   9.643  17.613  0.00  0.00    +0.000 C 
ATOM     11  C   UNL     1      -1.906  10.578  17.378  0.00  0.00    +0.000 C 
ENDBRANCH   9  11
ENDBRANCH   8   9
ENDBRANCH   2   8
ENDBRANCH   1   5
BRANCH   1  12
ATOM     12  N   UNL     1       3.542   5.147  18.930  0.00  0.00    +0.000 NA
ATOM     13  H   UNL     1       3.468   5.599  18.016  0.00  0.00    +0.000 HD
BRANCH  12  14
ATOM     14  S   UNL     1       5.075   4.461  19.127  0.00  0.00    +0.000 S 
ATOM     15  O   UNL     1       5.873   5.431  19.841  0.00  0.00    +0.000 OA
ATOM     16  O   UNL     1       4.902   3.107  19.602  0.00  0.00    +0.000 OA
BRANCH  14  17
ATOM     17  C   UNL     1       5.684   4.404  17.453  0.00  0.00    +0.000 A 
ATOM     18  C   UNL     1       7.044   4.588  17.221  0.00  0.00    +0.000 A 
ATOM     19  C   UNL     1       7.517   4.668  15.907  0.00  0.00    +0.000 A 
ATOM     20  C   UNL     1       6.641   4.586  14.817  0.00  0.00    +0.000 A 
ATOM     21  C   UNL     1       5.277   4.383  15.065  0.00  0.00    +0.000 A 
ATOM     22  C   UNL     1       4.804   4.252  16.376  0.00  0.00    +0.000 A 
BRANCH  20  23
ATOM     23  N   UNL     1       7.059   4.687  13.468  0.00  0.00    +0.000 N 
ATOM     24  C   UNL     1       6.647   3.896  12.414  0.00  0.00    +0.000 C 
ATOM     25  C   UNL     1       7.247   4.301  11.092  0.00  0.00    +0.000 C 
ATOM     26  O   UNL     1       5.891   2.932  12.472  0.00  0.00    +0.000 OA
ATOM     27  H   UNL     1       7.709   5.437  13.258  0.00  0.00    +0.000 HD
ENDBRANCH  20  23
ENDBRANCH  14  17
ENDBRANCH  12  14
ENDBRANCH   1  12
BRANCH   1  28
ATOM     28  C   UNL     1       1.829   5.051  20.733  0.00  0.00    +0.000 C 
BRANCH  28  29
ATOM     29  C   UNL     1       1.235   3.933  19.918  0.00  0.00    +0.000 C 
ATOM     30  O   UNL     1       1.096   3.934  18.708  0.00  0.00    +0.000 OA
BRANCH  29  31
ATOM     31  O   UNL     1       0.718   2.951  20.699  0.00  0.00    +0.000 OA
ATOM     32  H   UNL     1      -0.198   3.118  20.995  0.00  0.00    +0.000 HD
ENDBRANCH  29  31
ENDBRANCH  28  29
ENDBRANCH   1  28
TORSDOF 11
ENDMDL
MODEL 3
REMARK VINA RESULT:      -7.8      3.090      7.724
REMARK  Name = 
REMARK  13 active torsions:
REMARK  status: ('A' for Active; 'I' for Inactive)
REMARK    1  A    between atoms: C_1  and  C_2
REMARK    2  A    between atoms: C_2  and  C_3
REMARK    3  A    between atoms: C_3  and  O_4
REMARK    4  A    between atoms: O_4  and  C_5
REMARK    5  A    between atoms: C_8  and  C_9
REMARK    6  A    between atoms: C_9  and  C_10
REMARK    7  A    between atoms: C_9  and  N_14
REMARK    8  A    between atoms: C_10  and  C_11
REMARK    9  A    between atoms: C_11  and  O_13
REMARK   10  A    between atoms: N_14  and  S_15
REMARK   11  A    between atoms: S_15  and  C_18
REMARK   12  A    between atoms: C_21  and  N_22
REMARK   13  A    between atoms: C_23  and  C_24
REMARK                            x       y       z     vdW  Elec       q    Type
REMARK                         _______ _______ _______ _____ _____    ______ ____
ROOT
ATOM      1  C   UNL     1       2.680   5.530  20.113  0.00  0.00    +0.000 C 
ENDROOT
BRANCH   1   5
ATOM      2  C   UNL     1       1.177   9.458  18.986  0.00  0.00    +0.000 A 
ATOM      3  C   UNL     1       1.060   8.962  20.283  0.00  0.00    +0.000 A 
ATOM      4  C   UNL     1       1.610   7.733  20.627  0.00  0.00    +0.000 A 
ATOM      5  C   UNL     1       2.253   6.930  19.679  0.00  0.00    +0.000 A 
ATOM      6  C   UNL     1       2.383   7.430  18.375  0.00  0.00    +0.000 A 
ATOM      7  C   UNL     1       1.855   8.691  18.035  0.00  0.00    +0.000 A 
BRANCH   2   8
ATOM      8  O   UNL     1       0.657  10.661  18.567  0.00  0.00    +0.000 OA
BRANCH   8   9
ATOM      9  C   UNL     1      -0.733  10.614  18.225  0.00  0.00    +0.000 C 
BRANCH   9  11
ATOM     10  C   UNL     1      -1.120  12.832  19.300  0.00  0.00    +0.000 C 
ATOM     11  C   UNL     1      -1.582  11.383  19.229  0.00  0.00    +0.000 C 
ENDBRANCH   9  11
ENDBRANCH   8   9
ENDBRANCH   2   8
ENDBRANCH   1   5
BRANCH   1  12
ATOM     12  N   UNL     1       3.374   4.810  19.009  0.00  0.00    +0.000 NA
ATOM     13  H   UNL     1       3.241   5.210  18.077  0.00  0.00    +0.000 HD
BRANCH  12  14
ATOM     14  S   UNL     1       4.976   4.307  19.211  0.00  0.00    +0.000 S 
ATOM     15  O   UNL     1       5.637   5.335  19.982  0.00  0.00    +0.000 OA
ATOM     16  O   UNL     1       4.962   2.923  19.627  0.00  0.00    +0.000 OA
BRANCH  14  17
ATOM     17  C   UNL     1       5.616   4.398  17.550  0.00  0.00    +0.000 A 
ATOM     18  C   UNL     1       6.990   4.517  17.360  0.00  0.00    +0.000 A 
ATOM     19  C   UNL     1       7.495   4.713  16.070  0.00  0.00    +0.000 A 
ATOM     20  C   UNL     1       6.639   4.810  14.966  0.00  0.00    +0.000 A 
ATOM     21  C   UNL     1       5.260   4.671  15.170  0.00  0.00    +0.000 A 
ATOM     22  C   UNL     1       4.751   4.425  16.450  0.00  0.00    +0.000 A 
BRANCH  20  23
ATOM     23  N   UNL     1       7.092   5.033  13.642  0.00  0.00    +0.000 N 
ATOM     24  C   UNL     1       6.838   4.244  12.538  0.00  0.00    +0.000 C 
ATOM     25  C   UNL     1       7.426   4.792  11.263  0.00  0.00    +0.000 C 
ATOM     26  O   UNL     1       6.224   3.182  12.521  0.00  0.00    +0.000 OA
ATOM     27  H   UNL     1       7.636   5.875  13.494  0.00  0.00    +0.000 HD
ENDBRANCH  20  23
ENDBRANCH  14  17
ENDBRANCH  12  14
ENDBRANCH   1  12
BRANCH   1  28
ATOM     28  C   UNL     1       1.465   4.740  20.604  0.00  0.00    +0.000 C 
BRANCH  28  29
ATOM     29  C   UNL     1       1.715   3.326  21.055  0.00  0.00    +0.000 C 
ATOM     30  O   UNL     1       1.862   2.966  22.210  0.00  0.00    +0.000 OA
BRANCH  29  31
ATOM     31  O   UNL     1       1.914   2.485  20.010  0.00  0.00    +0.000 OA
ATOM     32  H   UNL     1       2.751   1.982  20.056  0.00  0.00    +0.000 HD
ENDBRANCH  29  31
ENDBRANCH  28  29
ENDBRANCH   1  28
TORSDOF 11
ENDMDL
MODEL 4
REMARK VINA RESULT:      -7.7      2.447      6.948
REMARK  Name = 
REMARK  13 active torsions:
REMARK  status: ('A' for Active; 'I' for Inactive)
REMARK    1  A    between atoms: C_1  and  C_2
REMARK    2  A    between atoms: C_2  and  C_3
REMARK    3  A    between atoms: C_3  and  O_4
REMARK    4  A    between atoms: O_4  and  C_5
REMARK    5  A    between atoms: C_8  and  C_9
REMARK    6  A    between atoms: C_9  and  C_10
REMARK    7  A    between atoms: C_9  and  N_14
REMARK    8  A    between atoms: C_10  and  C_11
REMARK    9  A    between atoms: C_11  and  O_13
REMARK   10  A    between atoms: N_14  and  S_15
REMARK   11  A    between atoms: S_15  and  C_18
REMARK   12  A    between atoms: C_21  and  N_22
REMARK   13  A    between atoms: C_23  and  C_24
REMARK                            x       y       z     vdW  Elec       q    Type
REMARK                         _______ _______ _______ _____ _____    ______ ____
ROOT
ATOM      1  C   UNL     1       2.960   5.297  19.435  0.00  0.00    +0.000 C 
ENDROOT
BRANCH   1   5
ATOM      2  C   UNL     1       1.168   9.255  19.706  0.00  0.00    +0.000 A 
ATOM      3  C   UNL     1       1.197   8.378  20.788  0.00  0.00    +0.000 A 
ATOM      4  C   UNL     1       1.836   7.147  20.689  0.00  0.00    +0.000 A 
ATOM      5  C   UNL     1       2.427   6.725  19.493  0.00  0.00    +0.000 A 
ATOM      6  C   UNL     1       2.410   7.610  18.405  0.00  0.00    +0.000 A 
ATOM      7  C   UNL     1       1.791   8.871  18.516  0.00  0.00    +0.000 A 
BRANCH   2   8
ATOM      8  O   UNL     1       0.554  10.487  19.723  0.00  0.00    +0.000 OA
BRANCH   8   9
ATOM      9  C   UNL     1      -0.102  10.833  18.497  0.00  0.00    +0.000 C 
BRANCH   9  11
ATOM     10  C   UNL     1      -1.927   9.891  17.081  0.00  0.00    +0.000 C 
ATOM     11  C   UNL     1      -1.547  10.355  18.481  0.00  0.00    +0.000 C 
ENDBRANCH   9  11
ENDBRANCH   8   9
ENDBRANCH   2   8
ENDBRANCH   1   5
BRANCH   1  12
ATOM     12  N   UNL     1       3.594   5.009  18.118  0.00  0.00    +0.000 NA
ATOM     13  H   UNL     1       3.450   5.724  17.400  0.00  0.00    +0.000 HD
BRANCH  12  14
ATOM     14  S   UNL     1       5.180   4.425  18.060  0.00  0.00    +0.000 S 
ATOM     15  O   UNL     1       5.428   3.778  19.327  0.00  0.00    +0.000 OA
ATOM     16  O   UNL     1       5.360   3.743  16.798  0.00  0.00    +0.000 OA
BRANCH  14  17
ATOM     17  C   UNL     1       6.138   5.928  18.036  0.00  0.00    +0.000 A 
ATOM     18  C   UNL     1       5.698   6.999  17.262  0.00  0.00    +0.000 A 
ATOM     19  C   UNL     1       6.501   8.137  17.136  0.00  0.00    +0.000 A 
ATOM     20  C   UNL     1       7.752   8.212  17.762  0.00  0.00    +0.000 A 
ATOM     21  C   UNL     1       8.173   7.135  18.552  0.00  0.00    +0.000 A 
ATOM     22  C   UNL     1       7.354   6.013  18.723  0.00  0.00    +0.000 A 
BRANCH  20  23
ATOM     23  N   UNL     1       8.617   9.327  17.649  0.00  0.00    +0.000 N 
ATOM     24  C   UNL     1       9.125  10.087  18.685  0.00  0.00    +0.000 C 
ATOM     25  C   UNL     1      10.062  11.175  18.225  0.00  0.00    +0.000 C 
ATOM     26  O   UNL     1       8.871   9.964  19.878  0.00  0.00    +0.000 OA
ATOM     27  H   UNL     1       8.910   9.570  16.709  0.00  0.00    +0.000 HD
ENDBRANCH  20  23
ENDBRANCH  14  17
ENDBRANCH  12  14
ENDBRANCH   1  12
BRANCH   1  28
ATOM     28  C   UNL     1       1.832   4.304  19.729  0.00  0.00    +0.000 C 
BRANCH  28  29
ATOM     29  C   UNL     1       1.488   3.329  18.635  0.00  0.00    +0.000 C 
ATOM     30  O   UNL     1       1.051   3.622  17.536  0.00  0.00    +0.000 OA
BRANCH  29  31
ATOM     31  O   UNL     1       1.573   2.041  19.053  0.00  0.00    +0.000 OA
ATOM     32  H   UNL     1       2.486   1.734  19.215  0.00  0.00    +0.000 HD
ENDBRANCH  29  31
ENDBRANCH  28  29
ENDBRANCH   1  28
TORSDOF 11
ENDMDL
MODEL 5
REMARK VINA RESULT:      -7.7      3.028      7.551
REMARK  Name = 
REMARK  13 active torsions:
REMARK  status: ('A' for Active; 'I' for Inactive)
REMARK    1  A    between atoms: C_1  and  C_2
REMARK    2  A    between atoms: C_2  and  C_3
REMARK    3  A    between atoms: C_3  and  O_4
REMARK    4  A    between atoms: O_4  and  C_5
REMARK    5  A    between atoms: C_8  and  C_9
REMARK    6  A    between atoms: C_9  and  C_10
REMARK    7  A    between atoms: C_9  and  N_14
REMARK    8  A    between atoms: C_10  and  C_11
REMARK    9  A    between atoms: C_11  and  O_13
REMARK   10  A    between atoms: N_14  and  S_15
REMARK   11  A    between atoms: S_15  and  C_18
REMARK   12  A    between atoms: C_21  and  N_22
REMARK   13  A    between atoms: C_23  and  C_24
REMARK                            x       y       z     vdW  Elec       q    Type
REMARK                         _______ _______ _______ _____ _____    ______ ____
ROOT
ATOM      1  C   UNL     1       2.971   5.164  19.997  0.00  0.00    +0.000 C 
ENDROOT
BRANCH   1   5
ATOM      2  C   UNL     1       1.541   9.109  18.835  0.00  0.00    +0.000 A 
ATOM      3  C   UNL     1       1.350   8.598  20.117  0.00  0.00    +0.000 A 
ATOM      4  C   UNL     1       1.878   7.363  20.477  0.00  0.00    +0.000 A 
ATOM      5  C   UNL     1       2.571   6.570  19.556  0.00  0.00    +0.000 A 
ATOM      6  C   UNL     1       2.775   7.085  18.267  0.00  0.00    +0.000 A 
ATOM      7  C   UNL     1       2.269   8.352  17.914  0.00  0.00    +0.000 A 
BRANCH   2   8
ATOM      8  O   UNL     1       1.047  10.319  18.401  0.00  0.00    +0.000 OA
BRANCH   8   9
ATOM      9  C   UNL     1       0.148  10.950  19.321  0.00  0.00    +0.000 C 
BRANCH   9  11
ATOM     10  C   UNL     1      -1.878  12.382  19.585  0.00  0.00    +0.000 C 
ATOM     11  C   UNL     1      -1.033  11.587  18.599  0.00  0.00    +0.000 C 
ENDBRANCH   9  11
ENDBRANCH   8   9
ENDBRANCH   2   8
ENDBRANCH   1   5
BRANCH   1  12
ATOM     12  N   UNL     1       2.863   4.194  18.871  0.00  0.00    +0.000 NA
ATOM     13  H   UNL     1       2.544   4.590  17.984  0.00  0.00    +0.000 HD
BRANCH  12  14
ATOM     14  S   UNL     1       4.105   3.077  18.605  0.00  0.00    +0.000 S 
ATOM     15  O   UNL     1       4.880   3.024  19.823  0.00  0.00    +0.000 OA
ATOM     16  O   UNL     1       3.522   1.894  18.012  0.00  0.00    +0.000 OA
BRANCH  14  17
ATOM     17  C   UNL     1       5.100   3.899  17.377  0.00  0.00    +0.000 A 
ATOM     18  C   UNL     1       4.831   3.678  16.029  0.00  0.00    +0.000 A 
ATOM     19  C   UNL     1       5.680   4.218  15.057  0.00  0.00    +0.000 A 
ATOM     20  C   UNL     1       6.810   4.963  15.417  0.00  0.00    +0.000 A 
ATOM     21  C   UNL     1       7.058   5.192  16.777  0.00  0.00    +0.000 A 
ATOM     22  C   UNL     1       6.186   4.697  17.753  0.00  0.00    +0.000 A 
BRANCH  20  23
ATOM     23  N   UNL     1       7.717   5.511  14.478  0.00  0.00    +0.000 N 
ATOM     24  C   UNL     1       7.768   5.243  13.125  0.00  0.00    +0.000 C 
ATOM     25  C   UNL     1       8.824   6.035  12.397  0.00  0.00    +0.000 C 
ATOM     26  O   UNL     1       7.075   4.440  12.510  0.00  0.00    +0.000 OA
ATOM     27  H   UNL     1       8.377   6.190  14.841  0.00  0.00    +0.000 HD
ENDBRANCH  20  23
ENDBRANCH  14  17
ENDBRANCH  12  14
ENDBRANCH   1  12
BRANCH   1  28
ATOM     28  C   UNL     1       2.111   4.723  21.184  0.00  0.00    +0.000 C 
BRANCH  28  29
ATOM     29  C   UNL     1       1.341   3.440  21.021  0.00  0.00    +0.000 C 
ATOM     30  O   UNL     1       0.570   3.186  20.113  0.00  0.00    +0.000 OA
BRANCH  29  31
ATOM     31  O   UNL     1       1.480   2.622  22.095  0.00  0.00    +0.000 OA
ATOM     32  H   UNL     1       1.197   3.022  22.941  0.00  0.00    +0.000 HD
ENDBRANCH  29  31
ENDBRANCH  28  29
ENDBRANCH   1  28
TORSDOF 11
ENDMDL
MODEL 6
REMARK VINA RESULT:      -7.6      3.072      7.779
REMARK  Name = 
REMARK  13 active torsions:
REMARK  status: ('A' for Active; 'I' for Inactive)
REMARK    1  A    between atoms: C_1  and  C_2
REMARK    2  A    between atoms: C_2  and  C_3
REMARK    3  A    between atoms: C_3  and  O_4
REMARK    4  A    between atoms: O_4  and  C_5
REMARK    5  A    between atoms: C_8  and  C_9
REMARK    6  A    between atoms: C_9  and  C_10
REMARK    7  A    between atoms: C_9  and  N_14
REMARK    8  A    between atoms: C_10  and  C_11
REMARK    9  A    between atoms: C_11  and  O_13
REMARK   10  A    between atoms: N_14  and  S_15
REMARK   11  A    between atoms: S_15  and  C_18
REMARK   12  A    between atoms: C_21  and  N_22
REMARK   13  A    between atoms: C_23  and  C_24
REMARK                            x       y       z     vdW  Elec       q    Type
REMARK                         _______ _______ _______ _____ _____    ______ ____
ROOT
ATOM      1  C   UNL     1       2.743   5.562  20.159  0.00  0.00    +0.000 C 
ENDROOT
BRANCH   1   5
ATOM      2  C   UNL     1       1.198   9.457  18.976  0.00  0.00    +0.000 A 
ATOM      3  C   UNL     1       1.062   8.967  20.273  0.00  0.00    +0.000 A 
ATOM      4  C   UNL     1       1.626   7.749  20.637  0.00  0.00    +0.000 A 
ATOM      5  C   UNL     1       2.302   6.951  19.707  0.00  0.00    +0.000 A 
ATOM      6  C   UNL     1       2.449   7.445  18.403  0.00  0.00    +0.000 A 
ATOM      7  C   UNL     1       1.907   8.695  18.044  0.00  0.00    +0.000 A 
BRANCH   2   8
ATOM      8  O   UNL     1       0.667  10.649  18.538  0.00  0.00    +0.000 OA
BRANCH   8   9
ATOM      9  C   UNL     1      -0.748  10.615  18.316  0.00  0.00    +0.000 C 
BRANCH   9  11
ATOM     10  C   UNL     1      -1.325  11.895  20.378  0.00  0.00    +0.000 C 
ATOM     11  C   UNL     1      -1.429  11.864  18.859  0.00  0.00    +0.000 C 
ENDBRANCH   9  11
ENDBRANCH   8   9
ENDBRANCH   2   8
ENDBRANCH   1   5
BRANCH   1  12
ATOM     12  N   UNL     1       3.385   4.810  19.045  0.00  0.00    +0.000 NA
ATOM     13  H   UNL     1       3.184   5.165  18.107  0.00  0.00    +0.000 HD
BRANCH  12  14
ATOM     14  S   UNL     1       5.009   4.353  19.167  0.00  0.00    +0.000 S 
ATOM     15  O   UNL     1       5.671   5.384  19.932  0.00  0.00    +0.000 OA
ATOM     16  O   UNL     1       5.054   2.960  19.552  0.00  0.00    +0.000 OA
BRANCH  14  17
ATOM     17  C   UNL     1       5.573   4.498  17.483  0.00  0.00    +0.000 A 
ATOM     18  C   UNL     1       4.661   4.321  16.446  0.00  0.00    +0.000 A 
ATOM     19  C   UNL     1       5.112   4.310  15.123  0.00  0.00    +0.000 A 
ATOM     20  C   UNL     1       6.472   4.454  14.821  0.00  0.00    +0.000 A 
ATOM     21  C   UNL     1       7.376   4.649  15.873  0.00  0.00    +0.000 A 
ATOM     22  C   UNL     1       6.926   4.712  17.197  0.00  0.00    +0.000 A 
BRANCH  20  23
ATOM     23  N   UNL     1       6.988   4.425  13.503  0.00  0.00    +0.000 N 
ATOM     24  C   UNL     1       6.478   3.720  12.431  0.00  0.00    +0.000 C 
ATOM     25  C   UNL     1       7.237   3.948  11.149  0.00  0.00    +0.000 C 
ATOM     26  O   UNL     1       5.524   2.950  12.447  0.00  0.00    +0.000 OA
ATOM     27  H   UNL     1       7.802   5.006  13.330  0.00  0.00    +0.000 HD
ENDBRANCH  20  23
ENDBRANCH  14  17
ENDBRANCH  12  14
ENDBRANCH   1  12
BRANCH   1  28
ATOM     28  C   UNL     1       1.547   4.790  20.724  0.00  0.00    +0.000 C 
BRANCH  28  29
ATOM     29  C   UNL     1       1.722   3.305  20.897  0.00  0.00    +0.000 C 
ATOM     30  O   UNL     1       1.603   2.470  20.019  0.00  0.00    +0.000 OA
BRANCH  29  31
ATOM     31  O   UNL     1       1.886   2.960  22.199  0.00  0.00    +0.000 OA
ATOM     32  H   UNL     1       2.819   2.911  22.485  0.00  0.00    +0.000 HD
ENDBRANCH  29  31
ENDBRANCH  28  29
ENDBRANCH   1  28
TORSDOF 11
ENDMDL
MODEL 7
REMARK VINA RESULT:      -7.6      3.106      7.230
REMARK  Name = 
REMARK  13 active torsions:
REMARK  status: ('A' for Active; 'I' for Inactive)
REMARK    1  A    between atoms: C_1  and  C_2
REMARK    2  A    between atoms: C_2  and  C_3
REMARK    3  A    between atoms: C_3  and  O_4
REMARK    4  A    between atoms: O_4  and  C_5
REMARK    5  A    between atoms: C_8  and  C_9
REMARK    6  A    between atoms: C_9  and  C_10
REMARK    7  A    between atoms: C_9  and  N_14
REMARK    8  A    between atoms: C_10  and  C_11
REMARK    9  A    between atoms: C_11  and  O_13
REMARK   10  A    between atoms: N_14  and  S_15
REMARK   11  A    between atoms: S_15  and  C_18
REMARK   12  A    between atoms: C_21  and  N_22
REMARK   13  A    between atoms: C_23  and  C_24
REMARK                            x       y       z     vdW  Elec       q    Type
REMARK                         _______ _______ _______ _____ _____    ______ ____
ROOT
ATOM      1  C   UNL     1       2.949   5.284  19.933  0.00  0.00    +0.000 C 
ENDROOT
BRANCH   1   5
ATOM      2  C   UNL     1       1.547   9.217  18.702  0.00  0.00    +0.000 A 
ATOM      3  C   UNL     1       1.324   8.717  19.983  0.00  0.00    +0.000 A 
ATOM      4  C   UNL     1       1.843   7.486  20.367  0.00  0.00    +0.000 A 
ATOM      5  C   UNL     1       2.560   6.685  19.471  0.00  0.00    +0.000 A 
ATOM      6  C   UNL     1       2.796   7.189  18.183  0.00  0.00    +0.000 A 
ATOM      7  C   UNL     1       2.298   8.453  17.807  0.00  0.00    +0.000 A 
BRANCH   2   8
ATOM      8  O   UNL     1       1.064  10.423  18.246  0.00  0.00    +0.000 OA
BRANCH   8   9
ATOM      9  C   UNL     1       2.003  11.502  18.332  0.00  0.00    +0.000 C 
BRANCH   9  11
ATOM     10  C   UNL     1      -0.197  12.640  18.629  0.00  0.00    +0.000 C 
ATOM     11  C   UNL     1       1.315  12.815  18.679  0.00  0.00    +0.000 C 
ENDBRANCH   9  11
ENDBRANCH   8   9
ENDBRANCH   2   8
ENDBRANCH   1   5
BRANCH   1  12
ATOM     12  N   UNL     1       2.889   4.308  18.809  0.00  0.00    +0.000 NA
ATOM     13  H   UNL     1       2.718   4.716  17.887  0.00  0.00    +0.000 HD
BRANCH  12  14
ATOM     14  S   UNL     1       4.044   3.077  18.704  0.00  0.00    +0.000 S 
ATOM     15  O   UNL     1       4.777   3.091  19.949  0.00  0.00    +0.000 OA
ATOM     16  O   UNL     1       3.387   1.887  18.212  0.00  0.00    +0.000 OA
BRANCH  14  17
ATOM     17  C   UNL     1       5.139   3.689  17.438  0.00  0.00    +0.000 A 
ATOM     18  C   UNL     1       6.322   4.320  17.814  0.00  0.00    +0.000 A 
ATOM     19  C   UNL     1       7.129   4.913  16.838  0.00  0.00    +0.000 A 
ATOM     20  C   UNL     1       6.758   4.901  15.487  0.00  0.00    +0.000 A 
ATOM     21  C   UNL     1       5.574   4.248  15.122  0.00  0.00    +0.000 A 
ATOM     22  C   UNL     1       4.787   3.608  16.087  0.00  0.00    +0.000 A 
BRANCH  20  23
ATOM     23  N   UNL     1       7.522   5.507  14.460  0.00  0.00    +0.000 N 
ATOM     24  C   UNL     1       7.569   5.130  13.133  0.00  0.00    +0.000 C 
ATOM     25  C   UNL     1       8.445   6.020  12.289  0.00  0.00    +0.000 C 
ATOM     26  O   UNL     1       7.002   4.169  12.623  0.00  0.00    +0.000 OA
ATOM     27  H   UNL     1       8.068   6.318  14.731  0.00  0.00    +0.000 HD
ENDBRANCH  20  23
ENDBRANCH  14  17
ENDBRANCH  12  14
ENDBRANCH   1  12
BRANCH   1  28
ATOM     28  C   UNL     1       2.046   4.844  21.089  0.00  0.00    +0.000 C 
BRANCH  28  29
ATOM     29  C   UNL     1       1.348   3.519  20.935  0.00  0.00    +0.000 C 
ATOM     30  O   UNL     1       1.750   2.452  21.366  0.00  0.00    +0.000 OA
BRANCH  29  31
ATOM     31  O   UNL     1       0.269   3.603  20.118  0.00  0.00    +0.000 OA
ATOM     32  H   UNL     1       0.296   2.992  19.356  0.00  0.00    +0.000 HD
ENDBRANCH  29  31
ENDBRANCH  28  29
ENDBRANCH   1  28
TORSDOF 11
ENDMDL
MODEL 8
REMARK VINA RESULT:      -7.5      3.171      7.613
REMARK  Name = 
REMARK  13 active torsions:
REMARK  status: ('A' for Active; 'I' for Inactive)
REMARK    1  A    between atoms: C_1  and  C_2
REMARK    2  A    between atoms: C_2  and  C_3
REMARK    3  A    between atoms: C_3  and  O_4
REMARK    4  A    between atoms: O_4  and  C_5
REMARK    5  A    between atoms: C_8  and  C_9
REMARK    6  A    between atoms: C_9  and  C_10
REMARK    7  A    between atoms: C_9  and  N_14
REMARK    8  A    between atoms: C_10  and  C_11
REMARK    9  A    between atoms: C_11  and  O_13
REMARK   10  A    between atoms: N_14  and  S_15
REMARK   11  A    between atoms: S_15  and  C_18
REMARK   12  A    between atoms: C_21  and  N_22
REMARK   13  A    between atoms: C_23  and  C_24
REMARK                            x       y       z     vdW  Elec       q    Type
REMARK                         _______ _______ _______ _____ _____    ______ ____
ROOT
ATOM      1  C   UNL     1       2.661   5.577  20.052  0.00  0.00    +0.000 C 
ENDROOT
BRANCH   1   5
ATOM      2  C   UNL     1       1.435   9.562  18.798  0.00  0.00    +0.000 A 
ATOM      3  C   UNL     1       2.068   8.673  17.932  0.00  0.00    +0.000 A 
ATOM      4  C   UNL     1       2.387   7.384  18.343  0.00  0.00    +0.000 A 
ATOM      5  C   UNL     1       2.131   6.950  19.649  0.00  0.00    +0.000 A 
ATOM      6  C   UNL     1       1.483   7.838  20.520  0.00  0.00    +0.000 A 
ATOM      7  C   UNL     1       1.130   9.133  20.092  0.00  0.00    +0.000 A 
BRANCH   2   8
ATOM      8  O   UNL     1       1.091  10.854  18.468  0.00  0.00    +0.000 OA
BRANCH   8   9
ATOM      9  C   UNL     1       0.538  11.610  19.552  0.00  0.00    +0.000 C 
BRANCH   9  11
ATOM     10  C   UNL     1      -0.543  13.747  18.854  0.00  0.00    +0.000 C 
ATOM     11  C   UNL     1      -0.775  12.273  19.159  0.00  0.00    +0.000 C 
ENDBRANCH   9  11
ENDBRANCH   8   9
ENDBRANCH   2   8
ENDBRANCH   1   5
BRANCH   1  12
ATOM     12  N   UNL     1       3.400   4.932  18.930  0.00  0.00    +0.000 NA
ATOM     13  H   UNL     1       3.243   5.349  18.010  0.00  0.00    +0.000 HD
BRANCH  12  14
ATOM     14  S   UNL     1       5.030   4.525  19.123  0.00  0.00    +0.000 S 
ATOM     15  O   UNL     1       5.612   5.541  19.970  0.00  0.00    +0.000 OA
ATOM     16  O   UNL     1       5.104   3.118  19.447  0.00  0.00    +0.000 OA
BRANCH  14  17
ATOM     17  C   UNL     1       5.679   4.768  17.481  0.00  0.00    +0.000 A 
ATOM     18  C   UNL     1       4.846   5.285  16.494  0.00  0.00    +0.000 A 
ATOM     19  C   UNL     1       5.304   5.365  15.175  0.00  0.00    +0.000 A 
ATOM     20  C   UNL     1       6.584   4.915  14.825  0.00  0.00    +0.000 A 
ATOM     21  C   UNL     1       7.417   4.413  15.832  0.00  0.00    +0.000 A 
ATOM     22  C   UNL     1       6.985   4.376  17.163  0.00  0.00    +0.000 A 
BRANCH  20  23
ATOM     23  N   UNL     1       7.090   4.948  13.503  0.00  0.00    +0.000 N 
ATOM     24  C   UNL     1       6.736   4.113  12.461  0.00  0.00    +0.000 C 
ATOM     25  C   UNL     1       7.427   4.449  11.164  0.00  0.00    +0.000 C 
ATOM     26  O   UNL     1       5.965   3.161  12.514  0.00  0.00    +0.000 OA
ATOM     27  H   UNL     1       7.763   5.679  13.302  0.00  0.00    +0.000 HD
ENDBRANCH  20  23
ENDBRANCH  14  17
ENDBRANCH  12  14
ENDBRANCH   1  12
BRANCH   1  28
ATOM     28  C   UNL     1       1.510   4.690  20.532  0.00  0.00    +0.000 C 
BRANCH  28  29
ATOM     29  C   UNL     1       1.884   3.357  21.121  0.00  0.00    +0.000 C 
ATOM     30  O   UNL     1       2.141   3.147  22.294  0.00  0.00    +0.000 OA
BRANCH  29  31
ATOM     31  O   UNL     1       2.057   2.408  20.167  0.00  0.00    +0.000 OA
ATOM     32  H   UNL     1       2.450   2.742  19.338  0.00  0.00    +0.000 HD
ENDBRANCH  29  31
ENDBRANCH  28  29
ENDBRANCH   1  28
TORSDOF 11
ENDMDL
MODEL 9
REMARK VINA RESULT:      -7.5      2.317      3.456
REMARK  Name = 
REMARK  13 active torsions:
REMARK  status: ('A' for Active; 'I' for Inactive)
REMARK    1  A    between atoms: C_1  and  C_2
REMARK    2  A    between atoms: C_2  and  C_3
REMARK    3  A    between atoms: C_3  and  O_4
REMARK    4  A    between atoms: O_4  and  C_5
REMARK    5  A    between atoms: C_8  and  C_9
REMARK    6  A    between atoms: C_9  and  C_10
REMARK    7  A    between atoms: C_9  and  N_14
REMARK    8  A    between atoms: C_10  and  C_11
REMARK    9  A    between atoms: C_11  and  O_13
REMARK   10  A    between atoms: N_14  and  S_15
REMARK   11  A    between atoms: S_15  and  C_18
REMARK   12  A    between atoms: C_21  and  N_22
REMARK   13  A    between atoms: C_23  and  C_24
REMARK                            x       y       z     vdW  Elec       q    Type
REMARK                         _______ _______ _______ _____ _____    ______ ____
ROOT
ATOM      1  C   UNL     1       3.654   4.075  17.641  0.00  0.00    +0.000 C 
ENDROOT
BRANCH   1   5
ATOM      2  C   UNL     1       6.928   6.913  17.208  0.00  0.00    +0.000 A 
ATOM      3  C   UNL     1       7.001   5.821  18.070  0.00  0.00    +0.000 A 
ATOM      4  C   UNL     1       5.966   4.895  18.136  0.00  0.00    +0.000 A 
ATOM      5  C   UNL     1       4.798   5.052  17.381  0.00  0.00    +0.000 A 
ATOM      6  C   UNL     1       4.725   6.144  16.504  0.00  0.00    +0.000 A 
ATOM      7  C   UNL     1       5.790   7.063  16.413  0.00  0.00    +0.000 A 
BRANCH   2   8
ATOM      8  O   UNL     1       7.907   7.873  17.089  0.00  0.00    +0.000 OA
BRANCH   8   9
ATOM      9  C   UNL     1       8.376   8.393  18.339  0.00  0.00    +0.000 C 
BRANCH   9  11
ATOM     10  C   UNL     1       9.574  10.368  19.281  0.00  0.00    +0.000 C 
ATOM     11  C   UNL     1       8.503   9.910  18.301  0.00  0.00    +0.000 C 
ENDBRANCH   9  11
ENDBRANCH   8   9
ENDBRANCH   2   8
ENDBRANCH   1   5
BRANCH   1  12
ATOM     12  N   UNL     1       2.442   4.784  18.140  0.00  0.00    +0.000 NA
ATOM     13  H   UNL     1       1.551   4.343  17.900  0.00  0.00    +0.000 HD
BRANCH  12  14
ATOM     14  S   UNL     1       2.404   5.366  19.727  0.00  0.00    +0.000 S 
ATOM     15  O   UNL     1       1.256   4.761  20.361  0.00  0.00    +0.000 OA
ATOM     16  O   UNL     1       3.736   5.253  20.278  0.00  0.00    +0.000 OA
BRANCH  14  17
ATOM     17  C   UNL     1       2.030   7.093  19.490  0.00  0.00    +0.000 A 
ATOM     18  C   UNL     1       1.505   7.823  20.552  0.00  0.00    +0.000 A 
ATOM     19  C   UNL     1       1.092   9.144  20.346  0.00  0.00    +0.000 A 
ATOM     20  C   UNL     1       1.182   9.740  19.082  0.00  0.00    +0.000 A 
ATOM     21  C   UNL     1       1.729   8.999  18.027  0.00  0.00    +0.000 A 
ATOM     22  C   UNL     1       2.190   7.694  18.237  0.00  0.00    +0.000 A 
BRANCH  20  23
ATOM     23  N   UNL     1       0.756  11.063  18.809  0.00  0.00    +0.000 N 
ATOM     24  C   UNL     1      -0.536  11.480  18.557  0.00  0.00    +0.000 C 
ATOM     25  C   UNL     1      -0.655  12.969  18.356  0.00  0.00    +0.000 C 
ATOM     26  O   UNL     1      -1.531  10.770  18.468  0.00  0.00    +0.000 OA
ATOM     27  H   UNL     1       1.478  11.775  18.829  0.00  0.00    +0.000 HD
ENDBRANCH  20  23
ENDBRANCH  14  17
ENDBRANCH  12  14
ENDBRANCH   1  12
BRANCH   1  28
ATOM     28  C   UNL     1       4.102   2.995  18.629  0.00  0.00    +0.000 C 
BRANCH  28  29
ATOM     29  C   UNL     1       3.276   1.738  18.676  0.00  0.00    +0.000 C 
ATOM     30  O   UNL     1       2.118   1.664  19.049  0.00  0.00    +0.000 OA
BRANCH  29  31
ATOM     31  O   UNL     1       4.011   0.633  18.394  0.00  0.00    +0.000 OA
ATOM     32  H   UNL     1       4.026  -0.030  19.111  0.00  0.00    +0.000 HD
ENDBRANCH  29  31
ENDBRANCH  28  29
ENDBRANCH   1  28
TORSDOF 11
ENDMDL
