MODEL 1
REMARK VINA RESULT:      -7.0      0.000      0.000
REMARK  Name = 
REMARK  6 active torsions:
REMARK  status: ('A' for Active; 'I' for Inactive)
REMARK    1  A    between atoms: C_1  and  C_2
REMARK    2  A    between atoms: C_5  and  N_6
REMARK    3  A    between atoms: N_9  and  C_10
REMARK    4  A    between atoms: C_10  and  C_11
REMARK    5  A    between atoms: C_11  and  N_12
REMARK    6  A    between atoms: N_12  and  C_13
REMARK                            x       y       z     vdW  Elec       q    Type
REMARK                         _______ _______ _______ _____ _____    ______ ____
ROOT
ATOM      1  C   UNL     1       4.135   4.475  16.941  0.00  0.00    +0.000 C 
ENDROOT
BRANCH   1   7
ATOM      2  C   UNL     1       5.699   4.429  14.297  0.00  0.00    +0.000 C 
ATOM      3  C   UNL     1       6.305   4.473  15.655  0.00  0.00    +0.000 A 
ATOM      4  N   UNL     1       7.603   4.503  15.884  0.00  0.00    +0.000 NA
ATOM      5  C   UNL     1       7.751   4.546  17.244  0.00  0.00    +0.000 A 
ATOM      6  C   UNL     1       6.522   4.532  17.853  0.00  0.00    +0.000 A 
ATOM      7  N   UNL     1       5.589   4.484  16.844  0.00  0.00    +0.000 N 
BRANCH   6   8
ATOM      8  N   UNL     1       6.265   4.550  19.251  0.00  0.00    +0.000 N 
ATOM      9  O   UNL     1       5.516   3.671  19.688  0.00  0.00    +0.000 OA
ATOM     10  O   UNL     1       6.796   5.443  19.924  0.00  0.00    +0.000 OA
ENDBRANCH   6   8
ENDBRANCH   1   7
BRANCH   1  11
ATOM     11  C   UNL     1       3.572   5.774  17.530  0.00  0.00    +0.000 C 
BRANCH  11  12
ATOM     12  N   UNL     1       2.228   5.587  18.082  0.00  0.00    +0.000 N 
ATOM     13  H   UNL     1       1.487   5.635  17.386  0.00  0.00    +0.000 HD
BRANCH  12  14
ATOM     14  C   UNL     1       1.986   4.676  19.109  0.00  0.00    +0.000 A 
ATOM     15  C   UNL     1       2.403   4.883  20.428  0.00  0.00    +0.000 A 
ATOM     16  C   UNL     1       2.106   3.963  21.440  0.00  0.00    +0.000 A 
ATOM     17  C   UNL     1       1.366   2.822  21.151  0.00  0.00    +0.000 A 
ATOM     18  C   UNL     1       0.906   2.615  19.855  0.00  0.00    +0.000 A 
ATOM     19  C   UNL     1       1.201   3.542  18.849  0.00  0.00    +0.000 A 
ENDBRANCH  12  14
ENDBRANCH  11  12
ENDBRANCH   1  11
TORSDOF 5
ENDMDL
MODEL 2
REMARK VINA RESULT:      -6.9      1.222      1.674
REMARK  Name = 
REMARK  6 active torsions:
REMARK  status: ('A' for Active; 'I' for Inactive)
REMARK    1  A    between atoms: C_1  and  C_2
REMARK    2  A    between atoms: C_5  and  N_6
REMARK    3  A    between atoms: N_9  and  C_10
REMARK    4  A    between atoms: C_10  and  C_11
REMARK    5  A    between atoms: C_11  and  N_12
REMARK    6  A    between atoms: N_12  and  C_13
REMARK                            x       y       z     vdW  Elec       q    Type
REMARK                         _______ _______ _______ _____ _____    ______ ____
ROOT
ATOM      1  C   UNL     1       5.407   3.695  17.062  0.00  0.00    +0.000 C 
ENDROOT
BRANCH   1   7
ATOM      2  C   UNL     1       6.625   4.837  14.484  0.00  0.00    +0.000 C 
ATOM      3  C   UNL     1       6.859   5.367  15.855  0.00  0.00    +0.000 A 
ATOM      4  N   UNL     1       7.623   6.407  16.126  0.00  0.00    +0.000 NA
ATOM      5  C   UNL     1       7.572   6.576  17.482  0.00  0.00    +0.000 A 
ATOM      6  C   UNL     1       6.771   5.618  18.048  0.00  0.00    +0.000 A 
ATOM      7  N   UNL     1       6.310   4.837  17.015  0.00  0.00    +0.000 N 
BRANCH   6   8
ATOM      8  N   UNL     1       6.485   5.456  19.431  0.00  0.00    +0.000 N 
ATOM      9  O   UNL     1       5.295   5.496  19.759  0.00  0.00    +0.000 OA
ATOM     10  O   UNL     1       7.438   5.299  20.205  0.00  0.00    +0.000 OA
ENDBRANCH   6   8
ENDBRANCH   1   7
BRANCH   1  11
ATOM     11  C   UNL     1       3.997   4.032  16.561  0.00  0.00    +0.000 C 
BRANCH  11  12
ATOM     12  N   UNL     1       3.252   4.843  17.527  0.00  0.00    +0.000 N 
ATOM     13  H   UNL     1       2.922   5.730  17.151  0.00  0.00    +0.000 HD
BRANCH  12  14
ATOM     14  C   UNL     1       2.385   4.260  18.450  0.00  0.00    +0.000 A 
ATOM     15  C   UNL     1       1.945   2.935  18.352  0.00  0.00    +0.000 A 
ATOM     16  C   UNL     1       1.107   2.372  19.320  0.00  0.00    +0.000 A 
ATOM     17  C   UNL     1       0.706   3.123  20.419  0.00  0.00    +0.000 A 
ATOM     18  C   UNL     1       1.164   4.429  20.559  0.00  0.00    +0.000 A 
ATOM     19  C   UNL     1       2.007   4.985  19.590  0.00  0.00    +0.000 A 
ENDBRANCH  12  14
ENDBRANCH  11  12
ENDBRANCH   1  11
TORSDOF 5
ENDMDL
MODEL 3
REMARK VINA RESULT:      -6.8      1.604      2.318
REMARK  Name = 
REMARK  6 active torsions:
REMARK  status: ('A' for Active; 'I' for Inactive)
REMARK    1  A    between atoms: C_1  and  C_2
REMARK    2  A    between atoms: C_5  and  N_6
REMARK    3  A    between atoms: N_9  and  C_10
REMARK    4  A    between atoms: C_10  and  C_11
REMARK    5  A    between atoms: C_11  and  N_12
REMARK    6  A    between atoms: N_12  and  C_13
REMARK                            x       y       z     vdW  Elec       q    Type
REMARK                         _______ _______ _______ _____ _____    ______ ____
ROOT
ATOM      1  C   UNL     1       4.836   5.597  18.819  0.00  0.00    +0.000 C 
ENDROOT
BRANCH   1   7
ATOM      2  C   UNL     1       4.110   3.190  17.054  0.00  0.00    +0.000 C 
ATOM      3  C   UNL     1       5.288   4.078  16.857  0.00  0.00    +0.000 A 
ATOM      4  N   UNL     1       6.167   3.935  15.884  0.00  0.00    +0.000 NA
ATOM      5  C   UNL     1       7.081   4.941  16.044  0.00  0.00    +0.000 A 
ATOM      6  C   UNL     1       6.758   5.703  17.138  0.00  0.00    +0.000 A 
ATOM      7  N   UNL     1       5.612   5.158  17.666  0.00  0.00    +0.000 N 
BRANCH   6   8
ATOM      8  N   UNL     1       7.474   6.826  17.633  0.00  0.00    +0.000 N 
ATOM      9  O   UNL     1       7.434   7.854  16.950  0.00  0.00    +0.000 OA
ATOM     10  O   UNL     1       8.091   6.695  18.699  0.00  0.00    +0.000 OA
ENDBRANCH   6   8
ENDBRANCH   1   7
BRANCH   1  11
ATOM     11  C   UNL     1       3.593   6.405  18.424  0.00  0.00    +0.000 C 
BRANCH  11  12
ATOM     12  N   UNL     1       2.529   6.297  19.424  0.00  0.00    +0.000 N 
ATOM     13  H   UNL     1       1.801   7.003  19.328  0.00  0.00    +0.000 HD
BRANCH  12  14
ATOM     14  C   UNL     1       2.063   5.057  19.857  0.00  0.00    +0.000 A 
ATOM     15  C   UNL     1       1.381   4.164  19.022  0.00  0.00    +0.000 A 
ATOM     16  C   UNL     1       0.963   2.910  19.481  0.00  0.00    +0.000 A 
ATOM     17  C   UNL     1       1.238   2.518  20.786  0.00  0.00    +0.000 A 
ATOM     18  C   UNL     1       1.950   3.371  21.622  0.00  0.00    +0.000 A 
ATOM     19  C   UNL     1       2.370   4.622  21.154  0.00  0.00    +0.000 A 
ENDBRANCH  12  14
ENDBRANCH  11  12
ENDBRANCH   1  11
TORSDOF 5
ENDMDL
MODEL 4
REMARK VINA RESULT:      -6.8      1.451      2.000
REMARK  Name = 
REMARK  6 active torsions:
REMARK  status: ('A' for Active; 'I' for Inactive)
REMARK    1  A    between atoms: C_1  and  C_2
REMARK    2  A    between atoms: C_5  and  N_6
REMARK    3  A    between atoms: N_9  and  C_10
REMARK    4  A    between atoms: C_10  and  C_11
REMARK    5  A    between atoms: C_11  and  N_12
REMARK    6  A    between atoms: N_12  and  C_13
REMARK                            x       y       z     vdW  Elec       q    Type
REMARK                         _______ _______ _______ _____ _____    ______ ____
ROOT
ATOM      1  C   UNL     1       4.134   4.279  16.873  0.00  0.00    +0.000 C 
ENDROOT
BRANCH   1   7
ATOM      2  C   UNL     1       5.726   4.685  14.277  0.00  0.00    +0.000 C 
ATOM      3  C   UNL     1       6.184   5.076  15.638  0.00  0.00    +0.000 A 
ATOM      4  N   UNL     1       7.341   5.656  15.890  0.00  0.00    +0.000 NA
ATOM      5  C   UNL     1       7.380   5.857  17.243  0.00  0.00    +0.000 A 
ATOM      6  C   UNL     1       6.233   5.383  17.825  0.00  0.00    +0.000 A 
ATOM      7  N   UNL     1       5.460   4.880  16.806  0.00  0.00    +0.000 N 
BRANCH   6   8
ATOM      8  N   UNL     1       5.912   5.398  19.210  0.00  0.00    +0.000 N 
ATOM      9  O   UNL     1       6.845   5.205  19.997  0.00  0.00    +0.000 OA
ATOM     10  O   UNL     1       4.732   5.591  19.528  0.00  0.00    +0.000 OA
ENDBRANCH   6   8
ENDBRANCH   1   7
BRANCH   1  11
ATOM     11  C   UNL     1       4.181   2.758  17.070  0.00  0.00    +0.000 C 
BRANCH  11  12
ATOM     12  N   UNL     1       4.260   2.391  18.486  0.00  0.00    +0.000 N 
ATOM     13  H   UNL     1       5.172   2.562  18.905  0.00  0.00    +0.000 HD
BRANCH  12  14
ATOM     14  C   UNL     1       3.188   2.605  19.351  0.00  0.00    +0.000 A 
ATOM     15  C   UNL     1       1.859   2.676  18.918  0.00  0.00    +0.000 A 
ATOM     16  C   UNL     1       0.806   2.852  19.821  0.00  0.00    +0.000 A 
ATOM     17  C   UNL     1       1.063   2.943  21.185  0.00  0.00    +0.000 A 
ATOM     18  C   UNL     1       2.372   2.834  21.643  0.00  0.00    +0.000 A 
ATOM     19  C   UNL     1       3.421   2.652  20.734  0.00  0.00    +0.000 A 
ENDBRANCH  12  14
ENDBRANCH  11  12
ENDBRANCH   1  11
TORSDOF 5
ENDMDL
MODEL 5
REMARK VINA RESULT:      -6.8      1.383      1.650
REMARK  Name = 
REMARK  6 active torsions:
REMARK  status: ('A' for Active; 'I' for Inactive)
REMARK    1  A    between atoms: C_1  and  C_2
REMARK    2  A    between atoms: C_5  and  N_6
REMARK    3  A    between atoms: N_9  and  C_10
REMARK    4  A    between atoms: C_10  and  C_11
REMARK    5  A    between atoms: C_11  and  N_12
REMARK    6  A    between atoms: N_12  and  C_13
REMARK                            x       y       z     vdW  Elec       q    Type
REMARK                         _______ _______ _______ _____ _____    ______ ____
ROOT
ATOM      1  C   UNL     1       4.137   4.342  16.968  0.00  0.00    +0.000 C 
ENDROOT
BRANCH   1   7
ATOM      2  C   UNL     1       5.837   4.077  14.424  0.00  0.00    +0.000 C 
ATOM      3  C   UNL     1       6.344   4.498  15.758  0.00  0.00    +0.000 A 
ATOM      4  N   UNL     1       7.599   4.816  16.005  0.00  0.00    +0.000 NA
ATOM      5  C   UNL     1       7.655   5.150  17.331  0.00  0.00    +0.000 A 
ATOM      6  C   UNL     1       6.415   5.024  17.902  0.00  0.00    +0.000 A 
ATOM      7  N   UNL     1       5.568   4.606  16.904  0.00  0.00    +0.000 N 
BRANCH   6   8
ATOM      8  N   UNL     1       6.076   5.266  19.262  0.00  0.00    +0.000 N 
ATOM      9  O   UNL     1       7.003   5.241  20.077  0.00  0.00    +0.000 OA
ATOM     10  O   UNL     1       4.887   5.472  19.533  0.00  0.00    +0.000 OA
ENDBRANCH   6   8
ENDBRANCH   1   7
BRANCH   1  11
ATOM     11  C   UNL     1       3.809   2.843  16.976  0.00  0.00    +0.000 C 
BRANCH  11  12
ATOM     12  N   UNL     1       3.996   2.249  18.301  0.00  0.00    +0.000 N 
ATOM     13  H   UNL     1       4.964   2.242  18.616  0.00  0.00    +0.000 HD
BRANCH  12  14
ATOM     14  C   UNL     1       3.068   2.445  19.322  0.00  0.00    +0.000 A 
ATOM     15  C   UNL     1       3.427   2.546  20.671  0.00  0.00    +0.000 A 
ATOM     16  C   UNL     1       2.471   2.784  21.665  0.00  0.00    +0.000 A 
ATOM     17  C   UNL     1       1.133   2.944  21.322  0.00  0.00    +0.000 A 
ATOM     18  C   UNL     1       0.758   2.890  19.984  0.00  0.00    +0.000 A 
ATOM     19  C   UNL     1       1.720   2.657  18.994  0.00  0.00    +0.000 A 
ENDBRANCH  12  14
ENDBRANCH  11  12
ENDBRANCH   1  11
TORSDOF 5
ENDMDL
MODEL 6
REMARK VINA RESULT:      -6.8      2.270      3.261
REMARK  Name = 
REMARK  6 active torsions:
REMARK  status: ('A' for Active; 'I' for Inactive)
REMARK    1  A    between atoms: C_1  and  C_2
REMARK    2  A    between atoms: C_5  and  N_6
REMARK    3  A    between atoms: N_9  and  C_10
REMARK    4  A    between atoms: C_10  and  C_11
REMARK    5  A    between atoms: C_11  and  N_12
REMARK    6  A    between atoms: N_12  and  C_13
REMARK                            x       y       z     vdW  Elec       q    Type
REMARK                         _______ _______ _______ _____ _____    ______ ____
ROOT
ATOM      1  C   UNL     1       4.237   3.845  16.547  0.00  0.00    +0.000 C 
ENDROOT
BRANCH   1   7
ATOM      2  C   UNL     1       2.656   5.961  18.115  0.00  0.00    +0.000 C 
ATOM      3  C   UNL     1       4.024   6.145  17.559  0.00  0.00    +0.000 A 
ATOM      4  N   UNL     1       4.729   7.253  17.682  0.00  0.00    +0.000 NA
ATOM      5  C   UNL     1       5.919   7.020  17.049  0.00  0.00    +0.000 A 
ATOM      6  C   UNL     1       5.936   5.754  16.524  0.00  0.00    +0.000 A 
ATOM      7  N   UNL     1       4.726   5.185  16.844  0.00  0.00    +0.000 N 
BRANCH   6   8
ATOM      8  N   UNL     1       6.990   5.153  15.784  0.00  0.00    +0.000 N 
ATOM      9  O   UNL     1       7.820   4.504  16.429  0.00  0.00    +0.000 OA
ATOM     10  O   UNL     1       7.010   5.327  14.559  0.00  0.00    +0.000 OA
ENDBRANCH   6   8
ENDBRANCH   1   7
BRANCH   1  11
ATOM     11  C   UNL     1       4.842   2.775  17.465  0.00  0.00    +0.000 C 
BRANCH  11  12
ATOM     12  N   UNL     1       3.818   1.894  18.029  0.00  0.00    +0.000 N 
ATOM     13  H   UNL     1       4.134   0.938  18.178  0.00  0.00    +0.000 HD
BRANCH  12  14
ATOM     14  C   UNL     1       2.917   2.349  18.991  0.00  0.00    +0.000 A 
ATOM     15  C   UNL     1       1.542   2.463  18.756  0.00  0.00    +0.000 A 
ATOM     16  C   UNL     1       0.664   2.887  19.759  0.00  0.00    +0.000 A 
ATOM     17  C   UNL     1       1.146   3.188  21.028  0.00  0.00    +0.000 A 
ATOM     18  C   UNL     1       2.503   3.042  21.297  0.00  0.00    +0.000 A 
ATOM     19  C   UNL     1       3.376   2.613  20.290  0.00  0.00    +0.000 A 
ENDBRANCH  12  14
ENDBRANCH  11  12
ENDBRANCH   1  11
TORSDOF 5
ENDMDL
MODEL 7
REMARK VINA RESULT:      -6.7      2.106      3.011
REMARK  Name = 
REMARK  6 active torsions:
REMARK  status: ('A' for Active; 'I' for Inactive)
REMARK    1  A    between atoms: C_1  and  C_2
REMARK    2  A    between atoms: C_5  and  N_6
REMARK    3  A    between atoms: N_9  and  C_10
REMARK    4  A    between atoms: C_10  and  C_11
REMARK    5  A    between atoms: C_11  and  N_12
REMARK    6  A    between atoms: N_12  and  C_13
REMARK                            x       y       z     vdW  Elec       q    Type
REMARK                         _______ _______ _______ _____ _____    ______ ____
ROOT
ATOM      1  C   UNL     1       4.321   4.892  16.725  0.00  0.00    +0.000 C 
ENDROOT
BRANCH   1   7
ATOM      2  C   UNL     1       5.070   4.981  19.703  0.00  0.00    +0.000 C 
ATOM      3  C   UNL     1       6.032   4.829  18.578  0.00  0.00    +0.000 A 
ATOM      4  N   UNL     1       7.336   4.707  18.731  0.00  0.00    +0.000 NA
ATOM      5  C   UNL     1       7.859   4.584  17.473  0.00  0.00    +0.000 A 
ATOM      6  C   UNL     1       6.858   4.641  16.537  0.00  0.00    +0.000 A 
ATOM      7  N   UNL     1       5.683   4.799  17.234  0.00  0.00    +0.000 N 
BRANCH   6   8
ATOM      8  N   UNL     1       7.007   4.564  15.126  0.00  0.00    +0.000 N 
ATOM      9  O   UNL     1       7.730   5.414  14.598  0.00  0.00    +0.000 OA
ATOM     10  O   UNL     1       6.399   3.667  14.528  0.00  0.00    +0.000 OA
ENDBRANCH   6   8
ENDBRANCH   1   7
BRANCH   1  11
ATOM     11  C   UNL     1       3.609   3.534  16.686  0.00  0.00    +0.000 C 
BRANCH  11  12
ATOM     12  N   UNL     1       2.235   3.622  17.187  0.00  0.00    +0.000 N 
ATOM     13  H   UNL     1       1.547   3.184  16.579  0.00  0.00    +0.000 HD
BRANCH  12  14
ATOM     14  C   UNL     1       1.950   3.500  18.547  0.00  0.00    +0.000 A 
ATOM     15  C   UNL     1       2.160   2.319  19.268  0.00  0.00    +0.000 A 
ATOM     16  C   UNL     1       1.899   2.246  20.640  0.00  0.00    +0.000 A 
ATOM     17  C   UNL     1       1.438   3.367  21.323  0.00  0.00    +0.000 A 
ATOM     18  C   UNL     1       1.261   4.563  20.636  0.00  0.00    +0.000 A 
ATOM     19  C   UNL     1       1.529   4.630  19.264  0.00  0.00    +0.000 A 
ENDBRANCH  12  14
ENDBRANCH  11  12
ENDBRANCH   1  11
TORSDOF 5
ENDMDL
MODEL 8
REMARK VINA RESULT:      -6.7      2.349      3.372
REMARK  Name = 
REMARK  6 active torsions:
REMARK  status: ('A' for Active; 'I' for Inactive)
REMARK    1  A    between atoms: C_1  and  C_2
REMARK    2  A    between atoms: C_5  and  N_6
REMARK    3  A    between atoms: N_9  and  C_10
REMARK    4  A    between atoms: C_10  and  C_11
REMARK    5  A    between atoms: C_11  and  N_12
REMARK    6  A    between atoms: N_12  and  C_13
REMARK                            x       y       z     vdW  Elec       q    Type
REMARK                         _______ _______ _______ _____ _____    ______ ____
ROOT
ATOM      1  C   UNL     1       5.153   3.997  18.004  0.00  0.00    +0.000 C 
ENDROOT
BRANCH   1   7
ATOM      2  C   UNL     1       3.224   5.975  19.345  0.00  0.00    +0.000 C 
ATOM      3  C   UNL     1       3.973   6.224  18.084  0.00  0.00    +0.000 A 
ATOM      4  N   UNL     1       3.899   7.342  17.388  0.00  0.00    +0.000 NA
ATOM      5  C   UNL     1       4.732   7.180  16.315  0.00  0.00    +0.000 A 
ATOM      6  C   UNL     1       5.316   5.940  16.352  0.00  0.00    +0.000 A 
ATOM      7  N   UNL     1       4.836   5.319  17.481  0.00  0.00    +0.000 N 
BRANCH   6   8
ATOM      8  N   UNL     1       6.228   5.400  15.405  0.00  0.00    +0.000 N 
ATOM      9  O   UNL     1       5.746   4.702  14.508  0.00  0.00    +0.000 OA
ATOM     10  O   UNL     1       7.430   5.655  15.549  0.00  0.00    +0.000 OA
ENDBRANCH   6   8
ENDBRANCH   1   7
BRANCH   1  11
ATOM     11  C   UNL     1       4.394   2.876  17.283  0.00  0.00    +0.000 C 
BRANCH  11  12
ATOM     12  N   UNL     1       3.858   1.887  18.220  0.00  0.00    +0.000 N 
ATOM     13  H   UNL     1       4.528   1.170  18.489  0.00  0.00    +0.000 HD
BRANCH  12  14
ATOM     14  C   UNL     1       2.979   2.253  19.238  0.00  0.00    +0.000 A 
ATOM     15  C   UNL     1       3.372   2.387  20.575  0.00  0.00    +0.000 A 
ATOM     16  C   UNL     1       2.471   2.795  21.563  0.00  0.00    +0.000 A 
ATOM     17  C   UNL     1       1.155   3.097  21.227  0.00  0.00    +0.000 A 
ATOM     18  C   UNL     1       0.752   3.011  19.899  0.00  0.00    +0.000 A 
ATOM     19  C   UNL     1       1.661   2.607  18.914  0.00  0.00    +0.000 A 
ENDBRANCH  12  14
ENDBRANCH  11  12
ENDBRANCH   1  11
TORSDOF 5
ENDMDL
MODEL 9
REMARK VINA RESULT:      -6.7      2.345      5.497
REMARK  Name = 
REMARK  6 active torsions:
REMARK  status: ('A' for Active; 'I' for Inactive)
REMARK    1  A    between atoms: C_1  and  C_2
REMARK    2  A    between atoms: C_5  and  N_6
REMARK    3  A    between atoms: N_9  and  C_10
REMARK    4  A    between atoms: C_10  and  C_11
REMARK    5  A    between atoms: C_11  and  N_12
REMARK    6  A    between atoms: N_12  and  C_13
REMARK                            x       y       z     vdW  Elec       q    Type
REMARK                         _______ _______ _______ _____ _____    ______ ____
ROOT
ATOM      1  C   UNL     1       2.812   4.141  17.402  0.00  0.00    +0.000 C 
ENDROOT
BRANCH   1   7
ATOM      2  C   UNL     1       3.375   7.125  17.861  0.00  0.00    +0.000 C 
ATOM      3  C   UNL     1       2.705   6.217  18.830  0.00  0.00    +0.000 A 
ATOM      4  N   UNL     1       2.264   6.594  20.014  0.00  0.00    +0.000 NA
ATOM      5  C   UNL     1       1.712   5.482  20.589  0.00  0.00    +0.000 A 
ATOM      6  C   UNL     1       1.828   4.407  19.745  0.00  0.00    +0.000 A 
ATOM      7  N   UNL     1       2.464   4.867  18.616  0.00  0.00    +0.000 N 
BRANCH   6   8
ATOM      8  N   UNL     1       1.388   3.078  19.994  0.00  0.00    +0.000 N 
ATOM      9  O   UNL     1       0.507   2.638  19.250  0.00  0.00    +0.000 OA
ATOM     10  O   UNL     1       1.906   2.465  20.937  0.00  0.00    +0.000 OA
ENDBRANCH   6   8
ENDBRANCH   1   7
BRANCH   1  11
ATOM     11  C   UNL     1       3.991   3.180  17.603  0.00  0.00    +0.000 C 
BRANCH  11  12
ATOM     12  N   UNL     1       5.170   3.592  16.837  0.00  0.00    +0.000 N 
ATOM     13  H   UNL     1       5.025   3.596  15.830  0.00  0.00    +0.000 HD
BRANCH  12  14
ATOM     14  C   UNL     1       6.015   4.601  17.294  0.00  0.00    +0.000 A 
ATOM     15  C   UNL     1       6.485   5.633  16.473  0.00  0.00    +0.000 A 
ATOM     16  C   UNL     1       7.301   6.652  16.976  0.00  0.00    +0.000 A 
ATOM     17  C   UNL     1       7.648   6.667  18.323  0.00  0.00    +0.000 A 
ATOM     18  C   UNL     1       7.159   5.676  19.167  0.00  0.00    +0.000 A 
ATOM     19  C   UNL     1       6.339   4.662  18.658  0.00  0.00    +0.000 A 
ENDBRANCH  12  14
ENDBRANCH  11  12
ENDBRANCH   1  11
TORSDOF 5
ENDMDL
