MODEL 1
REMARK VINA RESULT:      -8.3      0.000      0.000
REMARK  Name = 
REMARK  6 active torsions:
REMARK  status: ('A' for Active; 'I' for Inactive)
REMARK    1  A    between atoms: C_1  and  C_2
REMARK    2  A    between atoms: C_2  and  C_3
REMARK    3  A    between atoms: C_2  and  C_21
REMARK    4  A    between atoms: C_3  and  N_4
REMARK    5  A    between atoms: C_6  and  N_7
REMARK    6  A    between atoms: C_8  and  C_9
REMARK                            x       y       z     vdW  Elec       q    Type
REMARK                         _______ _______ _______ _____ _____    ______ ____
ROOT
ATOM      1  N   UNL     1       1.217   9.102  19.363  0.00  0.00    +0.000 N 
ATOM      2  C   UNL     1       1.684   8.221  20.417  0.00  0.00    +0.000 C 
ATOM      3  C   UNL     1       1.917   6.827  19.864  0.00  0.00    +0.000 C 
ATOM      4  C   UNL     1       2.917   6.873  18.670  0.00  0.00    +0.000 C 
ATOM      5  C   UNL     1       2.708   8.052  17.705  0.00  0.00    +0.000 C 
ATOM      6  C   UNL     1       1.980   9.281  18.228  0.00  0.00    +0.000 C 
ATOM      7  O   UNL     1       1.967  10.320  17.572  0.00  0.00    +0.000 OA
ENDROOT
BRANCH   4   8
ATOM      8  C   UNL     1       2.811   5.500  17.995  0.00  0.00    +0.000 A 
ATOM      9  C   UNL     1       1.642   4.731  18.161  0.00  0.00    +0.000 A 
ATOM     10  C   UNL     1       1.710   3.347  18.053  0.00  0.00    +0.000 A 
ATOM     11  F   UNL     1       0.636   2.617  18.378  0.00  0.00    +0.000 F 
ATOM     12  C   UNL     1       2.907   2.727  17.718  0.00  0.00    +0.000 A 
ATOM     13  F   UNL     1       2.999   1.391  17.740  0.00  0.00    +0.000 F 
ATOM     14  C   UNL     1       4.035   3.482  17.415  0.00  0.00    +0.000 A 
ATOM     15  C   UNL     1       3.976   4.864  17.544  0.00  0.00    +0.000 A 
ATOM     16  F   UNL     1       5.100   5.574  17.371  0.00  0.00    +0.000 F 
ENDBRANCH   4   8
BRANCH   3  17
ATOM     17  N   UNL     1       2.332   5.900  20.933  0.00  0.00    +0.000 NA
ATOM     18  H   UNL     1       1.884   4.993  20.805  0.00  0.00    +0.000 HD
ATOM     19  H   UNL     1       1.993   6.244  21.836  0.00  0.00    +0.000 HD
ENDBRANCH   3  17
BRANCH   1  20
ATOM     20  C   UNL     1       0.111  10.020  19.653  0.00  0.00    +0.000 C 
BRANCH  20  22
ATOM     21  C   UNL     1       1.409  12.069  20.511  0.00  0.00    +0.000 C 
ATOM     22  C   UNL     1       0.421  10.944  20.861  0.00  0.00    +0.000 C 
BRANCH  22  23
ATOM     23  C   UNL     1      -0.876  11.476  21.454  0.00  0.00    +0.000 A 
ATOM     24  C   UNL     1      -1.765  12.185  20.631  0.00  0.00    +0.000 A 
ATOM     25  C   UNL     1      -2.954  12.709  21.145  0.00  0.00    +0.000 A 
ATOM     26  C   UNL     1      -3.272  12.532  22.487  0.00  0.00    +0.000 A 
ATOM     27  C   UNL     1      -2.395  11.838  23.322  0.00  0.00    +0.000 A 
ATOM     28  C   UNL     1      -1.205  11.317  22.810  0.00  0.00    +0.000 A 
ENDBRANCH  22  23
ENDBRANCH  20  22
ENDBRANCH   1  20
TORSDOF 5
ENDMDL
MODEL 2
REMARK VINA RESULT:      -8.2      5.474      9.518
REMARK  Name = 
REMARK  6 active torsions:
REMARK  status: ('A' for Active; 'I' for Inactive)
REMARK    1  A    between atoms: C_1  and  C_2
REMARK    2  A    between atoms: C_2  and  C_3
REMARK    3  A    between atoms: C_2  and  C_21
REMARK    4  A    between atoms: C_3  and  N_4
REMARK    5  A    between atoms: C_6  and  N_7
REMARK    6  A    between atoms: C_8  and  C_9
REMARK                            x       y       z     vdW  Elec       q    Type
REMARK                         _______ _______ _______ _____ _____    ______ ____
ROOT
ATOM      1  N   UNL     1       6.091   4.851  15.779  0.00  0.00    +0.000 N 
ATOM      2  C   UNL     1       4.713   4.442  15.581  0.00  0.00    +0.000 C 
ATOM      3  C   UNL     1       4.073   4.107  16.915  0.00  0.00    +0.000 C 
ATOM      4  C   UNL     1       4.177   5.318  17.890  0.00  0.00    +0.000 C 
ATOM      5  C   UNL     1       5.527   6.055  17.854  0.00  0.00    +0.000 C 
ATOM      6  C   UNL     1       6.380   5.919  16.602  0.00  0.00    +0.000 C 
ATOM      7  O   UNL     1       7.359   6.643  16.438  0.00  0.00    +0.000 OA
ENDROOT
BRANCH   4   8
ATOM      8  C   UNL     1       3.818   4.762  19.273  0.00  0.00    +0.000 A 
ATOM      9  C   UNL     1       4.425   3.574  19.725  0.00  0.00    +0.000 A 
ATOM     10  C   UNL     1       3.768   2.777  20.654  0.00  0.00    +0.000 A 
ATOM     11  F   UNL     1       4.272   1.572  20.950  0.00  0.00    +0.000 F 
ATOM     12  C   UNL     1       2.550   3.179  21.187  0.00  0.00    +0.000 A 
ATOM     13  F   UNL     1       1.861   2.352  21.984  0.00  0.00    +0.000 F 
ATOM     14  C   UNL     1       2.005   4.414  20.855  0.00  0.00    +0.000 A 
ATOM     15  C   UNL     1       2.648   5.203  19.909  0.00  0.00    +0.000 A 
ATOM     16  F   UNL     1       2.054   6.334  19.503  0.00  0.00    +0.000 F 
ENDBRANCH   4   8
BRANCH   3  17
ATOM     17  N   UNL     1       2.690   3.630  16.730  0.00  0.00    +0.000 NA
ATOM     18  H   UNL     1       2.691   2.648  16.457  0.00  0.00    +0.000 HD
ATOM     19  H   UNL     1       2.257   4.128  15.946  0.00  0.00    +0.000 HD
ENDBRANCH   3  17
BRANCH   1  20
ATOM     20  C   UNL     1       7.115   4.331  14.868  0.00  0.00    +0.000 C 
BRANCH  20  22
ATOM     21  C   UNL     1       8.116   5.606  12.870  0.00  0.00    +0.000 C 
ATOM     22  C   UNL     1       6.907   4.826  13.412  0.00  0.00    +0.000 C 
BRANCH  22  23
ATOM     23  C   UNL     1       6.523   3.657  12.516  0.00  0.00    +0.000 A 
ATOM     24  C   UNL     1       7.537   2.876  11.938  0.00  0.00    +0.000 A 
ATOM     25  C   UNL     1       7.225   1.810  11.091  0.00  0.00    +0.000 A 
ATOM     26  C   UNL     1       5.897   1.507  10.810  0.00  0.00    +0.000 A 
ATOM     27  C   UNL     1       4.877   2.278  11.368  0.00  0.00    +0.000 A 
ATOM     28  C   UNL     1       5.187   3.346  12.212  0.00  0.00    +0.000 A 
ENDBRANCH  22  23
ENDBRANCH  20  22
ENDBRANCH   1  20
TORSDOF 5
ENDMDL
MODEL 3
REMARK VINA RESULT:      -8.0      4.888      7.521
REMARK  Name = 
REMARK  6 active torsions:
REMARK  status: ('A' for Active; 'I' for Inactive)
REMARK    1  A    between atoms: C_1  and  C_2
REMARK    2  A    between atoms: C_2  and  C_3
REMARK    3  A    between atoms: C_2  and  C_21
REMARK    4  A    between atoms: C_3  and  N_4
REMARK    5  A    between atoms: C_6  and  N_7
REMARK    6  A    between atoms: C_8  and  C_9
REMARK                            x       y       z     vdW  Elec       q    Type
REMARK                         _______ _______ _______ _____ _____    ______ ____
ROOT
ATOM      1  N   UNL     1       3.942   6.089  18.662  0.00  0.00    +0.000 N 
ATOM      2  C   UNL     1       5.233   5.584  19.089  0.00  0.00    +0.000 C 
ATOM      3  C   UNL     1       5.945   4.923  17.923  0.00  0.00    +0.000 C 
ATOM      4  C   UNL     1       6.085   5.919  16.733  0.00  0.00    +0.000 C 
ATOM      5  C   UNL     1       4.841   6.787  16.476  0.00  0.00    +0.000 C 
ATOM      6  C   UNL     1       3.867   6.996  17.625  0.00  0.00    +0.000 C 
ATOM      7  O   UNL     1       2.977   7.838  17.538  0.00  0.00    +0.000 OA
ENDROOT
BRANCH   4   8
ATOM      8  C   UNL     1       6.495   5.063  15.529  0.00  0.00    +0.000 A 
ATOM      9  C   UNL     1       7.625   5.426  14.769  0.00  0.00    +0.000 A 
ATOM     10  C   UNL     1       7.706   5.045  13.435  0.00  0.00    +0.000 A 
ATOM     11  F   UNL     1       8.697   5.535  12.679  0.00  0.00    +0.000 F 
ATOM     12  C   UNL     1       6.713   4.256  12.869  0.00  0.00    +0.000 A 
ATOM     13  F   UNL     1       6.730   3.998  11.554  0.00  0.00    +0.000 F 
ATOM     14  C   UNL     1       5.664   3.775  13.643  0.00  0.00    +0.000 A 
ATOM     15  C   UNL     1       5.567   4.172  14.971  0.00  0.00    +0.000 A 
ATOM     16  F   UNL     1       4.488   3.805  15.675  0.00  0.00    +0.000 F 
ENDBRANCH   4   8
BRANCH   3  17
ATOM     17  N   UNL     1       7.234   4.348  18.351  0.00  0.00    +0.000 NA
ATOM     18  H   UNL     1       7.428   4.602  19.319  0.00  0.00    +0.000 HD
ATOM     19  H   UNL     1       7.994   4.766  17.805  0.00  0.00    +0.000 HD
ENDBRANCH   3  17
BRANCH   1  20
ATOM     20  C   UNL     1       2.781   5.874  19.531  0.00  0.00    +0.000 C 
BRANCH  20  22
ATOM     21  C   UNL     1       1.308   4.751  17.747  0.00  0.00    +0.000 C 
ATOM     22  C   UNL     1       1.973   4.613  19.125  0.00  0.00    +0.000 C 
BRANCH  22  23
ATOM     23  C   UNL     1       2.856   3.377  19.221  0.00  0.00    +0.000 A 
ATOM     24  C   UNL     1       2.960   2.522  18.112  0.00  0.00    +0.000 A 
ATOM     25  C   UNL     1       3.741   1.365  18.170  0.00  0.00    +0.000 A 
ATOM     26  C   UNL     1       4.429   1.046  19.335  0.00  0.00    +0.000 A 
ATOM     27  C   UNL     1       4.330   1.878  20.450  0.00  0.00    +0.000 A 
ATOM     28  C   UNL     1       3.547   3.033  20.395  0.00  0.00    +0.000 A 
ENDBRANCH  22  23
ENDBRANCH  20  22
ENDBRANCH   1  20
TORSDOF 5
ENDMDL
MODEL 4
REMARK VINA RESULT:      -7.8      4.693      6.939
REMARK  Name = 
REMARK  6 active torsions:
REMARK  status: ('A' for Active; 'I' for Inactive)
REMARK    1  A    between atoms: C_1  and  C_2
REMARK    2  A    between atoms: C_2  and  C_3
REMARK    3  A    between atoms: C_2  and  C_21
REMARK    4  A    between atoms: C_3  and  N_4
REMARK    5  A    between atoms: C_6  and  N_7
REMARK    6  A    between atoms: C_8  and  C_9
REMARK                            x       y       z     vdW  Elec       q    Type
REMARK                         _______ _______ _______ _____ _____    ______ ____
ROOT
ATOM      1  N   UNL     1       3.806   6.387  18.469  0.00  0.00    +0.000 N 
ATOM      2  C   UNL     1       5.021   5.778  18.977  0.00  0.00    +0.000 C 
ATOM      3  C   UNL     1       5.735   5.034  17.864  0.00  0.00    +0.000 C 
ATOM      4  C   UNL     1       6.030   5.991  16.669  0.00  0.00    +0.000 C 
ATOM      5  C   UNL     1       4.886   6.961  16.329  0.00  0.00    +0.000 C 
ATOM      6  C   UNL     1       3.872   7.277  17.417  0.00  0.00    +0.000 C 
ATOM      7  O   UNL     1       3.067   8.194  17.267  0.00  0.00    +0.000 OA
ENDROOT
BRANCH   4   8
ATOM      8  C   UNL     1       6.429   5.078  15.504  0.00  0.00    +0.000 A 
ATOM      9  C   UNL     1       7.530   5.422  14.696  0.00  0.00    +0.000 A 
ATOM     10  C   UNL     1       7.586   4.970  13.383  0.00  0.00    +0.000 A 
ATOM     11  F   UNL     1       8.546   5.438  12.575  0.00  0.00    +0.000 F 
ATOM     12  C   UNL     1       6.597   4.131  12.886  0.00  0.00    +0.000 A 
ATOM     13  F   UNL     1       6.586   3.802  11.588  0.00  0.00    +0.000 F 
ATOM     14  C   UNL     1       5.578   3.672  13.713  0.00  0.00    +0.000 A 
ATOM     15  C   UNL     1       5.506   4.139  15.019  0.00  0.00    +0.000 A 
ATOM     16  F   UNL     1       4.453   3.789  15.771  0.00  0.00    +0.000 F 
ENDBRANCH   4   8
BRANCH   3  17
ATOM     17  N   UNL     1       6.940   4.355  18.373  0.00  0.00    +0.000 NA
ATOM     18  H   UNL     1       7.607   5.041  18.728  0.00  0.00    +0.000 HD
ATOM     19  H   UNL     1       7.423   3.886  17.600  0.00  0.00    +0.000 HD
ENDBRANCH   3  17
BRANCH   1  20
ATOM     20  C   UNL     1       2.584   6.294  19.273  0.00  0.00    +0.000 C 
BRANCH  20  22
ATOM     21  C   UNL     1       1.933   4.586  17.464  0.00  0.00    +0.000 C 
ATOM     22  C   UNL     1       1.749   5.034  18.922  0.00  0.00    +0.000 C 
BRANCH  22  23
ATOM     23  C   UNL     1       2.050   3.918  19.913  0.00  0.00    +0.000 A 
ATOM     24  C   UNL     1       1.110   3.617  20.911  0.00  0.00    +0.000 A 
ATOM     25  C   UNL     1       1.361   2.616  21.853  0.00  0.00    +0.000 A 
ATOM     26  C   UNL     1       2.553   1.902  21.812  0.00  0.00    +0.000 A 
ATOM     27  C   UNL     1       3.503   2.193  20.833  0.00  0.00    +0.000 A 
ATOM     28  C   UNL     1       3.255   3.196  19.892  0.00  0.00    +0.000 A 
ENDBRANCH  22  23
ENDBRANCH  20  22
ENDBRANCH   1  20
TORSDOF 5
ENDMDL
MODEL 5
REMARK VINA RESULT:      -7.7      4.821      7.392
REMARK  Name = 
REMARK  6 active torsions:
REMARK  status: ('A' for Active; 'I' for Inactive)
REMARK    1  A    between atoms: C_1  and  C_2
REMARK    2  A    between atoms: C_2  and  C_3
REMARK    3  A    between atoms: C_2  and  C_21
REMARK    4  A    between atoms: C_3  and  N_4
REMARK    5  A    between atoms: C_6  and  N_7
REMARK    6  A    between atoms: C_8  and  C_9
REMARK                            x       y       z     vdW  Elec       q    Type
REMARK                         _______ _______ _______ _____ _____    ______ ____
ROOT
ATOM      1  N   UNL     1       4.003   6.236  18.677  0.00  0.00    +0.000 N 
ATOM      2  C   UNL     1       5.300   5.737  19.095  0.00  0.00    +0.000 C 
ATOM      3  C   UNL     1       5.982   5.030  17.938  0.00  0.00    +0.000 C 
ATOM      4  C   UNL     1       6.102   5.981  16.710  0.00  0.00    +0.000 C 
ATOM      5  C   UNL     1       4.859   6.848  16.449  0.00  0.00    +0.000 C 
ATOM      6  C   UNL     1       3.912   7.105  17.610  0.00  0.00    +0.000 C 
ATOM      7  O   UNL     1       3.025   7.950  17.512  0.00  0.00    +0.000 OA
ENDROOT
BRANCH   4   8
ATOM      8  C   UNL     1       6.481   5.078  15.529  0.00  0.00    +0.000 A 
ATOM      9  C   UNL     1       7.573   5.425  14.710  0.00  0.00    +0.000 A 
ATOM     10  C   UNL     1       7.609   4.987  13.392  0.00  0.00    +0.000 A 
ATOM     11  F   UNL     1       8.561   5.458  12.577  0.00  0.00    +0.000 F 
ATOM     12  C   UNL     1       6.609   4.157  12.900  0.00  0.00    +0.000 A 
ATOM     13  F   UNL     1       6.580   3.842  11.599  0.00  0.00    +0.000 F 
ATOM     14  C   UNL     1       5.599   3.695  13.736  0.00  0.00    +0.000 A 
ATOM     15  C   UNL     1       5.547   4.149  15.048  0.00  0.00    +0.000 A 
ATOM     16  F   UNL     1       4.502   3.796  15.810  0.00  0.00    +0.000 F 
ENDBRANCH   4   8
BRANCH   3  17
ATOM     17  N   UNL     1       7.276   4.461  18.359  0.00  0.00    +0.000 NA
ATOM     18  H   UNL     1       7.641   3.843  17.634  0.00  0.00    +0.000 HD
ATOM     19  H   UNL     1       7.138   3.862  19.178  0.00  0.00    +0.000 HD
ENDBRANCH   3  17
BRANCH   1  20
ATOM     20  C   UNL     1       2.861   6.061  19.579  0.00  0.00    +0.000 C 
BRANCH  20  22
ATOM     21  C   UNL     1       1.827   4.610  21.435  0.00  0.00    +0.000 C 
ATOM     22  C   UNL     1       2.985   4.774  20.437  0.00  0.00    +0.000 C 
BRANCH  22  23
ATOM     23  C   UNL     1       3.147   3.560  19.533  0.00  0.00    +0.000 A 
ATOM     24  C   UNL     1       2.305   3.419  18.419  0.00  0.00    +0.000 A 
ATOM     25  C   UNL     1       2.407   2.307  17.580  0.00  0.00    +0.000 A 
ATOM     26  C   UNL     1       3.353   1.321  17.841  0.00  0.00    +0.000 A 
ATOM     27  C   UNL     1       4.192   1.440  18.949  0.00  0.00    +0.000 A 
ATOM     28  C   UNL     1       4.088   2.550  19.790  0.00  0.00    +0.000 A 
ENDBRANCH  22  23
ENDBRANCH  20  22
ENDBRANCH   1  20
TORSDOF 5
ENDMDL
MODEL 6
REMARK VINA RESULT:      -7.6      5.147      8.761
REMARK  Name = 
REMARK  6 active torsions:
REMARK  status: ('A' for Active; 'I' for Inactive)
REMARK    1  A    between atoms: C_1  and  C_2
REMARK    2  A    between atoms: C_2  and  C_3
REMARK    3  A    between atoms: C_2  and  C_21
REMARK    4  A    between atoms: C_3  and  N_4
REMARK    5  A    between atoms: C_6  and  N_7
REMARK    6  A    between atoms: C_8  and  C_9
REMARK                            x       y       z     vdW  Elec       q    Type
REMARK                         _______ _______ _______ _____ _____    ______ ____
ROOT
ATOM      1  N   UNL     1       6.219   5.902  17.398  0.00  0.00    +0.000 N 
ATOM      2  C   UNL     1       5.014   6.707  17.339  0.00  0.00    +0.000 C 
ATOM      3  C   UNL     1       3.870   5.982  18.025  0.00  0.00    +0.000 C 
ATOM      4  C   UNL     1       4.251   5.627  19.493  0.00  0.00    +0.000 C 
ATOM      5  C   UNL     1       5.693   5.124  19.677  0.00  0.00    +0.000 C 
ATOM      6  C   UNL     1       6.719   5.500  18.619  0.00  0.00    +0.000 C 
ATOM      7  O   UNL     1       7.916   5.304  18.818  0.00  0.00    +0.000 OA
ENDROOT
BRANCH   4   8
ATOM      8  C   UNL     1       3.188   4.626  19.960  0.00  0.00    +0.000 A 
ATOM      9  C   UNL     1       3.261   3.284  19.537  0.00  0.00    +0.000 A 
ATOM     10  C   UNL     1       2.102   2.521  19.470  0.00  0.00    +0.000 A 
ATOM     11  F   UNL     1       2.155   1.306  18.909  0.00  0.00    +0.000 F 
ATOM     12  C   UNL     1       0.886   3.054  19.879  0.00  0.00    +0.000 A 
ATOM     13  F   UNL     1      -0.246   2.362  19.693  0.00  0.00    +0.000 F 
ATOM     14  C   UNL     1       0.821   4.329  20.428  0.00  0.00    +0.000 A 
ATOM     15  C   UNL     1       1.974   5.103  20.476  0.00  0.00    +0.000 A 
ATOM     16  F   UNL     1       1.879   6.374  20.892  0.00  0.00    +0.000 F 
ENDBRANCH   4   8
BRANCH   3  17
ATOM     17  N   UNL     1       2.620   6.757  17.922  0.00  0.00    +0.000 NA
ATOM     18  H   UNL     1       2.643   7.550  18.563  0.00  0.00    +0.000 HD
ATOM     19  H   UNL     1       1.833   6.181  18.236  0.00  0.00    +0.000 HD
ENDBRANCH   3  17
BRANCH   1  20
ATOM     20  C   UNL     1       7.051   5.794  16.195  0.00  0.00    +0.000 C 
BRANCH  20  22
ATOM     21  C   UNL     1       5.779   3.563  16.057  0.00  0.00    +0.000 C 
ATOM     22  C   UNL     1       6.984   4.379  15.562  0.00  0.00    +0.000 C 
BRANCH  22  23
ATOM     23  C   UNL     1       7.027   4.486  14.045  0.00  0.00    +0.000 A 
ATOM     24  C   UNL     1       6.257   3.600  13.274  0.00  0.00    +0.000 A 
ATOM     25  C   UNL     1       6.290   3.652  11.878  0.00  0.00    +0.000 A 
ATOM     26  C   UNL     1       7.090   4.588  11.233  0.00  0.00    +0.000 A 
ATOM     27  C   UNL     1       7.868   5.470  11.982  0.00  0.00    +0.000 A 
ATOM     28  C   UNL     1       7.839   5.418  13.377  0.00  0.00    +0.000 A 
ENDBRANCH  22  23
ENDBRANCH  20  22
ENDBRANCH   1  20
TORSDOF 5
ENDMDL
MODEL 7
REMARK VINA RESULT:      -7.5      3.736      8.635
REMARK  Name = 
REMARK  6 active torsions:
REMARK  status: ('A' for Active; 'I' for Inactive)
REMARK    1  A    between atoms: C_1  and  C_2
REMARK    2  A    between atoms: C_2  and  C_3
REMARK    3  A    between atoms: C_2  and  C_21
REMARK    4  A    between atoms: C_3  and  N_4
REMARK    5  A    between atoms: C_6  and  N_7
REMARK    6  A    between atoms: C_8  and  C_9
REMARK                            x       y       z     vdW  Elec       q    Type
REMARK                         _______ _______ _______ _____ _____    ______ ____
ROOT
ATOM      1  N   UNL     1       2.385   6.443  18.649  0.00  0.00    +0.000 N 
ATOM      2  C   UNL     1       2.801   7.681  18.017  0.00  0.00    +0.000 C 
ATOM      3  C   UNL     1       1.753   8.756  18.239  0.00  0.00    +0.000 C 
ATOM      4  C   UNL     1       1.485   8.951  19.762  0.00  0.00    +0.000 C 
ATOM      5  C   UNL     1       1.425   7.646  20.574  0.00  0.00    +0.000 C 
ATOM      6  C   UNL     1       2.116   6.418  20.001  0.00  0.00    +0.000 C 
ATOM      7  O   UNL     1       2.275   5.417  20.695  0.00  0.00    +0.000 OA
ENDROOT
BRANCH   4   8
ATOM      8  C   UNL     1       0.202   9.788  19.847  0.00  0.00    +0.000 A 
ATOM      9  C   UNL     1      -0.554  10.023  18.682  0.00  0.00    +0.000 A 
ATOM     10  C   UNL     1      -1.352  11.157  18.600  0.00  0.00    +0.000 A 
ATOM     11  F   UNL     1      -1.933  11.459  17.431  0.00  0.00    +0.000 F 
ATOM     12  C   UNL     1      -1.457  12.022  19.681  0.00  0.00    +0.000 A 
ATOM     13  F   UNL     1      -2.124  13.177  19.554  0.00  0.00    +0.000 F 
ATOM     14  C   UNL     1      -0.826  11.730  20.885  0.00  0.00    +0.000 A 
ATOM     15  C   UNL     1      -0.009  10.609  20.964  0.00  0.00    +0.000 A 
ATOM     16  F   UNL     1       0.692  10.402  22.087  0.00  0.00    +0.000 F 
ENDBRANCH   4   8
BRANCH   3  17
ATOM     17  N   UNL     1       2.127  10.006  17.552  0.00  0.00    +0.000 NA
ATOM     18  H   UNL     1       3.013   9.886  17.062  0.00  0.00    +0.000 HD
ATOM     19  H   UNL     1       2.299  10.740  18.245  0.00  0.00    +0.000 HD
ENDBRANCH   3  17
BRANCH   1  20
ATOM     20  C   UNL     1       2.561   5.186  17.915  0.00  0.00    +0.000 C 
BRANCH  20  22
ATOM     21  C   UNL     1       3.647   2.958  18.600  0.00  0.00    +0.000 C 
ATOM     22  C   UNL     1       3.867   4.452  18.317  0.00  0.00    +0.000 C 
BRANCH  22  23
ATOM     23  C   UNL     1       4.942   4.691  17.266  0.00  0.00    +0.000 A 
ATOM     24  C   UNL     1       4.906   3.954  16.071  0.00  0.00    +0.000 A 
ATOM     25  C   UNL     1       5.888   4.128  15.093  0.00  0.00    +0.000 A 
ATOM     26  C   UNL     1       6.919   5.039  15.293  0.00  0.00    +0.000 A 
ATOM     27  C   UNL     1       6.976   5.773  16.478  0.00  0.00    +0.000 A 
ATOM     28  C   UNL     1       5.997   5.599  17.458  0.00  0.00    +0.000 A 
ENDBRANCH  22  23
ENDBRANCH  20  22
ENDBRANCH   1  20
TORSDOF 5
ENDMDL
MODEL 8
REMARK VINA RESULT:      -7.5      3.829      6.517
REMARK  Name = 
REMARK  6 active torsions:
REMARK  status: ('A' for Active; 'I' for Inactive)
REMARK    1  A    between atoms: C_1  and  C_2
REMARK    2  A    between atoms: C_2  and  C_3
REMARK    3  A    between atoms: C_2  and  C_21
REMARK    4  A    between atoms: C_3  and  N_4
REMARK    5  A    between atoms: C_6  and  N_7
REMARK    6  A    between atoms: C_8  and  C_9
REMARK                            x       y       z     vdW  Elec       q    Type
REMARK                         _______ _______ _______ _____ _____    ______ ____
ROOT
ATOM      1  N   UNL     1       3.469   6.637  18.214  0.00  0.00    +0.000 N 
ATOM      2  C   UNL     1       4.501   5.849  18.861  0.00  0.00    +0.000 C 
ATOM      3  C   UNL     1       5.273   5.052  17.825  0.00  0.00    +0.000 C 
ATOM      4  C   UNL     1       5.870   5.999  16.741  0.00  0.00    +0.000 C 
ATOM      5  C   UNL     1       4.929   7.129  16.290  0.00  0.00    +0.000 C 
ATOM      6  C   UNL     1       3.811   7.544  17.233  0.00  0.00    +0.000 C 
ATOM      7  O   UNL     1       3.166   8.568  17.016  0.00  0.00    +0.000 OA
ENDROOT
BRANCH   4   8
ATOM      8  C   UNL     1       6.319   5.080  15.598  0.00  0.00    +0.000 A 
ATOM      9  C   UNL     1       7.488   5.389  14.875  0.00  0.00    +0.000 A 
ATOM     10  C   UNL     1       7.622   4.944  13.565  0.00  0.00    +0.000 A 
ATOM     11  F   UNL     1       8.654   5.382  12.833  0.00  0.00    +0.000 F 
ATOM     12  C   UNL     1       6.642   4.145  12.991  0.00  0.00    +0.000 A 
ATOM     13  F   UNL     1       6.713   3.826  11.692  0.00  0.00    +0.000 F 
ATOM     14  C   UNL     1       5.550   3.718  13.738  0.00  0.00    +0.000 A 
ATOM     15  C   UNL     1       5.401   4.179  15.040  0.00  0.00    +0.000 A 
ATOM     16  F   UNL     1       4.284   3.862  15.711  0.00  0.00    +0.000 F 
ENDBRANCH   4   8
BRANCH   3  17
ATOM     17  N   UNL     1       6.287   4.196  18.468  0.00  0.00    +0.000 NA
ATOM     18  H   UNL     1       5.993   3.220  18.439  0.00  0.00    +0.000 HD
ATOM     19  H   UNL     1       6.351   4.429  19.463  0.00  0.00    +0.000 HD
ENDBRANCH   3  17
BRANCH   1  20
ATOM     20  C   UNL     1       2.137   6.685  18.823  0.00  0.00    +0.000 C 
BRANCH  20  22
ATOM     21  C   UNL     1       1.230   7.047  21.203  0.00  0.00    +0.000 C 
ATOM     22  C   UNL     1       2.153   6.212  20.301  0.00  0.00    +0.000 C 
BRANCH  22  23
ATOM     23  C   UNL     1       1.842   4.724  20.373  0.00  0.00    +0.000 A 
ATOM     24  C   UNL     1       2.197   4.006  21.527  0.00  0.00    +0.000 A 
ATOM     25  C   UNL     1       1.950   2.634  21.621  0.00  0.00    +0.000 A 
ATOM     26  C   UNL     1       1.345   1.960  20.566  0.00  0.00    +0.000 A 
ATOM     27  C   UNL     1       0.994   2.655  19.409  0.00  0.00    +0.000 A 
ATOM     28  C   UNL     1       1.243   4.026  19.312  0.00  0.00    +0.000 A 
ENDBRANCH  22  23
ENDBRANCH  20  22
ENDBRANCH   1  20
TORSDOF 5
ENDMDL
MODEL 9
REMARK VINA RESULT:      -7.4      4.950      9.352
REMARK  Name = 
REMARK  6 active torsions:
REMARK  status: ('A' for Active; 'I' for Inactive)
REMARK    1  A    between atoms: C_1  and  C_2
REMARK    2  A    between atoms: C_2  and  C_3
REMARK    3  A    between atoms: C_2  and  C_21
REMARK    4  A    between atoms: C_3  and  N_4
REMARK    5  A    between atoms: C_6  and  N_7
REMARK    6  A    between atoms: C_8  and  C_9
REMARK                            x       y       z     vdW  Elec       q    Type
REMARK                         _______ _______ _______ _____ _____    ______ ____
ROOT
ATOM      1  N   UNL     1       6.870   5.123  16.002  0.00  0.00    +0.000 N 
ATOM      2  C   UNL     1       6.127   6.348  15.775  0.00  0.00    +0.000 C 
ATOM      3  C   UNL     1       4.765   6.260  16.440  0.00  0.00    +0.000 C 
ATOM      4  C   UNL     1       4.918   5.956  17.961  0.00  0.00    +0.000 C 
ATOM      5  C   UNL     1       6.002   4.919  18.299  0.00  0.00    +0.000 C 
ATOM      6  C   UNL     1       7.118   4.698  17.290  0.00  0.00    +0.000 C 
ATOM      7  O   UNL     1       8.110   4.041  17.597  0.00  0.00    +0.000 OA
ENDROOT
BRANCH   4   8
ATOM      8  C   UNL     1       3.517   5.560  18.441  0.00  0.00    +0.000 A 
ATOM      9  C   UNL     1       2.909   6.284  19.485  0.00  0.00    +0.000 A 
ATOM     10  C   UNL     1       1.955   5.666  20.285  0.00  0.00    +0.000 A 
ATOM     11  F   UNL     1       1.508   6.304  21.374  0.00  0.00    +0.000 F 
ATOM     12  C   UNL     1       1.554   4.363  20.019  0.00  0.00    +0.000 A 
ATOM     13  F   UNL     1       0.732   3.729  20.865  0.00  0.00    +0.000 F 
ATOM     14  C   UNL     1       2.044   3.684  18.909  0.00  0.00    +0.000 A 
ATOM     15  C   UNL     1       3.013   4.291  18.121  0.00  0.00    +0.000 A 
ATOM     16  F   UNL     1       3.570   3.584  17.127  0.00  0.00    +0.000 F 
ENDBRANCH   4   8
BRANCH   3  17
ATOM     17  N   UNL     1       3.968   7.471  16.169  0.00  0.00    +0.000 NA
ATOM     18  H   UNL     1       3.286   7.617  16.913  0.00  0.00    +0.000 HD
ATOM     19  H   UNL     1       3.414   7.334  15.319  0.00  0.00    +0.000 HD
ENDBRANCH   3  17
BRANCH   1  20
ATOM     20  C   UNL     1       7.608   4.532  14.881  0.00  0.00    +0.000 C 
BRANCH  20  22
ATOM     21  C   UNL     1       8.306   5.842  12.781  0.00  0.00    +0.000 C 
ATOM     22  C   UNL     1       7.166   5.119  13.515  0.00  0.00    +0.000 C 
BRANCH  22  23
ATOM     23  C   UNL     1       6.526   4.031  12.664  0.00  0.00    +0.000 A 
ATOM     24  C   UNL     1       5.128   3.991  12.542  0.00  0.00    +0.000 A 
ATOM     25  C   UNL     1       4.503   2.993  11.790  0.00  0.00    +0.000 A 
ATOM     26  C   UNL     1       5.265   2.023  11.148  0.00  0.00    +0.000 A 
ATOM     27  C   UNL     1       6.655   2.042  11.266  0.00  0.00    +0.000 A 
ATOM     28  C   UNL     1       7.281   3.037  12.020  0.00  0.00    +0.000 A 
ENDBRANCH  22  23
ENDBRANCH  20  22
ENDBRANCH   1  20
TORSDOF 5
ENDMDL
