MODEL 1
REMARK VINA RESULT:      -7.0      0.000      0.000
REMARK  Name = 
REMARK  5 active torsions:
REMARK  status: ('A' for Active; 'I' for Inactive)
REMARK    1  A    between atoms: C_2  and  C_4
REMARK    2  A    between atoms: N_8  and  C_9
REMARK    3  A    between atoms: C_9  and  C_10
REMARK    4  A    between atoms: N_13  and  C_14
REMARK    5  A    between atoms: C_21  and  C_22
REMARK                            x       y       z     vdW  Elec       q    Type
REMARK                         _______ _______ _______ _____ _____    ______ ____
ROOT
ATOM      1  C   UNL     1       0.863   9.168  20.122  0.00  0.00    +0.000 C 
ATOM      2  C   UNL     1       1.374  10.602  19.820  0.00  0.00    +0.000 C 
ATOM      3  C   UNL     1       1.000  11.714  20.830  0.00  0.00    +0.000 C 
ATOM      4  N   UNL     1      -0.295  11.388  21.440  0.00  0.00    +0.000 N 
ATOM      5  C   UNL     1      -0.177  10.204  22.268  0.00  0.00    +0.000 C 
ATOM      6  C   UNL     1      -0.137   9.078  21.281  0.00  0.00    +0.000 C 
ENDROOT
BRANCH   4   7
ATOM      7  C   UNL     1      -1.067  12.400  22.001  0.00  0.00    +0.000 A 
ATOM      8  N   UNL     1      -0.642  12.927  23.178  0.00  0.00    +0.000 NA
ATOM      9  C   UNL     1      -1.335  13.894  23.781  0.00  0.00    +0.000 A 
ATOM     10  N   UNL     1      -2.468  14.439  23.354  0.00  0.00    +0.000 NA
ATOM     11  C   UNL     1      -2.878  13.937  22.180  0.00  0.00    +0.000 A 
ATOM     12  S   UNL     1      -4.307  14.558  21.504  0.00  0.00    +0.000 S 
ATOM     13  C   UNL     1      -4.180  13.549  20.151  0.00  0.00    +0.000 A 
ATOM     14  C   UNL     1      -3.072  12.717  20.191  0.00  0.00    +0.000 A 
ATOM     15  C   UNL     1      -2.269  12.936  21.415  0.00  0.00    +0.000 A 
BRANCH  14  16
ATOM     16  C   UNL     1      -2.926  11.781  19.069  0.00  0.00    +0.000 A 
ATOM     17  C   UNL     1      -1.684  11.502  18.497  0.00  0.00    +0.000 A 
ATOM     18  C   UNL     1      -1.558  10.464  17.551  0.00  0.00    +0.000 A 
ATOM     19  C   UNL     1      -2.678   9.746  17.135  0.00  0.00    +0.000 A 
ATOM     20  C   UNL     1      -3.939  10.118  17.589  0.00  0.00    +0.000 A 
ATOM     21  C   UNL     1      -4.062  11.133  18.547  0.00  0.00    +0.000 A 
ENDBRANCH  14  16
ENDBRANCH   4   7
BRANCH   1  22
ATOM     22  C   UNL     1       1.874   8.001  20.225  0.00  0.00    +0.000 C 
BRANCH  22  27
ATOM     23  C   UNL     1       2.302   5.806  19.037  0.00  0.00    +0.000 C 
ATOM     24  C   UNL     1       3.803   5.908  18.905  0.00  0.00    +0.000 C 
ATOM     25  C   UNL     1       3.942   6.904  17.770  0.00  0.00    +0.000 C 
ATOM     26  C   UNL     1       2.708   7.792  17.893  0.00  0.00    +0.000 C 
ATOM     27  N   UNL     1       1.851   7.216  18.954  0.00  0.00    +0.000 NA
BRANCH  23  29
ATOM     28  N   UNL     1       2.630   5.019  21.315  0.00  0.00    +0.000 N 
ATOM     29  C   UNL     1       1.779   5.043  20.240  0.00  0.00    +0.000 C 
ATOM     30  O   UNL     1       0.677   4.490  20.293  0.00  0.00    +0.000 OA
ATOM     31  H   UNL     1       2.323   4.512  22.137  0.00  0.00    +0.000 HD
ATOM     32  H   UNL     1       3.578   5.359  21.242  0.00  0.00    +0.000 HD
ENDBRANCH  23  29
ENDBRANCH  22  27
ENDBRANCH   1  22
TORSDOF 5
ENDMDL
MODEL 2
REMARK VINA RESULT:      -6.6      4.525      7.632
REMARK  Name = 
REMARK  5 active torsions:
REMARK  status: ('A' for Active; 'I' for Inactive)
REMARK    1  A    between atoms: C_2  and  C_4
REMARK    2  A    between atoms: N_8  and  C_9
REMARK    3  A    between atoms: C_9  and  C_10
REMARK    4  A    between atoms: N_13  and  C_14
REMARK    5  A    between atoms: C_21  and  C_22
REMARK                            x       y       z     vdW  Elec       q    Type
REMARK                         _______ _______ _______ _____ _____    ______ ____
ROOT
ATOM      1  C   UNL     1      -3.298  12.731  21.931  0.00  0.00    +0.000 C 
ATOM      2  C   UNL     1      -2.112  11.961  22.571  0.00  0.00    +0.000 C 
ATOM      3  C   UNL     1      -0.812  12.759  22.837  0.00  0.00    +0.000 C 
ATOM      4  N   UNL     1      -0.688  13.819  21.829  0.00  0.00    +0.000 N 
ATOM      5  C   UNL     1      -1.733  14.807  22.006  0.00  0.00    +0.000 C 
ATOM      6  C   UNL     1      -2.954  14.144  21.444  0.00  0.00    +0.000 C 
ENDROOT
BRANCH   4   7
ATOM      7  C   UNL     1       0.563  14.358  21.546  0.00  0.00    +0.000 A 
ATOM      8  N   UNL     1       1.059  15.270  22.422  0.00  0.00    +0.000 NA
ATOM      9  C   UNL     1       2.248  15.838  22.212  0.00  0.00    +0.000 A 
ATOM     10  N   UNL     1       3.059  15.618  21.185  0.00  0.00    +0.000 NA
ATOM     11  C   UNL     1       2.582  14.701  20.330  0.00  0.00    +0.000 A 
ATOM     12  S   UNL     1       3.528  14.306  18.976  0.00  0.00    +0.000 S 
ATOM     13  C   UNL     1       2.390  13.177  18.432  0.00  0.00    +0.000 A 
ATOM     14  C   UNL     1       1.273  13.089  19.248  0.00  0.00    +0.000 A 
ATOM     15  C   UNL     1       1.369  14.007  20.405  0.00  0.00    +0.000 A 
BRANCH  14  16
ATOM     16  C   UNL     1       0.222  12.163  18.808  0.00  0.00    +0.000 A 
ATOM     17  C   UNL     1       0.436  10.786  18.735  0.00  0.00    +0.000 A 
ATOM     18  C   UNL     1      -0.645   9.914  18.489  0.00  0.00    +0.000 A 
ATOM     19  C   UNL     1      -1.924  10.421  18.259  0.00  0.00    +0.000 A 
ATOM     20  C   UNL     1      -2.113  11.795  18.183  0.00  0.00    +0.000 A 
ATOM     21  C   UNL     1      -1.045  12.661  18.450  0.00  0.00    +0.000 A 
ENDBRANCH  14  16
ENDBRANCH   4   7
BRANCH   1  22
ATOM     22  C   UNL     1      -4.670  12.757  22.648  0.00  0.00    +0.000 C 
BRANCH  22  27
ATOM     23  C   UNL     1      -7.040  13.558  22.262  0.00  0.00    +0.000 C 
ATOM     24  C   UNL     1      -7.747  12.225  22.346  0.00  0.00    +0.000 C 
ATOM     25  C   UNL     1      -7.406  11.614  21.001  0.00  0.00    +0.000 C 
ATOM     26  C   UNL     1      -6.043  12.205  20.651  0.00  0.00    +0.000 C 
ATOM     27  N   UNL     1      -5.719  13.213  21.687  0.00  0.00    +0.000 NA
BRANCH  23  29
ATOM     28  N   UNL     1      -7.536  13.761  24.635  0.00  0.00    +0.000 N 
ATOM     29  C   UNL     1      -6.982  14.373  23.540  0.00  0.00    +0.000 C 
ATOM     30  O   UNL     1      -6.472  15.494  23.633  0.00  0.00    +0.000 OA
ATOM     31  H   UNL     1      -7.525  14.276  25.507  0.00  0.00    +0.000 HD
ATOM     32  H   UNL     1      -8.064  12.904  24.547  0.00  0.00    +0.000 HD
ENDBRANCH  23  29
ENDBRANCH  22  27
ENDBRANCH   1  22
TORSDOF 5
ENDMDL
MODEL 3
REMARK VINA RESULT:      -6.5      4.172      6.667
REMARK  Name = 
REMARK  5 active torsions:
REMARK  status: ('A' for Active; 'I' for Inactive)
REMARK    1  A    between atoms: C_2  and  C_4
REMARK    2  A    between atoms: N_8  and  C_9
REMARK    3  A    between atoms: C_9  and  C_10
REMARK    4  A    between atoms: N_13  and  C_14
REMARK    5  A    between atoms: C_21  and  C_22
REMARK                            x       y       z     vdW  Elec       q    Type
REMARK                         _______ _______ _______ _____ _____    ______ ____
ROOT
ATOM      1  C   UNL     1       1.310  13.037  20.202  0.00  0.00    +0.000 C 
ATOM      2  C   UNL     1       0.970  11.523  20.145  0.00  0.00    +0.000 C 
ATOM      3  C   UNL     1      -0.075  11.072  19.096  0.00  0.00    +0.000 C 
ATOM      4  N   UNL     1      -1.032  12.163  18.876  0.00  0.00    +0.000 N 
ATOM      5  C   UNL     1      -0.376  13.288  18.238  0.00  0.00    +0.000 C 
ATOM      6  C   UNL     1       0.400  13.928  19.349  0.00  0.00    +0.000 C 
ENDROOT
BRANCH   4   7
ATOM      7  C   UNL     1      -2.297  11.880  18.370  0.00  0.00    +0.000 A 
ATOM      8  N   UNL     1      -2.363  11.376  17.111  0.00  0.00    +0.000 NA
ATOM      9  C   UNL     1      -3.540  11.089  16.554  0.00  0.00    +0.000 A 
ATOM     10  N   UNL     1      -4.737  11.251  17.106  0.00  0.00    +0.000 NA
ATOM     11  C   UNL     1      -4.673  11.728  18.358  0.00  0.00    +0.000 A 
ATOM     12  S   UNL     1      -6.132  11.967  19.194  0.00  0.00    +0.000 S 
ATOM     13  C   UNL     1      -5.323  12.511  20.577  0.00  0.00    +0.000 A 
ATOM     14  C   UNL     1      -3.945  12.539  20.430  0.00  0.00    +0.000 A 
ATOM     15  C   UNL     1      -3.530  12.068  19.089  0.00  0.00    +0.000 A 
BRANCH  14  16
ATOM     16  C   UNL     1      -3.182  13.048  21.577  0.00  0.00    +0.000 A 
ATOM     17  C   UNL     1      -2.246  12.260  22.249  0.00  0.00    +0.000 A 
ATOM     18  C   UNL     1      -1.404  12.837  23.221  0.00  0.00    +0.000 A 
ATOM     19  C   UNL     1      -1.536  14.183  23.562  0.00  0.00    +0.000 A 
ATOM     20  C   UNL     1      -2.564  14.934  23.006  0.00  0.00    +0.000 A 
ATOM     21  C   UNL     1      -3.386  14.368  22.022  0.00  0.00    +0.000 A 
ENDBRANCH  14  16
ENDBRANCH   4   7
BRANCH   1  22
ATOM     22  C   UNL     1       2.779  13.498  20.039  0.00  0.00    +0.000 C 
BRANCH  22  27
ATOM     23  C   UNL     1       3.997  15.634  19.437  0.00  0.00    +0.000 C 
ATOM     24  C   UNL     1       5.068  15.592  20.500  0.00  0.00    +0.000 C 
ATOM     25  C   UNL     1       4.292  16.018  21.731  0.00  0.00    +0.000 C 
ATOM     26  C   UNL     1       2.871  15.528  21.471  0.00  0.00    +0.000 C 
ATOM     27  N   UNL     1       2.834  14.990  20.092  0.00  0.00    +0.000 NA
BRANCH  23  29
ATOM     28  N   UNL     1       3.450  15.292  17.091  0.00  0.00    +0.000 N 
ATOM     29  C   UNL     1       4.365  15.053  18.084  0.00  0.00    +0.000 C 
ATOM     30  O   UNL     1       5.402  14.424  17.851  0.00  0.00    +0.000 OA
ATOM     31  H   UNL     1       3.654  14.913  16.174  0.00  0.00    +0.000 HD
ATOM     32  H   UNL     1       2.547  15.694  17.295  0.00  0.00    +0.000 HD
ENDBRANCH  23  29
ENDBRANCH  22  27
ENDBRANCH   1  22
TORSDOF 5
ENDMDL
MODEL 4
REMARK VINA RESULT:      -6.4      4.192      6.586
REMARK  Name = 
REMARK  5 active torsions:
REMARK  status: ('A' for Active; 'I' for Inactive)
REMARK    1  A    between atoms: C_2  and  C_4
REMARK    2  A    between atoms: N_8  and  C_9
REMARK    3  A    between atoms: C_9  and  C_10
REMARK    4  A    between atoms: N_13  and  C_14
REMARK    5  A    between atoms: C_21  and  C_22
REMARK                            x       y       z     vdW  Elec       q    Type
REMARK                         _______ _______ _______ _____ _____    ______ ____
ROOT
ATOM      1  C   UNL     1       1.249  12.711  19.806  0.00  0.00    +0.000 C 
ATOM      2  C   UNL     1       0.909  11.217  19.562  0.00  0.00    +0.000 C 
ATOM      3  C   UNL     1      -0.263  10.906  18.599  0.00  0.00    +0.000 C 
ATOM      4  N   UNL     1      -1.243  11.996  18.673  0.00  0.00    +0.000 N 
ATOM      5  C   UNL     1      -0.678  13.218  18.136  0.00  0.00    +0.000 C 
ATOM      6  C   UNL     1       0.234  13.701  19.222  0.00  0.00    +0.000 C 
ENDROOT
BRANCH   4   7
ATOM      7  C   UNL     1      -2.562  11.764  18.295  0.00  0.00    +0.000 A 
ATOM      8  N   UNL     1      -2.769  11.190  17.082  0.00  0.00    +0.000 NA
ATOM      9  C   UNL     1      -4.006  10.946  16.647  0.00  0.00    +0.000 A 
ATOM     10  N   UNL     1      -5.137  11.218  17.288  0.00  0.00    +0.000 NA
ATOM     11  C   UNL     1      -4.936  11.764  18.495  0.00  0.00    +0.000 A 
ATOM     12  S   UNL     1      -6.297  12.146  19.435  0.00  0.00    +0.000 S 
ATOM     13  C   UNL     1      -5.338  12.720  20.706  0.00  0.00    +0.000 A 
ATOM     14  C   UNL     1      -3.979  12.651  20.440  0.00  0.00    +0.000 A 
ATOM     15  C   UNL     1      -3.714  12.074  19.103  0.00  0.00    +0.000 A 
BRANCH  14  16
ATOM     16  C   UNL     1      -3.089  13.177  21.482  0.00  0.00    +0.000 A 
ATOM     17  C   UNL     1      -3.214  14.477  21.973  0.00  0.00    +0.000 A 
ATOM     18  C   UNL     1      -2.467  14.885  23.097  0.00  0.00    +0.000 A 
ATOM     19  C   UNL     1      -1.555  14.015  23.693  0.00  0.00    +0.000 A 
ATOM     20  C   UNL     1      -1.316  12.772  23.118  0.00  0.00    +0.000 A 
ATOM     21  C   UNL     1      -2.076  12.358  22.016  0.00  0.00    +0.000 A 
ENDBRANCH  14  16
ENDBRANCH   4   7
BRANCH   1  22
ATOM     22  C   UNL     1       2.683  13.225  19.528  0.00  0.00    +0.000 C 
BRANCH  22  27
ATOM     23  C   UNL     1       3.940  15.422  19.475  0.00  0.00    +0.000 C 
ATOM     24  C   UNL     1       5.080  15.054  20.394  0.00  0.00    +0.000 C 
ATOM     25  C   UNL     1       4.408  15.117  21.752  0.00  0.00    +0.000 C 
ATOM     26  C   UNL     1       2.954  14.749  21.473  0.00  0.00    +0.000 C 
ATOM     27  N   UNL     1       2.801  14.636  20.005  0.00  0.00    +0.000 NA
BRANCH  23  29
ATOM     28  N   UNL     1       5.325  14.548  17.675  0.00  0.00    +0.000 N 
ATOM     29  C   UNL     1       4.190  15.253  17.988  0.00  0.00    +0.000 C 
ATOM     30  O   UNL     1       3.449  15.684  17.100  0.00  0.00    +0.000 OA
ATOM     31  H   UNL     1       5.533  14.420  16.692  0.00  0.00    +0.000 HD
ATOM     32  H   UNL     1       6.000  14.300  18.384  0.00  0.00    +0.000 HD
ENDBRANCH  23  29
ENDBRANCH  22  27
ENDBRANCH   1  22
TORSDOF 5
ENDMDL
MODEL 5
REMARK VINA RESULT:      -6.4      4.215      9.318
REMARK  Name = 
REMARK  5 active torsions:
REMARK  status: ('A' for Active; 'I' for Inactive)
REMARK    1  A    between atoms: C_2  and  C_4
REMARK    2  A    between atoms: N_8  and  C_9
REMARK    3  A    between atoms: C_9  and  C_10
REMARK    4  A    between atoms: N_13  and  C_14
REMARK    5  A    between atoms: C_21  and  C_22
REMARK                            x       y       z     vdW  Elec       q    Type
REMARK                         _______ _______ _______ _____ _____    ______ ____
ROOT
ATOM      1  C   UNL     1       1.417   8.246  19.572  0.00  0.00    +0.000 C 
ATOM      2  C   UNL     1       2.241   7.097  20.214  0.00  0.00    +0.000 C 
ATOM      3  C   UNL     1       3.522   6.645  19.472  0.00  0.00    +0.000 C 
ATOM      4  N   UNL     1       3.336   6.850  18.030  0.00  0.00    +0.000 N 
ATOM      5  C   UNL     1       3.251   8.265  17.729  0.00  0.00    +0.000 C 
ATOM      6  C   UNL     1       1.867   8.643  18.161  0.00  0.00    +0.000 C 
ENDROOT
BRANCH   4   7
ATOM      7  C   UNL     1       4.100   6.120  17.126  0.00  0.00    +0.000 A 
ATOM      8  N   UNL     1       4.792   6.820  16.190  0.00  0.00    +0.000 NA
ATOM      9  C   UNL     1       5.539   6.189  15.283  0.00  0.00    +0.000 A 
ATOM     10  N   UNL     1       5.698   4.876  15.164  0.00  0.00    +0.000 NA
ATOM     11  C   UNL     1       5.034   4.183  16.101  0.00  0.00    +0.000 A 
ATOM     12  S   UNL     1       5.162   2.490  16.080  0.00  0.00    +0.000 S 
ATOM     13  C   UNL     1       4.166   2.335  17.440  0.00  0.00    +0.000 A 
ATOM     14  C   UNL     1       3.706   3.550  17.923  0.00  0.00    +0.000 A 
ATOM     15  C   UNL     1       4.220   4.684  17.123  0.00  0.00    +0.000 A 
BRANCH  14  16
ATOM     16  C   UNL     1       2.797   3.486  19.073  0.00  0.00    +0.000 A 
ATOM     17  C   UNL     1       1.430   3.737  18.950  0.00  0.00    +0.000 A 
ATOM     18  C   UNL     1       0.563   3.486  20.033  0.00  0.00    +0.000 A 
ATOM     19  C   UNL     1       1.068   3.041  21.254  0.00  0.00    +0.000 A 
ATOM     20  C   UNL     1       2.443   2.932  21.430  0.00  0.00    +0.000 A 
ATOM     21  C   UNL     1       3.302   3.158  20.346  0.00  0.00    +0.000 A 
ENDBRANCH  14  16
ENDBRANCH   4   7
BRANCH   1  22
ATOM     22  C   UNL     1       1.116   9.523  20.393  0.00  0.00    +0.000 C 
BRANCH  22  27
ATOM     23  C   UNL     1      -1.015  10.773  20.945  0.00  0.00    +0.000 C 
ATOM     24  C   UNL     1      -0.613  11.323  22.293  0.00  0.00    +0.000 C 
ATOM     25  C   UNL     1      -0.740  10.095  23.174  0.00  0.00    +0.000 C 
ATOM     26  C   UNL     1      -0.437   8.927  22.240  0.00  0.00    +0.000 C 
ATOM     27  N   UNL     1      -0.298   9.478  20.872  0.00  0.00    +0.000 NA
BRANCH  23  29
ATOM     28  N   UNL     1      -1.371  11.245  18.585  0.00  0.00    +0.000 N 
ATOM     29  C   UNL     1      -0.800  11.685  19.752  0.00  0.00    +0.000 C 
ATOM     30  O   UNL     1      -0.182  12.753  19.790  0.00  0.00    +0.000 OA
ATOM     31  H   UNL     1      -1.242  11.821  17.762  0.00  0.00    +0.000 HD
ATOM     32  H   UNL     1      -1.769  10.320  18.512  0.00  0.00    +0.000 HD
ENDBRANCH  23  29
ENDBRANCH  22  27
ENDBRANCH   1  22
TORSDOF 5
ENDMDL
MODEL 6
REMARK VINA RESULT:      -6.4      2.770      4.404
REMARK  Name = 
REMARK  5 active torsions:
REMARK  status: ('A' for Active; 'I' for Inactive)
REMARK    1  A    between atoms: C_2  and  C_4
REMARK    2  A    between atoms: N_8  and  C_9
REMARK    3  A    between atoms: C_9  and  C_10
REMARK    4  A    between atoms: N_13  and  C_14
REMARK    5  A    between atoms: C_21  and  C_22
REMARK                            x       y       z     vdW  Elec       q    Type
REMARK                         _______ _______ _______ _____ _____    ______ ____
ROOT
ATOM      1  C   UNL     1      -1.579  12.595  20.748  0.00  0.00    +0.000 C 
ATOM      2  C   UNL     1      -1.524  14.114  20.437  0.00  0.00    +0.000 C 
ATOM      3  C   UNL     1      -2.057  15.079  21.525  0.00  0.00    +0.000 C 
ATOM      4  N   UNL     1      -3.124  14.407  22.276  0.00  0.00    +0.000 N 
ATOM      5  C   UNL     1      -2.582  13.301  23.041  0.00  0.00    +0.000 C 
ATOM      6  C   UNL     1      -2.360  12.231  22.017  0.00  0.00    +0.000 C 
ENDROOT
BRANCH   4   7
ATOM      7  C   UNL     1      -4.067  15.166  22.963  0.00  0.00    +0.000 A 
ATOM      8  N   UNL     1      -3.600  16.103  23.828  0.00  0.00    +0.000 NA
ATOM      9  C   UNL     1      -4.443  16.861  24.529  0.00  0.00    +0.000 A 
ATOM     10  N   UNL     1      -5.769  16.810  24.493  0.00  0.00    +0.000 NA
ATOM     11  C   UNL     1      -6.234  15.902  23.623  0.00  0.00    +0.000 A 
ATOM     12  S   UNL     1      -7.916  15.742  23.460  0.00  0.00    +0.000 S 
ATOM     13  C   UNL     1      -7.751  14.537  22.283  0.00  0.00    +0.000 A 
ATOM     14  C   UNL     1      -6.430  14.221  22.004  0.00  0.00    +0.000 A 
ATOM     15  C   UNL     1      -5.493  15.038  22.808  0.00  0.00    +0.000 A 
BRANCH  14  16
ATOM     16  C   UNL     1      -6.214  13.148  21.026  0.00  0.00    +0.000 A 
ATOM     17  C   UNL     1      -6.914  11.943  21.084  0.00  0.00    +0.000 A 
ATOM     18  C   UNL     1      -6.817  11.016  20.027  0.00  0.00    +0.000 A 
ATOM     19  C   UNL     1      -5.977  11.266  18.942  0.00  0.00    +0.000 A 
ATOM     20  C   UNL     1      -5.164  12.393  18.950  0.00  0.00    +0.000 A 
ATOM     21  C   UNL     1      -5.278  13.326  19.989  0.00  0.00    +0.000 A 
ENDBRANCH  14  16
ENDBRANCH   4   7
BRANCH   1  22
ATOM     22  C   UNL     1      -0.281  11.753  20.686  0.00  0.00    +0.000 C 
BRANCH  22  27
ATOM     23  C   UNL     1       0.205   9.268  20.707  0.00  0.00    +0.000 C 
ATOM     24  C   UNL     1       1.433   9.269  19.828  0.00  0.00    +0.000 C 
ATOM     25  C   UNL     1       0.821   9.451  18.452  0.00  0.00    +0.000 C 
ATOM     26  C   UNL     1      -0.447  10.260  18.705  0.00  0.00    +0.000 C 
ATOM     27  N   UNL     1      -0.605  10.388  20.172  0.00  0.00    +0.000 NA
BRANCH  23  29
ATOM     28  N   UNL     1      -0.666   9.088  22.972  0.00  0.00    +0.000 N 
ATOM     29  C   UNL     1       0.447   9.320  22.204  0.00  0.00    +0.000 C 
ATOM     30  O   UNL     1       1.544   9.534  22.729  0.00  0.00    +0.000 OA
ATOM     31  H   UNL     1      -0.549   9.122  23.978  0.00  0.00    +0.000 HD
ATOM     32  H   UNL     1      -1.586   9.035  22.560  0.00  0.00    +0.000 HD
ENDBRANCH  23  29
ENDBRANCH  22  27
ENDBRANCH   1  22
TORSDOF 5
ENDMDL
MODEL 7
REMARK VINA RESULT:      -6.4      4.325      5.383
REMARK  Name = 
REMARK  5 active torsions:
REMARK  status: ('A' for Active; 'I' for Inactive)
REMARK    1  A    between atoms: C_2  and  C_4
REMARK    2  A    between atoms: N_8  and  C_9
REMARK    3  A    between atoms: C_9  and  C_10
REMARK    4  A    between atoms: N_13  and  C_14
REMARK    5  A    between atoms: C_21  and  C_22
REMARK                            x       y       z     vdW  Elec       q    Type
REMARK                         _______ _______ _______ _____ _____    ______ ____
ROOT
ATOM      1  C   UNL     1       0.075  12.439  19.890  0.00  0.00    +0.000 C 
ATOM      2  C   UNL     1      -0.793  13.575  19.286  0.00  0.00    +0.000 C 
ATOM      3  C   UNL     1      -2.081  13.964  20.053  0.00  0.00    +0.000 C 
ATOM      4  N   UNL     1      -2.601  12.779  20.745  0.00  0.00    +0.000 N 
ATOM      5  C   UNL     1      -1.691  12.371  21.797  0.00  0.00    +0.000 C 
ATOM      6  C   UNL     1      -0.573  11.695  21.064  0.00  0.00    +0.000 C 
ENDROOT
BRANCH   4   7
ATOM      7  C   UNL     1      -3.945  12.722  21.100  0.00  0.00    +0.000 A 
ATOM      8  N   UNL     1      -4.294  13.259  22.297  0.00  0.00    +0.000 NA
ATOM      9  C   UNL     1      -5.562  13.233  22.711  0.00  0.00    +0.000 A 
ATOM     10  N   UNL     1      -6.595  12.708  22.062  0.00  0.00    +0.000 NA
ATOM     11  C   UNL     1      -6.257  12.197  20.869  0.00  0.00    +0.000 A 
ATOM     12  S   UNL     1      -7.485  11.507  19.921  0.00  0.00    +0.000 S 
ATOM     13  C   UNL     1      -6.401  11.134  18.676  0.00  0.00    +0.000 A 
ATOM     14  C   UNL     1      -5.095  11.506  18.957  0.00  0.00    +0.000 A 
ATOM     15  C   UNL     1      -4.986  12.152  20.284  0.00  0.00    +0.000 A 
BRANCH  14  16
ATOM     16  C   UNL     1      -4.093  11.168  17.939  0.00  0.00    +0.000 A 
ATOM     17  C   UNL     1      -2.904  10.513  18.261  0.00  0.00    +0.000 A 
ATOM     18  C   UNL     1      -2.056  10.043  17.238  0.00  0.00    +0.000 A 
ATOM     19  C   UNL     1      -2.365  10.277  15.899  0.00  0.00    +0.000 A 
ATOM     20  C   UNL     1      -3.469  11.058  15.576  0.00  0.00    +0.000 A 
ATOM     21  C   UNL     1      -4.325  11.506  16.591  0.00  0.00    +0.000 A 
ENDBRANCH  14  16
ENDBRANCH   4   7
BRANCH   1  22
ATOM     22  C   UNL     1       1.566  12.702  20.211  0.00  0.00    +0.000 C 
BRANCH  22  27
ATOM     23  C   UNL     1       2.985  14.714  19.618  0.00  0.00    +0.000 C 
ATOM     24  C   UNL     1       4.100  14.507  20.615  0.00  0.00    +0.000 C 
ATOM     25  C   UNL     1       3.445  14.963  21.904  0.00  0.00    +0.000 C 
ATOM     26  C   UNL     1       1.965  14.645  21.709  0.00  0.00    +0.000 C 
ATOM     27  N   UNL     1       1.793  14.176  20.315  0.00  0.00    +0.000 NA
BRANCH  23  29
ATOM     28  N   UNL     1       4.523  14.131  17.824  0.00  0.00    +0.000 N 
ATOM     29  C   UNL     1       3.211  14.155  18.226  0.00  0.00    +0.000 C 
ATOM     30  O   UNL     1       2.317  13.729  17.488  0.00  0.00    +0.000 OA
ATOM     31  H   UNL     1       4.716  13.773  16.897  0.00  0.00    +0.000 HD
ATOM     32  H   UNL     1       5.244  14.587  18.364  0.00  0.00    +0.000 HD
ENDBRANCH  23  29
ENDBRANCH  22  27
ENDBRANCH   1  22
TORSDOF 5
ENDMDL
MODEL 8
REMARK VINA RESULT:      -6.3      2.709      5.372
REMARK  Name = 
REMARK  5 active torsions:
REMARK  status: ('A' for Active; 'I' for Inactive)
REMARK    1  A    between atoms: C_2  and  C_4
REMARK    2  A    between atoms: N_8  and  C_9
REMARK    3  A    between atoms: C_9  and  C_10
REMARK    4  A    between atoms: N_13  and  C_14
REMARK    5  A    between atoms: C_21  and  C_22
REMARK                            x       y       z     vdW  Elec       q    Type
REMARK                         _______ _______ _______ _____ _____    ______ ____
ROOT
ATOM      1  C   UNL     1      -0.674  12.630  21.211  0.00  0.00    +0.000 C 
ATOM      2  C   UNL     1      -1.177  12.386  22.659  0.00  0.00    +0.000 C 
ATOM      3  C   UNL     1      -2.688  12.100  22.844  0.00  0.00    +0.000 C 
ATOM      4  N   UNL     1      -3.438  12.799  21.793  0.00  0.00    +0.000 N 
ATOM      5  C   UNL     1      -3.141  12.225  20.496  0.00  0.00    +0.000 C 
ATOM      6  C   UNL     1      -1.785  12.769  20.163  0.00  0.00    +0.000 C 
ENDROOT
BRANCH   4   7
ATOM      7  C   UNL     1      -4.782  13.099  21.989  0.00  0.00    +0.000 A 
ATOM      8  N   UNL     1      -5.693  12.284  21.398  0.00  0.00    +0.000 NA
ATOM      9  C   UNL     1      -7.000  12.514  21.532  0.00  0.00    +0.000 A 
ATOM     10  N   UNL     1      -7.563  13.508  22.209  0.00  0.00    +0.000 NA
ATOM     11  C   UNL     1      -6.667  14.301  22.813  0.00  0.00    +0.000 A 
ATOM     12  S   UNL     1      -7.248  15.605  23.731  0.00  0.00    +0.000 S 
ATOM     13  C   UNL     1      -5.682  16.085  24.158  0.00  0.00    +0.000 A 
ATOM     14  C   UNL     1      -4.695  15.285  23.605  0.00  0.00    +0.000 A 
ATOM     15  C   UNL     1      -5.271  14.196  22.784  0.00  0.00    +0.000 A 
BRANCH  14  16
ATOM     16  C   UNL     1      -3.309  15.673  23.896  0.00  0.00    +0.000 A 
ATOM     17  C   UNL     1      -2.771  15.584  25.180  0.00  0.00    +0.000 A 
ATOM     18  C   UNL     1      -1.391  15.788  25.384  0.00  0.00    +0.000 A 
ATOM     19  C   UNL     1      -0.562  16.138  24.319  0.00  0.00    +0.000 A 
ATOM     20  C   UNL     1      -1.117  16.375  23.067  0.00  0.00    +0.000 A 
ATOM     21  C   UNL     1      -2.484  16.149  22.858  0.00  0.00    +0.000 A 
ENDBRANCH  14  16
ENDBRANCH   4   7
BRANCH   1  22
ATOM     22  C   UNL     1       0.463  11.750  20.637  0.00  0.00    +0.000 C 
BRANCH  22  27
ATOM     23  C   UNL     1       0.307   9.239  20.353  0.00  0.00    +0.000 C 
ATOM     24  C   UNL     1       1.586   9.018  19.580  0.00  0.00    +0.000 C 
ATOM     25  C   UNL     1       1.195   9.509  18.199  0.00  0.00    +0.000 C 
ATOM     26  C   UNL     1       0.149  10.588  18.463  0.00  0.00    +0.000 C 
ATOM     27  N   UNL     1      -0.133  10.585  19.916  0.00  0.00    +0.000 NA
BRANCH  23  29
ATOM     28  N   UNL     1       1.662   8.946  22.353  0.00  0.00    +0.000 N 
ATOM     29  C   UNL     1       0.388   9.055  21.857  0.00  0.00    +0.000 C 
ATOM     30  O   UNL     1      -0.590   9.018  22.611  0.00  0.00    +0.000 OA
ATOM     31  H   UNL     1       1.759   8.813  23.352  0.00  0.00    +0.000 HD
ATOM     32  H   UNL     1       2.458   8.850  21.738  0.00  0.00    +0.000 HD
ENDBRANCH  23  29
ENDBRANCH  22  27
ENDBRANCH   1  22
TORSDOF 5
ENDMDL
MODEL 9
REMARK VINA RESULT:      -6.3      4.491      7.642
REMARK  Name = 
REMARK  5 active torsions:
REMARK  status: ('A' for Active; 'I' for Inactive)
REMARK    1  A    between atoms: C_2  and  C_4
REMARK    2  A    between atoms: N_8  and  C_9
REMARK    3  A    between atoms: C_9  and  C_10
REMARK    4  A    between atoms: N_13  and  C_14
REMARK    5  A    between atoms: C_21  and  C_22
REMARK                            x       y       z     vdW  Elec       q    Type
REMARK                         _______ _______ _______ _____ _____    ______ ____
ROOT
ATOM      1  C   UNL     1      -3.644  12.808  21.715  0.00  0.00    +0.000 C 
ATOM      2  C   UNL     1      -2.369  12.238  22.393  0.00  0.00    +0.000 C 
ATOM      3  C   UNL     1      -1.193  13.219  22.624  0.00  0.00    +0.000 C 
ATOM      4  N   UNL     1      -1.207  14.238  21.568  0.00  0.00    +0.000 N 
ATOM      5  C   UNL     1      -2.380  15.080  21.696  0.00  0.00    +0.000 C 
ATOM      6  C   UNL     1      -3.493  14.230  21.163  0.00  0.00    +0.000 C 
ENDROOT
BRANCH   4   7
ATOM      7  C   UNL     1      -0.040  14.930  21.262  0.00  0.00    +0.000 A 
ATOM      8  N   UNL     1       0.264  16.007  22.032  0.00  0.00    +0.000 NA
ATOM      9  C   UNL     1       1.361  16.726  21.794  0.00  0.00    +0.000 A 
ATOM     10  N   UNL     1       2.251  16.516  20.831  0.00  0.00    +0.000 NA
ATOM     11  C   UNL     1       1.966  15.440  20.083  0.00  0.00    +0.000 A 
ATOM     12  S   UNL     1       3.032  15.041  18.823  0.00  0.00    +0.000 S 
ATOM     13  C   UNL     1       2.111  13.690  18.387  0.00  0.00    +0.000 A 
ATOM     14  C   UNL     1       0.978  13.524  19.169  0.00  0.00    +0.000 A 
ATOM     15  C   UNL     1       0.871  14.577  20.204  0.00  0.00    +0.000 A 
BRANCH  14  16
ATOM     16  C   UNL     1       0.106  12.397  18.814  0.00  0.00    +0.000 A 
ATOM     17  C   UNL     1      -1.196  12.588  18.351  0.00  0.00    +0.000 A 
ATOM     18  C   UNL     1      -1.934  11.498  17.847  0.00  0.00    +0.000 A 
ATOM     19  C   UNL     1      -1.395  10.212  17.859  0.00  0.00    +0.000 A 
ATOM     20  C   UNL     1      -0.160   9.992  18.456  0.00  0.00    +0.000 A 
ATOM     21  C   UNL     1       0.585  11.078  18.936  0.00  0.00    +0.000 A 
ENDBRANCH  14  16
ENDBRANCH   4   7
BRANCH   1  22
ATOM     22  C   UNL     1      -5.013  12.678  22.428  0.00  0.00    +0.000 C 
BRANCH  22  27
ATOM     23  C   UNL     1      -7.482  13.046  22.007  0.00  0.00    +0.000 C 
ATOM     24  C   UNL     1      -7.916  11.602  21.927  0.00  0.00    +0.000 C 
ATOM     25  C   UNL     1      -7.424  11.212  20.546  0.00  0.00    +0.000 C 
ATOM     26  C   UNL     1      -6.194  12.086  20.322  0.00  0.00    +0.000 C 
ATOM     27  N   UNL     1      -6.102  13.023  21.465  0.00  0.00    +0.000 NA
BRANCH  23  29
ATOM     28  N   UNL     1      -7.410  15.074  23.348  0.00  0.00    +0.000 N 
ATOM     29  C   UNL     1      -7.621  13.719  23.359  0.00  0.00    +0.000 C 
ATOM     30  O   UNL     1      -7.915  13.133  24.406  0.00  0.00    +0.000 OA
ATOM     31  H   UNL     1      -7.485  15.561  24.234  0.00  0.00    +0.000 HD
ATOM     32  H   UNL     1      -7.049  15.543  22.530  0.00  0.00    +0.000 HD
ENDBRANCH  23  29
ENDBRANCH  22  27
ENDBRANCH   1  22
TORSDOF 5
ENDMDL
