MODEL 1
REMARK VINA RESULT:      -7.2      0.000      0.000
REMARK  Name = 
REMARK  5 active torsions:
REMARK  status: ('A' for Active; 'I' for Inactive)
REMARK    1  A    between atoms: C_1  and  C_2
REMARK    2  A    between atoms: C_8  and  O_9
REMARK    3  A    between atoms: O_9  and  C_10
REMARK    4  A    between atoms: C_13  and  N_14
REMARK    5  A    between atoms: C_15  and  N_16
REMARK                            x       y       z     vdW  Elec       q    Type
REMARK                         _______ _______ _______ _____ _____    ______ ____
ROOT
ATOM      1  C   UNL     1       6.242   4.756  18.772  0.00  0.00    +0.000 C 
ATOM      2  N   UNL     1       7.216   5.321  19.423  0.00  0.00    +0.000 NA
ATOM      3  N   UNL     1       7.822   6.351  18.769  0.00  0.00    +0.000 N 
ATOM      4  C   UNL     1       7.299   6.921  17.633  0.00  0.00    +0.000 C 
ATOM      5  C   UNL     1       6.338   6.231  16.972  0.00  0.00    +0.000 C 
ATOM      6  O   UNL     1       5.841   5.025  17.489  0.00  0.00    +0.000 OA
ATOM      7  H   UNL     1       8.500   6.910  19.278  0.00  0.00    +0.000 HD
ENDROOT
BRANCH   4   8
ATOM      8  N   UNL     1       7.697   8.177  17.217  0.00  0.00    +0.000 N 
ATOM      9  H   UNL     1       8.231   8.115  16.356  0.00  0.00    +0.000 HD
ATOM     10  H   UNL     1       8.271   8.607  17.943  0.00  0.00    +0.000 HD
ENDBRANCH   4   8
BRANCH   5  11
ATOM     11  N   UNL     1       5.764   6.635  15.781  0.00  0.00    +0.000 N 
ATOM     12  H   UNL     1       4.961   6.050  15.558  0.00  0.00    +0.000 HD
ATOM     13  H   UNL     1       5.494   7.615  15.846  0.00  0.00    +0.000 HD
ENDBRANCH   5  11
BRANCH   1  14
ATOM     14  O   UNL     1       5.383   3.813  19.319  0.00  0.00    +0.000 OA
BRANCH  14  22
ATOM     15  C   UNL     1       3.475   1.670  18.266  0.00  0.00    +0.000 C 
ATOM     16  C   UNL     1       3.052   2.932  18.966  0.00  0.00    +0.000 A 
ATOM     17  C   UNL     1       1.686   3.175  19.219  0.00  0.00    +0.000 A 
ATOM     18 CL   UNL     1       0.441   2.087  18.703  0.00  0.00    +0.000 Cl
ATOM     19  C   UNL     1       1.266   4.313  19.920  0.00  0.00    +0.000 A 
ATOM     20  C   UNL     1       2.192   5.253  20.359  0.00  0.00    +0.000 A 
ATOM     21  C   UNL     1       3.541   5.063  20.082  0.00  0.00    +0.000 A 
ATOM     22  C   UNL     1       3.966   3.921  19.384  0.00  0.00    +0.000 A 
ENDBRANCH  14  22
ENDBRANCH   1  14
TORSDOF 4
ENDMDL
MODEL 2
REMARK VINA RESULT:      -7.0      2.382      2.778
REMARK  Name = 
REMARK  5 active torsions:
REMARK  status: ('A' for Active; 'I' for Inactive)
REMARK    1  A    between atoms: C_1  and  C_2
REMARK    2  A    between atoms: C_8  and  O_9
REMARK    3  A    between atoms: O_9  and  C_10
REMARK    4  A    between atoms: C_13  and  N_14
REMARK    5  A    between atoms: C_15  and  N_16
REMARK                            x       y       z     vdW  Elec       q    Type
REMARK                         _______ _______ _______ _____ _____    ______ ____
ROOT
ATOM      1  C   UNL     1       6.378   4.295  16.525  0.00  0.00    +0.000 C 
ATOM      2  N   UNL     1       7.219   5.286  16.475  0.00  0.00    +0.000 NA
ATOM      3  N   UNL     1       7.730   5.544  15.239  0.00  0.00    +0.000 N 
ATOM      4  C   UNL     1       7.221   4.984  14.092  0.00  0.00    +0.000 C 
ATOM      5  C   UNL     1       6.410   3.908  14.228  0.00  0.00    +0.000 C 
ATOM      6  O   UNL     1       6.039   3.448  15.501  0.00  0.00    +0.000 OA
ATOM      7  H   UNL     1       8.289   6.384  15.117  0.00  0.00    +0.000 HD
ENDROOT
BRANCH   4   8
ATOM      8  N   UNL     1       7.479   5.539  12.853  0.00  0.00    +0.000 N 
ATOM      9  H   UNL     1       6.612   5.806  12.395  0.00  0.00    +0.000 HD
ATOM     10  H   UNL     1       7.973   4.858  12.274  0.00  0.00    +0.000 HD
ENDBRANCH   4   8
BRANCH   5  11
ATOM     11  N   UNL     1       5.876   3.192  13.172  0.00  0.00    +0.000 N 
ATOM     12  H   UNL     1       5.153   2.558  13.504  0.00  0.00    +0.000 HD
ATOM     13  H   UNL     1       5.505   3.835  12.475  0.00  0.00    +0.000 HD
ENDBRANCH   5  11
BRANCH   1  14
ATOM     14  O   UNL     1       5.613   3.977  17.638  0.00  0.00    +0.000 OA
BRANCH  14  22
ATOM     15  C   UNL     1       3.683   1.679  18.218  0.00  0.00    +0.000 C 
ATOM     16  C   UNL     1       3.287   3.123  18.076  0.00  0.00    +0.000 A 
ATOM     17  C   UNL     1       1.942   3.506  18.256  0.00  0.00    +0.000 A 
ATOM     18 CL   UNL     1       0.689   2.358  18.590  0.00  0.00    +0.000 Cl
ATOM     19  C   UNL     1       1.552   4.850  18.189  0.00  0.00    +0.000 A 
ATOM     20  C   UNL     1       2.484   5.842  17.908  0.00  0.00    +0.000 A 
ATOM     21  C   UNL     1       3.810   5.487  17.679  0.00  0.00    +0.000 A 
ATOM     22  C   UNL     1       4.205   4.142  17.751  0.00  0.00    +0.000 A 
ENDBRANCH  14  22
ENDBRANCH   1  14
TORSDOF 4
ENDMDL
MODEL 3
REMARK VINA RESULT:      -7.0      1.780      2.974
REMARK  Name = 
REMARK  5 active torsions:
REMARK  status: ('A' for Active; 'I' for Inactive)
REMARK    1  A    between atoms: C_1  and  C_2
REMARK    2  A    between atoms: C_8  and  O_9
REMARK    3  A    between atoms: O_9  and  C_10
REMARK    4  A    between atoms: C_13  and  N_14
REMARK    5  A    between atoms: C_15  and  N_16
REMARK                            x       y       z     vdW  Elec       q    Type
REMARK                         _______ _______ _______ _____ _____    ______ ____
ROOT
ATOM      1  C   UNL     1       4.621   5.970  17.321  0.00  0.00    +0.000 C 
ATOM      2  N   UNL     1       4.589   6.547  16.155  0.00  0.00    +0.000 NA
ATOM      3  N   UNL     1       5.740   6.448  15.434  0.00  0.00    +0.000 N 
ATOM      4  C   UNL     1       6.765   5.601  15.781  0.00  0.00    +0.000 C 
ATOM      5  C   UNL     1       6.764   5.101  17.040  0.00  0.00    +0.000 C 
ATOM      6  O   UNL     1       5.702   5.373  17.916  0.00  0.00    +0.000 OA
ATOM      7  H   UNL     1       5.730   6.765  14.469  0.00  0.00    +0.000 HD
ENDROOT
BRANCH   4   8
ATOM      8  N   UNL     1       7.725   5.228  14.860  0.00  0.00    +0.000 N 
ATOM      9  H   UNL     1       8.408   4.610  15.287  0.00  0.00    +0.000 HD
ATOM     10  H   UNL     1       8.196   6.061  14.505  0.00  0.00    +0.000 HD
ENDBRANCH   4   8
BRANCH   5  11
ATOM     11  N   UNL     1       7.759   4.296  17.563  0.00  0.00    +0.000 N 
ATOM     12  H   UNL     1       8.645   4.479  17.096  0.00  0.00    +0.000 HD
ATOM     13  H   UNL     1       7.836   4.454  18.565  0.00  0.00    +0.000 HD
ENDBRANCH   5  11
BRANCH   1  14
ATOM     14  O   UNL     1       3.512   5.801  18.138  0.00  0.00    +0.000 OA
BRANCH  14  22
ATOM     15  C   UNL     1       2.389   5.340  20.942  0.00  0.00    +0.000 C 
ATOM     16  C   UNL     1       2.412   4.313  19.844  0.00  0.00    +0.000 A 
ATOM     17  C   UNL     1       1.847   3.039  20.057  0.00  0.00    +0.000 A 
ATOM     18 CL   UNL     1       1.159   2.574  21.577  0.00  0.00    +0.000 Cl
ATOM     19  C   UNL     1       1.800   2.082  19.034  0.00  0.00    +0.000 A 
ATOM     20  C   UNL     1       2.343   2.358  17.785  0.00  0.00    +0.000 A 
ATOM     21  C   UNL     1       2.949   3.590  17.561  0.00  0.00    +0.000 A 
ATOM     22  C   UNL     1       2.993   4.553  18.581  0.00  0.00    +0.000 A 
ENDBRANCH  14  22
ENDBRANCH   1  14
TORSDOF 4
ENDMDL
MODEL 4
REMARK VINA RESULT:      -7.0      1.620      1.820
REMARK  Name = 
REMARK  5 active torsions:
REMARK  status: ('A' for Active; 'I' for Inactive)
REMARK    1  A    between atoms: C_1  and  C_2
REMARK    2  A    between atoms: C_8  and  O_9
REMARK    3  A    between atoms: O_9  and  C_10
REMARK    4  A    between atoms: C_13  and  N_14
REMARK    5  A    between atoms: C_15  and  N_16
REMARK                            x       y       z     vdW  Elec       q    Type
REMARK                         _______ _______ _______ _____ _____    ______ ____
ROOT
ATOM      1  C   UNL     1       5.682   4.192  17.676  0.00  0.00    +0.000 C 
ATOM      2  N   UNL     1       5.838   4.999  18.685  0.00  0.00    +0.000 NA
ATOM      3  N   UNL     1       6.687   6.040  18.462  0.00  0.00    +0.000 N 
ATOM      4  C   UNL     1       7.148   6.369  17.209  0.00  0.00    +0.000 C 
ATOM      5  C   UNL     1       7.013   5.443  16.230  0.00  0.00    +0.000 C 
ATOM      6  O   UNL     1       6.345   4.234  16.477  0.00  0.00    +0.000 OA
ATOM      7  H   UNL     1       6.747   6.770  19.166  0.00  0.00    +0.000 HD
ENDROOT
BRANCH   4   8
ATOM      8  N   UNL     1       7.671   7.621  16.948  0.00  0.00    +0.000 N 
ATOM      9  H   UNL     1       7.969   7.688  15.979  0.00  0.00    +0.000 HD
ATOM     10  H   UNL     1       8.470   7.788  17.561  0.00  0.00    +0.000 HD
ENDBRANCH   4   8
BRANCH   5  11
ATOM     11  N   UNL     1       7.487   5.595  14.940  0.00  0.00    +0.000 N 
ATOM     12  H   UNL     1       6.952   5.015  14.296  0.00  0.00    +0.000 HD
ATOM     13  H   UNL     1       7.440   6.575  14.671  0.00  0.00    +0.000 HD
ENDBRANCH   5  11
BRANCH   1  14
ATOM     14  O   UNL     1       4.737   3.177  17.628  0.00  0.00    +0.000 OA
BRANCH  14  22
ATOM     15  C   UNL     1       4.351   2.153  20.482  0.00  0.00    +0.000 C 
ATOM     16  C   UNL     1       3.274   2.773  19.635  0.00  0.00    +0.000 A 
ATOM     17  C   UNL     1       1.980   2.959  20.164  0.00  0.00    +0.000 A 
ATOM     18 CL   UNL     1       1.550   2.446  21.762  0.00  0.00    +0.000 Cl
ATOM     19  C   UNL     1       0.972   3.586  19.421  0.00  0.00    +0.000 A 
ATOM     20  C   UNL     1       1.217   4.016  18.121  0.00  0.00    +0.000 A 
ATOM     21  C   UNL     1       2.471   3.803  17.558  0.00  0.00    +0.000 A 
ATOM     22  C   UNL     1       3.484   3.179  18.301  0.00  0.00    +0.000 A 
ENDBRANCH  14  22
ENDBRANCH   1  14
TORSDOF 4
ENDMDL
MODEL 5
REMARK VINA RESULT:      -6.9      1.560      1.643
REMARK  Name = 
REMARK  5 active torsions:
REMARK  status: ('A' for Active; 'I' for Inactive)
REMARK    1  A    between atoms: C_1  and  C_2
REMARK    2  A    between atoms: C_8  and  O_9
REMARK    3  A    between atoms: O_9  and  C_10
REMARK    4  A    between atoms: C_13  and  N_14
REMARK    5  A    between atoms: C_15  and  N_16
REMARK                            x       y       z     vdW  Elec       q    Type
REMARK                         _______ _______ _______ _____ _____    ______ ____
ROOT
ATOM      1  C   UNL     1       6.148   4.121  18.079  0.00  0.00    +0.000 C 
ATOM      2  N   UNL     1       7.415   4.422  18.077  0.00  0.00    +0.000 NA
ATOM      3  N   UNL     1       7.944   4.669  16.847  0.00  0.00    +0.000 N 
ATOM      4  C   UNL     1       7.170   4.842  15.725  0.00  0.00    +0.000 C 
ATOM      5  C   UNL     1       5.879   4.435  15.786  0.00  0.00    +0.000 C 
ATOM      6  O   UNL     1       5.342   3.941  16.985  0.00  0.00    +0.000 OA
ATOM      7  H   UNL     1       8.892   5.032  16.797  0.00  0.00    +0.000 HD
ENDROOT
BRANCH   4   8
ATOM      8  N   UNL     1       7.675   5.464  14.599  0.00  0.00    +0.000 N 
ATOM      9  H   UNL     1       7.412   6.445  14.586  0.00  0.00    +0.000 HD
ATOM     10  H   UNL     1       7.310   5.003  13.765  0.00  0.00    +0.000 HD
ENDBRANCH   4   8
BRANCH   5  11
ATOM     11  N   UNL     1       4.995   4.477  14.724  0.00  0.00    +0.000 N 
ATOM     12  H   UNL     1       5.412   4.049  13.900  0.00  0.00    +0.000 HD
ATOM     13  H   UNL     1       4.130   4.005  14.981  0.00  0.00    +0.000 HD
ENDBRANCH   5  11
BRANCH   1  14
ATOM     14  O   UNL     1       5.376   4.006  19.226  0.00  0.00    +0.000 OA
BRANCH  14  22
ATOM     15  C   UNL     1       3.493   1.689  18.572  0.00  0.00    +0.000 C 
ATOM     16  C   UNL     1       3.056   3.047  19.050  0.00  0.00    +0.000 A 
ATOM     17  C   UNL     1       1.689   3.311  19.269  0.00  0.00    +0.000 A 
ATOM     18 CL   UNL     1       0.457   2.134  18.958  0.00  0.00    +0.000 Cl
ATOM     19  C   UNL     1       1.256   4.546  19.769  0.00  0.00    +0.000 A 
ATOM     20  C   UNL     1       2.171   5.560  20.033  0.00  0.00    +0.000 A 
ATOM     21  C   UNL     1       3.521   5.343  19.781  0.00  0.00    +0.000 A 
ATOM     22  C   UNL     1       3.959   4.105  19.284  0.00  0.00    +0.000 A 
ENDBRANCH  14  22
ENDBRANCH   1  14
TORSDOF 4
ENDMDL
MODEL 6
REMARK VINA RESULT:      -6.8      1.700      2.609
REMARK  Name = 
REMARK  5 active torsions:
REMARK  status: ('A' for Active; 'I' for Inactive)
REMARK    1  A    between atoms: C_1  and  C_2
REMARK    2  A    between atoms: C_8  and  O_9
REMARK    3  A    between atoms: O_9  and  C_10
REMARK    4  A    between atoms: C_13  and  N_14
REMARK    5  A    between atoms: C_15  and  N_16
REMARK                            x       y       z     vdW  Elec       q    Type
REMARK                         _______ _______ _______ _____ _____    ______ ____
ROOT
ATOM      1  C   UNL     1       4.502   6.479  17.262  0.00  0.00    +0.000 C 
ATOM      2  N   UNL     1       4.814   6.736  16.025  0.00  0.00    +0.000 NA
ATOM      3  N   UNL     1       6.019   6.244  15.624  0.00  0.00    +0.000 N 
ATOM      4  C   UNL     1       6.737   5.338  16.367  0.00  0.00    +0.000 C 
ATOM      5  C   UNL     1       6.395   5.184  17.668  0.00  0.00    +0.000 C 
ATOM      6  O   UNL     1       5.288   5.863  18.201  0.00  0.00    +0.000 OA
ATOM      7  H   UNL     1       6.256   6.301  14.638  0.00  0.00    +0.000 HD
ENDROOT
BRANCH   4   8
ATOM      8  N   UNL     1       7.731   4.570  15.789  0.00  0.00    +0.000 N 
ATOM      9  H   UNL     1       8.037   4.984  14.913  0.00  0.00    +0.000 HD
ATOM     10  H   UNL     1       7.373   3.630  15.614  0.00  0.00    +0.000 HD
ENDBRANCH   4   8
BRANCH   5  11
ATOM     11  N   UNL     1       7.063   4.367  18.562  0.00  0.00    +0.000 N 
ATOM     12  H   UNL     1       6.853   4.644  19.519  0.00  0.00    +0.000 HD
ATOM     13  H   UNL     1       6.802   3.396  18.398  0.00  0.00    +0.000 HD
ENDBRANCH   5  11
BRANCH   1  14
ATOM     14  O   UNL     1       3.257   6.733  17.820  0.00  0.00    +0.000 OA
BRANCH  14  22
ATOM     15  C   UNL     1       2.600   3.865  16.991  0.00  0.00    +0.000 C 
ATOM     16  C   UNL     1       2.240   4.484  18.314  0.00  0.00    +0.000 A 
ATOM     17  C   UNL     1       1.586   3.715  19.298  0.00  0.00    +0.000 A 
ATOM     18 CL   UNL     1       1.122   2.068  19.029  0.00  0.00    +0.000 Cl
ATOM     19  C   UNL     1       1.290   4.246  20.560  0.00  0.00    +0.000 A 
ATOM     20  C   UNL     1       1.607   5.566  20.863  0.00  0.00    +0.000 A 
ATOM     21  C   UNL     1       2.210   6.361  19.894  0.00  0.00    +0.000 A 
ATOM     22  C   UNL     1       2.513   5.831  18.630  0.00  0.00    +0.000 A 
ENDBRANCH  14  22
ENDBRANCH   1  14
TORSDOF 4
ENDMDL
MODEL 7
REMARK VINA RESULT:      -6.7      2.329      3.290
REMARK  Name = 
REMARK  5 active torsions:
REMARK  status: ('A' for Active; 'I' for Inactive)
REMARK    1  A    between atoms: C_1  and  C_2
REMARK    2  A    between atoms: C_8  and  O_9
REMARK    3  A    between atoms: O_9  and  C_10
REMARK    4  A    between atoms: C_13  and  N_14
REMARK    5  A    between atoms: C_15  and  N_16
REMARK                            x       y       z     vdW  Elec       q    Type
REMARK                         _______ _______ _______ _____ _____    ______ ____
ROOT
ATOM      1  C   UNL     1       5.252   4.951  16.197  0.00  0.00    +0.000 C 
ATOM      2  N   UNL     1       6.191   5.791  16.523  0.00  0.00    +0.000 NA
ATOM      3  N   UNL     1       7.270   5.796  15.693  0.00  0.00    +0.000 N 
ATOM      4  C   UNL     1       7.273   5.164  14.473  0.00  0.00    +0.000 C 
ATOM      5  C   UNL     1       6.302   4.248  14.240  0.00  0.00    +0.000 C 
ATOM      6  O   UNL     1       5.286   4.030  15.182  0.00  0.00    +0.000 OA
ATOM      7  H   UNL     1       7.972   6.519  15.823  0.00  0.00    +0.000 HD
ENDROOT
BRANCH   4   8
ATOM      8  N   UNL     1       8.196   5.497  13.499  0.00  0.00    +0.000 N 
ATOM      9  H   UNL     1       9.083   5.755  13.922  0.00  0.00    +0.000 HD
ATOM     10  H   UNL     1       7.841   6.280  12.950  0.00  0.00    +0.000 HD
ENDBRANCH   4   8
BRANCH   5  11
ATOM     11  N   UNL     1       6.210   3.479  13.094  0.00  0.00    +0.000 N 
ATOM     12  H   UNL     1       6.453   2.512  13.297  0.00  0.00    +0.000 HD
ATOM     13  H   UNL     1       5.269   3.546  12.712  0.00  0.00    +0.000 HD
ENDBRANCH   5  11
BRANCH   1  14
ATOM     14  O   UNL     1       4.002   4.907  16.798  0.00  0.00    +0.000 OA
BRANCH  14  22
ATOM     15  C   UNL     1       3.054   5.978  19.499  0.00  0.00    +0.000 C 
ATOM     16  C   UNL     1       3.139   4.523  19.131  0.00  0.00    +0.000 A 
ATOM     17  C   UNL     1       2.722   3.538  20.049  0.00  0.00    +0.000 A 
ATOM     18 CL   UNL     1       2.153   3.933  21.637  0.00  0.00    +0.000 Cl
ATOM     19  C   UNL     1       2.734   2.177  19.714  0.00  0.00    +0.000 A 
ATOM     20  C   UNL     1       3.191   1.762  18.469  0.00  0.00    +0.000 A 
ATOM     21  C   UNL     1       3.653   2.708  17.560  0.00  0.00    +0.000 A 
ATOM     22  C   UNL     1       3.638   4.073  17.891  0.00  0.00    +0.000 A 
ENDBRANCH  14  22
ENDBRANCH   1  14
TORSDOF 4
ENDMDL
MODEL 8
REMARK VINA RESULT:      -6.7      1.746      1.844
REMARK  Name = 
REMARK  5 active torsions:
REMARK  status: ('A' for Active; 'I' for Inactive)
REMARK    1  A    between atoms: C_1  and  C_2
REMARK    2  A    between atoms: C_8  and  O_9
REMARK    3  A    between atoms: O_9  and  C_10
REMARK    4  A    between atoms: C_13  and  N_14
REMARK    5  A    between atoms: C_15  and  N_16
REMARK                            x       y       z     vdW  Elec       q    Type
REMARK                         _______ _______ _______ _____ _____    ______ ____
ROOT
ATOM      1  C   UNL     1       5.909   5.000  18.147  0.00  0.00    +0.000 C 
ATOM      2  N   UNL     1       7.027   4.351  17.998  0.00  0.00    +0.000 NA
ATOM      3  N   UNL     1       7.530   4.358  16.732  0.00  0.00    +0.000 N 
ATOM      4  C   UNL     1       7.050   5.185  15.745  0.00  0.00    +0.000 C 
ATOM      5  C   UNL     1       5.842   5.765  15.947  0.00  0.00    +0.000 C 
ATOM      6  O   UNL     1       5.161   5.591  17.162  0.00  0.00    +0.000 OA
ATOM      7  H   UNL     1       8.461   3.980  16.584  0.00  0.00    +0.000 HD
ENDROOT
BRANCH   4   8
ATOM      8  N   UNL     1       7.800   5.460  14.618  0.00  0.00    +0.000 N 
ATOM      9  H   UNL     1       7.417   6.260  14.122  0.00  0.00    +0.000 HD
ATOM     10  H   UNL     1       7.796   4.646  14.002  0.00  0.00    +0.000 HD
ENDBRANCH   4   8
BRANCH   5  11
ATOM     11  N   UNL     1       5.193   6.563  15.024  0.00  0.00    +0.000 N 
ATOM     12  H   UNL     1       5.219   7.537  15.318  0.00  0.00    +0.000 HD
ATOM     13  H   UNL     1       5.624   6.447  14.109  0.00  0.00    +0.000 HD
ENDBRANCH   5  11
BRANCH   1  14
ATOM     14  O   UNL     1       5.320   5.265  19.375  0.00  0.00    +0.000 OA
BRANCH  14  22
ATOM     15  C   UNL     1       4.209   2.521  20.134  0.00  0.00    +0.000 C 
ATOM     16  C   UNL     1       3.415   3.798  20.120  0.00  0.00    +0.000 A 
ATOM     17  C   UNL     1       2.063   3.793  20.519  0.00  0.00    +0.000 A 
ATOM     18 CL   UNL     1       1.240   2.342  20.986  0.00  0.00    +0.000 Cl
ATOM     19  C   UNL     1       1.315   4.977  20.573  0.00  0.00    +0.000 A 
ATOM     20  C   UNL     1       1.884   6.189  20.200  0.00  0.00    +0.000 A 
ATOM     21  C   UNL     1       3.202   6.216  19.757  0.00  0.00    +0.000 A 
ATOM     22  C   UNL     1       3.956   5.033  19.707  0.00  0.00    +0.000 A 
ENDBRANCH  14  22
ENDBRANCH   1  14
TORSDOF 4
ENDMDL
MODEL 9
REMARK VINA RESULT:      -6.7      4.031      5.986
REMARK  Name = 
REMARK  5 active torsions:
REMARK  status: ('A' for Active; 'I' for Inactive)
REMARK    1  A    between atoms: C_1  and  C_2
REMARK    2  A    between atoms: C_8  and  O_9
REMARK    3  A    between atoms: O_9  and  C_10
REMARK    4  A    between atoms: C_13  and  N_14
REMARK    5  A    between atoms: C_15  and  N_16
REMARK                            x       y       z     vdW  Elec       q    Type
REMARK                         _______ _______ _______ _____ _____    ______ ____
ROOT
ATOM      1  C   UNL     1       4.210   2.983  19.245  0.00  0.00    +0.000 C 
ATOM      2  N   UNL     1       4.029   2.013  18.397  0.00  0.00    +0.000 NA
ATOM      3  N   UNL     1       2.778   1.476  18.399  0.00  0.00    +0.000 N 
ATOM      4  C   UNL     1       1.717   2.062  19.047  0.00  0.00    +0.000 C 
ATOM      5  C   UNL     1       1.996   3.014  19.970  0.00  0.00    +0.000 C 
ATOM      6  O   UNL     1       3.317   3.440  20.180  0.00  0.00    +0.000 OA
ATOM      7  H   UNL     1       2.542   0.806  17.672  0.00  0.00    +0.000 HD
ENDROOT
BRANCH   4   8
ATOM      8  N   UNL     1       0.414   1.734  18.723  0.00  0.00    +0.000 N 
ATOM      9  H   UNL     1      -0.128   1.557  19.564  0.00  0.00    +0.000 HD
ATOM     10  H   UNL     1       0.411   0.900  18.135  0.00  0.00    +0.000 HD
ENDBRANCH   4   8
BRANCH   5  11
ATOM     11  N   UNL     1       1.048   3.645  20.754  0.00  0.00    +0.000 N 
ATOM     12  H   UNL     1       1.120   3.329  21.719  0.00  0.00    +0.000 HD
ATOM     13  H   UNL     1       1.169   4.654  20.691  0.00  0.00    +0.000 HD
ENDBRANCH   5  11
BRANCH   1  14
ATOM     14  O   UNL     1       5.345   3.781  19.287  0.00  0.00    +0.000 OA
BRANCH  14  22
ATOM     15  C   UNL     1       7.758   5.621  19.647  0.00  0.00    +0.000 C 
ATOM     16  C   UNL     1       6.690   5.795  18.602  0.00  0.00    +0.000 A 
ATOM     17  C   UNL     1       6.783   6.845  17.666  0.00  0.00    +0.000 A 
ATOM     18 CL   UNL     1       8.072   8.002  17.697  0.00  0.00    +0.000 Cl
ATOM     19  C   UNL     1       5.835   6.997  16.645  0.00  0.00    +0.000 A 
ATOM     20  C   UNL     1       4.755   6.127  16.551  0.00  0.00    +0.000 A 
ATOM     21  C   UNL     1       4.613   5.111  17.489  0.00  0.00    +0.000 A 
ATOM     22  C   UNL     1       5.563   4.952  18.510  0.00  0.00    +0.000 A 
ENDBRANCH  14  22
ENDBRANCH   1  14
TORSDOF 4
ENDMDL
