MODEL 1
REMARK VINA RESULT:      -6.6      0.000      0.000
REMARK  Name = 
REMARK  15 active torsions:
REMARK  status: ('A' for Active; 'I' for Inactive)
REMARK    1  A    between atoms: C_1  and  C_2
REMARK    2  A    between atoms: C_2  and  C_3
REMARK    3  A    between atoms: C_3  and  C_4
REMARK    4  A    between atoms: C_3  and  O_5
REMARK    5  A    between atoms: O_5  and  C_6
REMARK    6  A    between atoms: C_6  and  C_8
REMARK    7  A    between atoms: C_8  and  C_9
REMARK    8  A    between atoms: C_9  and  N_10
REMARK    9  A    between atoms: C_12  and  N_13
REMARK   10  A    between atoms: C_16  and  N_17
REMARK   11  A    between atoms: N_17  and  C_18
REMARK   12  A    between atoms: N_17  and  C_20
REMARK   13  A    between atoms: C_18  and  C_19
REMARK   14  A    between atoms: C_20  and  C_21
REMARK   15  A    between atoms: N_28  and  C_29
REMARK                            x       y       z     vdW  Elec       q    Type
REMARK                         _______ _______ _______ _____ _____    ______ ____
ROOT
ATOM      1  N   UNL     1       2.032   8.619  19.016  0.00  0.00    +0.000 NA
ATOM      2  C   UNL     1       1.867   7.416  19.853  0.00  0.00    +0.000 C 
ATOM      3  C   UNL     1       2.425   6.112  19.343  0.00  0.00    +0.000 C 
ATOM      4  C   UNL     1       3.119   5.906  18.198  0.00  0.00    +0.000 C 
ATOM      5  N   UNL     1       3.373   7.084  17.455  0.00  0.00    +0.000 N 
ATOM      6  C   UNL     1       4.396   7.165  16.413  0.00  0.00    +0.000 C 
ATOM      7  C   UNL     1       3.134   8.405  18.074  0.00  0.00    +0.000 C 
ENDROOT
BRANCH   3   8
ATOM      8  N   UNL     1       2.226   5.042  20.281  0.00  0.00    +0.000 N 
ATOM      9  O   UNL     1       1.054   4.734  20.543  0.00  0.00    +0.000 OA
ATOM     10  O   UNL     1       3.226   4.584  20.852  0.00  0.00    +0.000 OA
ENDBRANCH   3   8
BRANCH   1  11
ATOM     11  C   UNL     1       0.811   9.094  18.341  0.00  0.00    +0.000 C 
BRANCH  11  12
ATOM     12  C   UNL     1      -0.129   9.913  19.245  0.00  0.00    +0.000 C 
BRANCH  12  13
ATOM     13  C   UNL     1      -0.844  10.966  18.435  0.00  0.00    +0.000 C 
ATOM     14  O   UNL     1      -0.479  12.125  18.293  0.00  0.00    +0.000 OA
BRANCH  13  15
ATOM     15  O   UNL     1      -1.970  10.426  17.853  0.00  0.00    +0.000 OA
BRANCH  15  16
ATOM     16  C   UNL     1      -2.972  11.383  17.421  0.00  0.00    +0.000 C 
ATOM     17  C   UNL     1      -3.900  11.629  18.608  0.00  0.00    +0.000 C 
BRANCH  16  19
ATOM     18  C   UNL     1      -2.792  10.278  15.119  0.00  0.00    +0.000 C 
ATOM     19  C   UNL     1      -3.714  10.803  16.208  0.00  0.00    +0.000 C 
ENDBRANCH  16  19
ENDBRANCH  15  16
ENDBRANCH  13  15
ENDBRANCH  12  13
ENDBRANCH  11  12
ENDBRANCH   1  11
BRANCH   4  20
ATOM     20  N   UNL     1       3.468   4.631  17.668  0.00  0.00    +0.000 N 
BRANCH  20  21
ATOM     21  C   UNL     1       2.392   3.725  17.179  0.00  0.00    +0.000 C 
ATOM     22  C   UNL     1       2.383   2.337  17.807  0.00  0.00    +0.000 C 
ENDBRANCH  20  21
BRANCH  20  23
ATOM     23  C   UNL     1       4.852   4.089  17.692  0.00  0.00    +0.000 C 
BRANCH  23  24
ATOM     24  C   UNL     1       5.642   4.321  16.407  0.00  0.00    +0.000 A 
ATOM     25  C   UNL     1       5.227   3.847  15.155  0.00  0.00    +0.000 A 
ATOM     26  C   UNL     1       5.969   4.132  14.004  0.00  0.00    +0.000 A 
ATOM     27  C   UNL     1       7.124   4.870  14.150  0.00  0.00    +0.000 A 
ATOM     28 CL   UNL     1       8.065   5.319  12.790  0.00  0.00    +0.000 Cl
ATOM     29  N   UNL     1       7.602   5.299  15.336  0.00  0.00    +0.000 NA
ATOM     30  C   UNL     1       6.856   5.004  16.432  0.00  0.00    +0.000 A 
ENDBRANCH  23  24
ENDBRANCH  20  23
ENDBRANCH   4  20
TORSDOF 11
ENDMDL
MODEL 2
REMARK VINA RESULT:      -6.1      4.515      9.159
REMARK  Name = 
REMARK  15 active torsions:
REMARK  status: ('A' for Active; 'I' for Inactive)
REMARK    1  A    between atoms: C_1  and  C_2
REMARK    2  A    between atoms: C_2  and  C_3
REMARK    3  A    between atoms: C_3  and  C_4
REMARK    4  A    between atoms: C_3  and  O_5
REMARK    5  A    between atoms: O_5  and  C_6
REMARK    6  A    between atoms: C_6  and  C_8
REMARK    7  A    between atoms: C_8  and  C_9
REMARK    8  A    between atoms: C_9  and  N_10
REMARK    9  A    between atoms: C_12  and  N_13
REMARK   10  A    between atoms: C_16  and  N_17
REMARK   11  A    between atoms: N_17  and  C_18
REMARK   12  A    between atoms: N_17  and  C_20
REMARK   13  A    between atoms: C_18  and  C_19
REMARK   14  A    between atoms: C_20  and  C_21
REMARK   15  A    between atoms: N_28  and  C_29
REMARK                            x       y       z     vdW  Elec       q    Type
REMARK                         _______ _______ _______ _____ _____    ______ ____
ROOT
ATOM      1  N   UNL     1       0.655   9.278  19.078  0.00  0.00    +0.000 NA
ATOM      2  C   UNL     1       0.471   9.254  20.542  0.00  0.00    +0.000 C 
ATOM      3  C   UNL     1       0.031  10.523  21.224  0.00  0.00    +0.000 C 
ATOM      4  C   UNL     1      -0.267  11.710  20.642  0.00  0.00    +0.000 C 
ATOM      5  N   UNL     1      -0.200  11.694  19.228  0.00  0.00    +0.000 N 
ATOM      6  C   UNL     1      -0.825  12.714  18.388  0.00  0.00    +0.000 C 
ATOM      7  C   UNL     1      -0.096  10.403  18.516  0.00  0.00    +0.000 C 
ENDROOT
BRANCH   3   8
ATOM      8  N   UNL     1      -0.145  10.337  22.638  0.00  0.00    +0.000 N 
ATOM      9  O   UNL     1       0.841   9.948  23.282  0.00  0.00    +0.000 OA
ATOM     10  O   UNL     1      -1.291  10.459  23.096  0.00  0.00    +0.000 OA
ENDBRANCH   3   8
BRANCH   1  11
ATOM     11  C   UNL     1       2.054   9.257  18.615  0.00  0.00    +0.000 C 
BRANCH  11  12
ATOM     12  C   UNL     1       2.403   8.051  17.723  0.00  0.00    +0.000 C 
BRANCH  12  13
ATOM     13  C   UNL     1       2.515   6.801  18.559  0.00  0.00    +0.000 C 
ATOM     14  O   UNL     1       2.813   6.760  19.745  0.00  0.00    +0.000 OA
BRANCH  13  15
ATOM     15  O   UNL     1       2.209   5.696  17.794  0.00  0.00    +0.000 OA
BRANCH  15  16
ATOM     16  C   UNL     1       3.157   4.601  17.867  0.00  0.00    +0.000 C 
ATOM     17  C   UNL     1       4.401   5.030  17.091  0.00  0.00    +0.000 C 
BRANCH  16  19
ATOM     18  C   UNL     1       2.375   2.196  18.265  0.00  0.00    +0.000 C 
ATOM     19  C   UNL     1       2.504   3.344  17.275  0.00  0.00    +0.000 C 
ENDBRANCH  16  19
ENDBRANCH  15  16
ENDBRANCH  13  15
ENDBRANCH  12  13
ENDBRANCH  11  12
ENDBRANCH   1  11
BRANCH   4  20
ATOM     20  N   UNL     1      -0.501  12.930  21.338  0.00  0.00    +0.000 N 
BRANCH  20  21
ATOM     21  C   UNL     1      -1.900  13.396  21.544  0.00  0.00    +0.000 C 
ATOM     22  C   UNL     1      -2.241  13.799  22.973  0.00  0.00    +0.000 C 
ENDBRANCH  20  21
BRANCH  20  23
ATOM     23  C   UNL     1       0.590  13.846  21.767  0.00  0.00    +0.000 C 
BRANCH  23  24
ATOM     24  C   UNL     1       1.265  14.598  20.625  0.00  0.00    +0.000 A 
ATOM     25  C   UNL     1       2.486  14.201  20.061  0.00  0.00    +0.000 A 
ATOM     26  C   UNL     1       3.035  14.904  18.983  0.00  0.00    +0.000 A 
ATOM     27  C   UNL     1       2.346  16.004  18.516  0.00  0.00    +0.000 A 
ATOM     28 CL   UNL     1       2.910  16.890  17.161  0.00  0.00    +0.000 Cl
ATOM     29  N   UNL     1       1.202  16.465  19.058  0.00  0.00    +0.000 NA
ATOM     30  C   UNL     1       0.699  15.759  20.103  0.00  0.00    +0.000 A 
ENDBRANCH  23  24
ENDBRANCH  20  23
ENDBRANCH   4  20
TORSDOF 11
ENDMDL
MODEL 3
REMARK VINA RESULT:      -6.1      4.800     10.115
REMARK  Name = 
REMARK  15 active torsions:
REMARK  status: ('A' for Active; 'I' for Inactive)
REMARK    1  A    between atoms: C_1  and  C_2
REMARK    2  A    between atoms: C_2  and  C_3
REMARK    3  A    between atoms: C_3  and  C_4
REMARK    4  A    between atoms: C_3  and  O_5
REMARK    5  A    between atoms: O_5  and  C_6
REMARK    6  A    between atoms: C_6  and  C_8
REMARK    7  A    between atoms: C_8  and  C_9
REMARK    8  A    between atoms: C_9  and  N_10
REMARK    9  A    between atoms: C_12  and  N_13
REMARK   10  A    between atoms: C_16  and  N_17
REMARK   11  A    between atoms: N_17  and  C_18
REMARK   12  A    between atoms: N_17  and  C_20
REMARK   13  A    between atoms: C_18  and  C_19
REMARK   14  A    between atoms: C_20  and  C_21
REMARK   15  A    between atoms: N_28  and  C_29
REMARK                            x       y       z     vdW  Elec       q    Type
REMARK                         _______ _______ _______ _____ _____    ______ ____
ROOT
ATOM      1  N   UNL     1       1.352   9.686  17.881  0.00  0.00    +0.000 NA
ATOM      2  C   UNL     1      -0.069  10.040  18.057  0.00  0.00    +0.000 C 
ATOM      3  C   UNL     1      -0.399  11.386  18.648  0.00  0.00    +0.000 C 
ATOM      4  C   UNL     1       0.469  12.361  19.012  0.00  0.00    +0.000 C 
ATOM      5  N   UNL     1       1.825  12.060  18.734  0.00  0.00    +0.000 N 
ATOM      6  C   UNL     1       2.874  13.078  18.689  0.00  0.00    +0.000 C 
ATOM      7  C   UNL     1       2.156  10.910  17.867  0.00  0.00    +0.000 C 
ENDROOT
BRANCH   3   8
ATOM      8  N   UNL     1      -1.817  11.606  18.720  0.00  0.00    +0.000 N 
ATOM      9  O   UNL     1      -2.361  11.422  19.819  0.00  0.00    +0.000 OA
ATOM     10  O   UNL     1      -2.417  11.844  17.661  0.00  0.00    +0.000 OA
ENDBRANCH   3   8
BRANCH   1  11
ATOM     11  C   UNL     1       1.878   8.687  18.829  0.00  0.00    +0.000 C 
BRANCH  11  12
ATOM     12  C   UNL     1       2.746   7.596  18.175  0.00  0.00    +0.000 C 
BRANCH  12  13
ATOM     13  C   UNL     1       2.479   6.260  18.823  0.00  0.00    +0.000 C 
ATOM     14  O   UNL     1       2.391   6.056  20.026  0.00  0.00    +0.000 OA
BRANCH  13  15
ATOM     15  O   UNL     1       2.326   5.291  17.855  0.00  0.00    +0.000 OA
BRANCH  15  16
ATOM     16  C   UNL     1       2.996   4.032  18.118  0.00  0.00    +0.000 C 
ATOM     17  C   UNL     1       4.231   3.984  17.222  0.00  0.00    +0.000 C 
BRANCH  16  19
ATOM     18  C   UNL     1       1.153   2.501  19.018  0.00  0.00    +0.000 C 
ATOM     19  C   UNL     1       2.018   2.884  17.828  0.00  0.00    +0.000 C 
ENDBRANCH  16  19
ENDBRANCH  15  16
ENDBRANCH  13  15
ENDBRANCH  12  13
ENDBRANCH  11  12
ENDBRANCH   1  11
BRANCH   4  20
ATOM     20  N   UNL     1       0.125  13.539  19.733  0.00  0.00    +0.000 N 
BRANCH  20  21
ATOM     21  C   UNL     1      -0.404  14.718  18.994  0.00  0.00    +0.000 C 
ATOM     22  C   UNL     1       0.502  15.943  19.001  0.00  0.00    +0.000 C 
ENDBRANCH  20  21
BRANCH  20  23
ATOM     23  C   UNL     1       0.388  13.711  21.187  0.00  0.00    +0.000 C 
BRANCH  23  24
ATOM     24  C   UNL     1      -0.818  13.445  22.081  0.00  0.00    +0.000 A 
ATOM     25  C   UNL     1      -1.761  14.429  22.411  0.00  0.00    +0.000 A 
ATOM     26  C   UNL     1      -2.874  14.114  23.198  0.00  0.00    +0.000 A 
ATOM     27  C   UNL     1      -2.995  12.816  23.649  0.00  0.00    +0.000 A 
ATOM     28 CL   UNL     1      -4.355  12.323  24.568  0.00  0.00    +0.000 Cl
ATOM     29  N   UNL     1      -2.089  11.846  23.413  0.00  0.00    +0.000 NA
ATOM     30  C   UNL     1      -1.021  12.189  22.647  0.00  0.00    +0.000 A 
ENDBRANCH  23  24
ENDBRANCH  20  23
ENDBRANCH   4  20
TORSDOF 11
ENDMDL
MODEL 4
REMARK VINA RESULT:      -6.0      2.392      3.388
REMARK  Name = 
REMARK  15 active torsions:
REMARK  status: ('A' for Active; 'I' for Inactive)
REMARK    1  A    between atoms: C_1  and  C_2
REMARK    2  A    between atoms: C_2  and  C_3
REMARK    3  A    between atoms: C_3  and  C_4
REMARK    4  A    between atoms: C_3  and  O_5
REMARK    5  A    between atoms: O_5  and  C_6
REMARK    6  A    between atoms: C_6  and  C_8
REMARK    7  A    between atoms: C_8  and  C_9
REMARK    8  A    between atoms: C_9  and  N_10
REMARK    9  A    between atoms: C_12  and  N_13
REMARK   10  A    between atoms: C_16  and  N_17
REMARK   11  A    between atoms: N_17  and  C_18
REMARK   12  A    between atoms: N_17  and  C_20
REMARK   13  A    between atoms: C_18  and  C_19
REMARK   14  A    between atoms: C_20  and  C_21
REMARK   15  A    between atoms: N_28  and  C_29
REMARK                            x       y       z     vdW  Elec       q    Type
REMARK                         _______ _______ _______ _____ _____    ______ ____
ROOT
ATOM      1  N   UNL     1       2.044   7.262  18.736  0.00  0.00    +0.000 NA
ATOM      2  C   UNL     1       3.041   7.649  17.721  0.00  0.00    +0.000 C 
ATOM      3  C   UNL     1       4.338   6.884  17.670  0.00  0.00    +0.000 C 
ATOM      4  C   UNL     1       4.701   5.825  18.434  0.00  0.00    +0.000 C 
ATOM      5  N   UNL     1       3.694   5.386  19.327  0.00  0.00    +0.000 N 
ATOM      6  C   UNL     1       3.711   4.069  19.964  0.00  0.00    +0.000 C 
ATOM      7  C   UNL     1       2.313   5.891  19.179  0.00  0.00    +0.000 C 
ENDROOT
BRANCH   3   8
ATOM      8  N   UNL     1       5.190   7.345  16.608  0.00  0.00    +0.000 N 
ATOM      9  O   UNL     1       4.869   7.031  15.452  0.00  0.00    +0.000 OA
ATOM     10  O   UNL     1       6.243   7.917  16.923  0.00  0.00    +0.000 OA
ENDBRANCH   3   8
BRANCH   1  11
ATOM     11  C   UNL     1       1.899   8.192  19.870  0.00  0.00    +0.000 C 
BRANCH  11  12
ATOM     12  C   UNL     1       1.117   9.476  19.534  0.00  0.00    +0.000 C 
BRANCH  12  13
ATOM     13  C   UNL     1       0.694  10.175  20.802  0.00  0.00    +0.000 C 
ATOM     14  O   UNL     1       1.284  10.130  21.872  0.00  0.00    +0.000 OA
BRANCH  13  15
ATOM     15  O   UNL     1      -0.457  10.899  20.576  0.00  0.00    +0.000 OA
BRANCH  15  16
ATOM     16  C   UNL     1      -0.551  11.536  19.276  0.00  0.00    +0.000 C 
ATOM     17  C   UNL     1      -0.161  13.001  19.464  0.00  0.00    +0.000 C 
BRANCH  16  19
ATOM     18  C   UNL     1      -2.180  10.156  17.864  0.00  0.00    +0.000 C 
ATOM     19  C   UNL     1      -1.985  11.375  18.752  0.00  0.00    +0.000 C 
ENDBRANCH  16  19
ENDBRANCH  15  16
ENDBRANCH  13  15
ENDBRANCH  12  13
ENDBRANCH  11  12
ENDBRANCH   1  11
BRANCH   4  20
ATOM     20  N   UNL     1       6.003   5.251  18.477  0.00  0.00    +0.000 N 
BRANCH  20  21
ATOM     21  C   UNL     1       7.100   5.985  19.166  0.00  0.00    +0.000 C 
ATOM     22  C   UNL     1       8.322   5.141  19.510  0.00  0.00    +0.000 C 
ENDBRANCH  20  21
BRANCH  20  23
ATOM     23  C   UNL     1       6.369   4.005  17.753  0.00  0.00    +0.000 C 
BRANCH  23  24
ATOM     24  C   UNL     1       6.570   4.184  16.252  0.00  0.00    +0.000 A 
ATOM     25  C   UNL     1       5.768   3.553  15.290  0.00  0.00    +0.000 A 
ATOM     26  C   UNL     1       5.970   3.792  13.927  0.00  0.00    +0.000 A 
ATOM     27  C   UNL     1       6.991   4.647  13.568  0.00  0.00    +0.000 A 
ATOM     28 CL   UNL     1       7.274   5.048  11.926  0.00  0.00    +0.000 Cl
ATOM     29  N   UNL     1       7.829   5.233  14.447  0.00  0.00    +0.000 NA
ATOM     30  C   UNL     1       7.604   4.977  15.762  0.00  0.00    +0.000 A 
ENDBRANCH  23  24
ENDBRANCH  20  23
ENDBRANCH   4  20
TORSDOF 11
ENDMDL
MODEL 5
REMARK VINA RESULT:      -5.9      1.181      1.411
REMARK  Name = 
REMARK  15 active torsions:
REMARK  status: ('A' for Active; 'I' for Inactive)
REMARK    1  A    between atoms: C_1  and  C_2
REMARK    2  A    between atoms: C_2  and  C_3
REMARK    3  A    between atoms: C_3  and  C_4
REMARK    4  A    between atoms: C_3  and  O_5
REMARK    5  A    between atoms: O_5  and  C_6
REMARK    6  A    between atoms: C_6  and  C_8
REMARK    7  A    between atoms: C_8  and  C_9
REMARK    8  A    between atoms: C_9  and  N_10
REMARK    9  A    between atoms: C_12  and  N_13
REMARK   10  A    between atoms: C_16  and  N_17
REMARK   11  A    between atoms: N_17  and  C_18
REMARK   12  A    between atoms: N_17  and  C_20
REMARK   13  A    between atoms: C_18  and  C_19
REMARK   14  A    between atoms: C_20  and  C_21
REMARK   15  A    between atoms: N_28  and  C_29
REMARK                            x       y       z     vdW  Elec       q    Type
REMARK                         _______ _______ _______ _____ _____    ______ ____
ROOT
ATOM      1  N   UNL     1       0.982   8.739  20.516  0.00  0.00    +0.000 NA
ATOM      2  C   UNL     1       1.027   7.372  21.069  0.00  0.00    +0.000 C 
ATOM      3  C   UNL     1       1.723   6.303  20.266  0.00  0.00    +0.000 C 
ATOM      4  C   UNL     1       2.371   6.451  19.085  0.00  0.00    +0.000 C 
ATOM      5  N   UNL     1       2.423   7.786  18.617  0.00  0.00    +0.000 N 
ATOM      6  C   UNL     1       3.363   8.236  17.592  0.00  0.00    +0.000 C 
ATOM      7  C   UNL     1       2.046   8.893  19.521  0.00  0.00    +0.000 C 
ENDROOT
BRANCH   3   8
ATOM      8  N   UNL     1       1.723   5.038  20.947  0.00  0.00    +0.000 N 
ATOM      9  O   UNL     1       0.737   4.305  20.774  0.00  0.00    +0.000 OA
ATOM     10  O   UNL     1       2.641   4.816  21.750  0.00  0.00    +0.000 OA
ENDBRANCH   3   8
BRANCH   1  11
ATOM     11  C   UNL     1      -0.329   9.170  19.997  0.00  0.00    +0.000 C 
BRANCH  11  12
ATOM     12  C   UNL     1      -0.626  10.667  20.206  0.00  0.00    +0.000 C 
BRANCH  12  13
ATOM     13  C   UNL     1      -1.171  11.271  18.936  0.00  0.00    +0.000 C 
ATOM     14  O   UNL     1      -0.775  12.302  18.410  0.00  0.00    +0.000 OA
BRANCH  13  15
ATOM     15  O   UNL     1      -2.179  10.477  18.433  0.00  0.00    +0.000 OA
BRANCH  15  16
ATOM     16  C   UNL     1      -2.767  10.926  17.185  0.00  0.00    +0.000 C 
ATOM     17  C   UNL     1      -4.157  11.466  17.512  0.00  0.00    +0.000 C 
BRANCH  16  19
ATOM     18  C   UNL     1      -2.941  10.155  14.751  0.00  0.00    +0.000 C 
ATOM     19  C   UNL     1      -2.814   9.742  16.209  0.00  0.00    +0.000 C 
ENDBRANCH  16  19
ENDBRANCH  15  16
ENDBRANCH  13  15
ENDBRANCH  12  13
ENDBRANCH  11  12
ENDBRANCH   1  11
BRANCH   4  20
ATOM     20  N   UNL     1       2.855   5.384  18.276  0.00  0.00    +0.000 N 
BRANCH  20  21
ATOM     21  C   UNL     1       1.890   4.578  17.478  0.00  0.00    +0.000 C 
ATOM     22  C   UNL     1       1.865   3.091  17.808  0.00  0.00    +0.000 C 
ENDBRANCH  20  21
BRANCH  20  23
ATOM     23  C   UNL     1       4.273   4.938  18.277  0.00  0.00    +0.000 C 
BRANCH  23  24
ATOM     24  C   UNL     1       4.897   4.817  16.891  0.00  0.00    +0.000 A 
ATOM     25  C   UNL     1       5.048   5.905  16.020  0.00  0.00    +0.000 A 
ATOM     26  C   UNL     1       5.671   5.743  14.778  0.00  0.00    +0.000 A 
ATOM     27  C   UNL     1       6.108   4.479  14.438  0.00  0.00    +0.000 A 
ATOM     28 CL   UNL     1       6.937   4.196  12.965  0.00  0.00    +0.000 Cl
ATOM     29  N   UNL     1       5.936   3.388  15.210  0.00  0.00    +0.000 NA
ATOM     30  C   UNL     1       5.326   3.583  16.408  0.00  0.00    +0.000 A 
ENDBRANCH  23  24
ENDBRANCH  20  23
ENDBRANCH   4  20
TORSDOF 11
ENDMDL
MODEL 6
REMARK VINA RESULT:      -5.9      5.316     10.691
REMARK  Name = 
REMARK  15 active torsions:
REMARK  status: ('A' for Active; 'I' for Inactive)
REMARK    1  A    between atoms: C_1  and  C_2
REMARK    2  A    between atoms: C_2  and  C_3
REMARK    3  A    between atoms: C_3  and  C_4
REMARK    4  A    between atoms: C_3  and  O_5
REMARK    5  A    between atoms: O_5  and  C_6
REMARK    6  A    between atoms: C_6  and  C_8
REMARK    7  A    between atoms: C_8  and  C_9
REMARK    8  A    between atoms: C_9  and  N_10
REMARK    9  A    between atoms: C_12  and  N_13
REMARK   10  A    between atoms: C_16  and  N_17
REMARK   11  A    between atoms: N_17  and  C_18
REMARK   12  A    between atoms: N_17  and  C_20
REMARK   13  A    between atoms: C_18  and  C_19
REMARK   14  A    between atoms: C_20  and  C_21
REMARK   15  A    between atoms: N_28  and  C_29
REMARK                            x       y       z     vdW  Elec       q    Type
REMARK                         _______ _______ _______ _____ _____    ______ ____
ROOT
ATOM      1  N   UNL     1       0.272   9.522  19.254  0.00  0.00    +0.000 NA
ATOM      2  C   UNL     1      -0.035   9.600  20.695  0.00  0.00    +0.000 C 
ATOM      3  C   UNL     1      -0.463  10.930  21.259  0.00  0.00    +0.000 C 
ATOM      4  C   UNL     1      -0.648  12.090  20.584  0.00  0.00    +0.000 C 
ATOM      5  N   UNL     1      -0.464  11.980  19.185  0.00  0.00    +0.000 N 
ATOM      6  C   UNL     1      -0.962  12.973  18.233  0.00  0.00    +0.000 C 
ATOM      7  C   UNL     1      -0.369  10.643  18.562  0.00  0.00    +0.000 C 
ENDROOT
BRANCH   3   8
ATOM      8  N   UNL     1      -0.766  10.843  22.661  0.00  0.00    +0.000 N 
ATOM      9  O   UNL     1       0.117  10.384  23.401  0.00  0.00    +0.000 OA
ATOM     10  O   UNL     1      -1.922  11.116  23.018  0.00  0.00    +0.000 OA
ENDBRANCH   3   8
BRANCH   1  11
ATOM     11  C   UNL     1       1.702   9.405  18.916  0.00  0.00    +0.000 C 
BRANCH  11  12
ATOM     12  C   UNL     1       2.017   8.304  17.887  0.00  0.00    +0.000 C 
BRANCH  12  13
ATOM     13  C   UNL     1       2.513   7.063  18.587  0.00  0.00    +0.000 C 
ATOM     14  O   UNL     1       2.529   6.886  19.798  0.00  0.00    +0.000 OA
BRANCH  13  15
ATOM     15  O   UNL     1       2.933   6.137  17.658  0.00  0.00    +0.000 OA
BRANCH  15  16
ATOM     16  C   UNL     1       4.346   5.810  17.694  0.00  0.00    +0.000 C 
ATOM     17  C   UNL     1       4.991   6.468  16.477  0.00  0.00    +0.000 C 
BRANCH  16  19
ATOM     18  C   UNL     1       3.241   3.545  17.247  0.00  0.00    +0.000 C 
ATOM     19  C   UNL     1       4.498   4.282  17.681  0.00  0.00    +0.000 C 
ENDBRANCH  16  19
ENDBRANCH  15  16
ENDBRANCH  13  15
ENDBRANCH  12  13
ENDBRANCH  11  12
ENDBRANCH   1  11
BRANCH   4  20
ATOM     20  N   UNL     1      -0.875  13.362  21.183  0.00  0.00    +0.000 N 
BRANCH  20  21
ATOM     21  C   UNL     1       0.093  13.876  22.191  0.00  0.00    +0.000 C 
ATOM     22  C   UNL     1       0.659  15.259  21.895  0.00  0.00    +0.000 C 
ENDBRANCH  20  21
BRANCH  20  23
ATOM     23  C   UNL     1      -2.106  14.164  20.954  0.00  0.00    +0.000 C 
BRANCH  23  24
ATOM     24  C   UNL     1      -3.294  13.753  21.818  0.00  0.00    +0.000 A 
ATOM     25  C   UNL     1      -3.490  14.219  23.125  0.00  0.00    +0.000 A 
ATOM     26  C   UNL     1      -4.625  13.845  23.853  0.00  0.00    +0.000 A 
ATOM     27  C   UNL     1      -5.523  12.991  23.248  0.00  0.00    +0.000 A 
ATOM     28 CL   UNL     1      -6.971  12.527  24.038  0.00  0.00    +0.000 Cl
ATOM     29  N   UNL     1      -5.355  12.466  22.018  0.00  0.00    +0.000 NA
ATOM     30  C   UNL     1      -4.242  12.851  21.342  0.00  0.00    +0.000 A 
ENDBRANCH  23  24
ENDBRANCH  20  23
ENDBRANCH   4  20
TORSDOF 11
ENDMDL
MODEL 7
REMARK VINA RESULT:      -5.9      1.878      2.783
REMARK  Name = 
REMARK  15 active torsions:
REMARK  status: ('A' for Active; 'I' for Inactive)
REMARK    1  A    between atoms: C_1  and  C_2
REMARK    2  A    between atoms: C_2  and  C_3
REMARK    3  A    between atoms: C_3  and  C_4
REMARK    4  A    between atoms: C_3  and  O_5
REMARK    5  A    between atoms: O_5  and  C_6
REMARK    6  A    between atoms: C_6  and  C_8
REMARK    7  A    between atoms: C_8  and  C_9
REMARK    8  A    between atoms: C_9  and  N_10
REMARK    9  A    between atoms: C_12  and  N_13
REMARK   10  A    between atoms: C_16  and  N_17
REMARK   11  A    between atoms: N_17  and  C_18
REMARK   12  A    between atoms: N_17  and  C_20
REMARK   13  A    between atoms: C_18  and  C_19
REMARK   14  A    between atoms: C_20  and  C_21
REMARK   15  A    between atoms: N_28  and  C_29
REMARK                            x       y       z     vdW  Elec       q    Type
REMARK                         _______ _______ _______ _____ _____    ______ ____
ROOT
ATOM      1  N   UNL     1       1.866   8.623  19.044  0.00  0.00    +0.000 NA
ATOM      2  C   UNL     1       1.740   7.428  19.899  0.00  0.00    +0.000 C 
ATOM      3  C   UNL     1       2.344   6.137  19.409  0.00  0.00    +0.000 C 
ATOM      4  C   UNL     1       3.047   5.937  18.268  0.00  0.00    +0.000 C 
ATOM      5  N   UNL     1       3.263   7.112  17.509  0.00  0.00    +0.000 N 
ATOM      6  C   UNL     1       4.284   7.213  16.467  0.00  0.00    +0.000 C 
ATOM      7  C   UNL     1       2.977   8.433  18.108  0.00  0.00    +0.000 C 
ENDROOT
BRANCH   3   8
ATOM      8  N   UNL     1       2.180   5.074  20.362  0.00  0.00    +0.000 N 
ATOM      9  O   UNL     1       1.024   4.670  20.562  0.00  0.00    +0.000 OA
ATOM     10  O   UNL     1       3.178   4.718  21.005  0.00  0.00    +0.000 OA
ENDBRANCH   3   8
BRANCH   1  11
ATOM     11  C   UNL     1       0.631   9.046  18.360  0.00  0.00    +0.000 C 
BRANCH  11  12
ATOM     12  C   UNL     1       0.299  10.540  18.528  0.00  0.00    +0.000 C 
BRANCH  12  13
ATOM     13  C   UNL     1       0.979  11.090  19.758  0.00  0.00    +0.000 C 
ATOM     14  O   UNL     1       0.775  10.725  20.908  0.00  0.00    +0.000 OA
BRANCH  13  15
ATOM     15  O   UNL     1       1.889  12.059  19.397  0.00  0.00    +0.000 OA
BRANCH  15  16
ATOM     16  C   UNL     1       1.849  13.279  20.181  0.00  0.00    +0.000 C 
ATOM     17  C   UNL     1       0.541  13.989  19.843  0.00  0.00    +0.000 C 
BRANCH  16  19
ATOM     18  C   UNL     1       3.398  14.168  18.348  0.00  0.00    +0.000 C 
ATOM     19  C   UNL     1       3.082  14.127  19.835  0.00  0.00    +0.000 C 
ENDBRANCH  16  19
ENDBRANCH  15  16
ENDBRANCH  13  15
ENDBRANCH  12  13
ENDBRANCH  11  12
ENDBRANCH   1  11
BRANCH   4  20
ATOM     20  N   UNL     1       3.441   4.668  17.758  0.00  0.00    +0.000 N 
BRANCH  20  21
ATOM     21  C   UNL     1       2.398   3.720  17.275  0.00  0.00    +0.000 C 
ATOM     22  C   UNL     1       2.558   2.285  17.760  0.00  0.00    +0.000 C 
ENDBRANCH  20  21
BRANCH  20  23
ATOM     23  C   UNL     1       4.842   4.171  17.796  0.00  0.00    +0.000 C 
BRANCH  23  24
ATOM     24  C   UNL     1       5.621   4.382  16.502  0.00  0.00    +0.000 A 
ATOM     25  C   UNL     1       5.174   3.924  15.255  0.00  0.00    +0.000 A 
ATOM     26  C   UNL     1       5.909   4.188  14.094  0.00  0.00    +0.000 A 
ATOM     27  C   UNL     1       7.089   4.890  14.226  0.00  0.00    +0.000 A 
ATOM     28 CL   UNL     1       8.024   5.313  12.854  0.00  0.00    +0.000 Cl
ATOM     29  N   UNL     1       7.595   5.302  15.406  0.00  0.00    +0.000 NA
ATOM     30  C   UNL     1       6.855   5.027  16.511  0.00  0.00    +0.000 A 
ENDBRANCH  23  24
ENDBRANCH  20  23
ENDBRANCH   4  20
TORSDOF 11
ENDMDL
MODEL 8
REMARK VINA RESULT:      -5.9      1.536      2.424
REMARK  Name = 
REMARK  15 active torsions:
REMARK  status: ('A' for Active; 'I' for Inactive)
REMARK    1  A    between atoms: C_1  and  C_2
REMARK    2  A    between atoms: C_2  and  C_3
REMARK    3  A    between atoms: C_3  and  C_4
REMARK    4  A    between atoms: C_3  and  O_5
REMARK    5  A    between atoms: O_5  and  C_6
REMARK    6  A    between atoms: C_6  and  C_8
REMARK    7  A    between atoms: C_8  and  C_9
REMARK    8  A    between atoms: C_9  and  N_10
REMARK    9  A    between atoms: C_12  and  N_13
REMARK   10  A    between atoms: C_16  and  N_17
REMARK   11  A    between atoms: N_17  and  C_18
REMARK   12  A    between atoms: N_17  and  C_20
REMARK   13  A    between atoms: C_18  and  C_19
REMARK   14  A    between atoms: C_20  and  C_21
REMARK   15  A    between atoms: N_28  and  C_29
REMARK                            x       y       z     vdW  Elec       q    Type
REMARK                         _______ _______ _______ _____ _____    ______ ____
ROOT
ATOM      1  N   UNL     1       1.658   8.414  19.831  0.00  0.00    +0.000 NA
ATOM      2  C   UNL     1       1.515   7.135  20.550  0.00  0.00    +0.000 C 
ATOM      3  C   UNL     1       2.107   5.898  19.925  0.00  0.00    +0.000 C 
ATOM      4  C   UNL     1       2.813   5.815  18.772  0.00  0.00    +0.000 C 
ATOM      5  N   UNL     1       3.046   7.064  18.146  0.00  0.00    +0.000 N 
ATOM      6  C   UNL     1       4.074   7.266  17.125  0.00  0.00    +0.000 C 
ATOM      7  C   UNL     1       2.772   8.315  18.884  0.00  0.00    +0.000 C 
ENDROOT
BRANCH   3   8
ATOM      8  N   UNL     1       1.925   4.739  20.756  0.00  0.00    +0.000 N 
ATOM      9  O   UNL     1       2.894   4.380  21.441  0.00  0.00    +0.000 OA
ATOM     10  O   UNL     1       0.863   4.111  20.642  0.00  0.00    +0.000 OA
ENDBRANCH   3   8
BRANCH   1  11
ATOM     11  C   UNL     1       0.431   8.924  19.192  0.00  0.00    +0.000 C 
BRANCH  11  12
ATOM     12  C   UNL     1       0.560  10.353  18.634  0.00  0.00    +0.000 C 
BRANCH  12  13
ATOM     13  C   UNL     1      -0.658  11.166  18.995  0.00  0.00    +0.000 C 
ATOM     14  O   UNL     1      -1.820  10.836  18.796  0.00  0.00    +0.000 OA
BRANCH  13  15
ATOM     15  O   UNL     1      -0.275  12.339  19.608  0.00  0.00    +0.000 OA
BRANCH  15  16
ATOM     16  C   UNL     1       1.096  12.750  19.372  0.00  0.00    +0.000 C 
ATOM     17  C   UNL     1       1.761  12.902  20.738  0.00  0.00    +0.000 C 
BRANCH  16  19
ATOM     18  C   UNL     1      -0.143  14.923  18.830  0.00  0.00    +0.000 C 
ATOM     19  C   UNL     1       1.086  14.064  18.577  0.00  0.00    +0.000 C 
ENDBRANCH  16  19
ENDBRANCH  15  16
ENDBRANCH  13  15
ENDBRANCH  12  13
ENDBRANCH  11  12
ENDBRANCH   1  11
BRANCH   4  20
ATOM     20  N   UNL     1       3.195   4.605  18.127  0.00  0.00    +0.000 N 
BRANCH  20  21
ATOM     21  C   UNL     1       2.151   3.761  17.483  0.00  0.00    +0.000 C 
ATOM     22  C   UNL     1       2.213   2.279  17.833  0.00  0.00    +0.000 C 
ENDBRANCH  20  21
BRANCH  20  23
ATOM     23  C   UNL     1       4.578   4.058  18.171  0.00  0.00    +0.000 C 
BRANCH  23  24
ATOM     24  C   UNL     1       5.385   4.284  16.897  0.00  0.00    +0.000 A 
ATOM     25  C   UNL     1       4.852   4.114  15.611  0.00  0.00    +0.000 A 
ATOM     26  C   UNL     1       5.628   4.382  14.477  0.00  0.00    +0.000 A 
ATOM     27  C   UNL     1       6.929   4.795  14.672  0.00  0.00    +0.000 A 
ATOM     28 CL   UNL     1       7.935   5.204  13.346  0.00  0.00    +0.000 Cl
ATOM     29  N   UNL     1       7.510   4.917  15.883  0.00  0.00    +0.000 NA
ATOM     30  C   UNL     1       6.728   4.648  16.960  0.00  0.00    +0.000 A 
ENDBRANCH  23  24
ENDBRANCH  20  23
ENDBRANCH   4  20
TORSDOF 11
ENDMDL
MODEL 9
REMARK VINA RESULT:      -5.9      0.928      1.369
REMARK  Name = 
REMARK  15 active torsions:
REMARK  status: ('A' for Active; 'I' for Inactive)
REMARK    1  A    between atoms: C_1  and  C_2
REMARK    2  A    between atoms: C_2  and  C_3
REMARK    3  A    between atoms: C_3  and  C_4
REMARK    4  A    between atoms: C_3  and  O_5
REMARK    5  A    between atoms: O_5  and  C_6
REMARK    6  A    between atoms: C_6  and  C_8
REMARK    7  A    between atoms: C_8  and  C_9
REMARK    8  A    between atoms: C_9  and  N_10
REMARK    9  A    between atoms: C_12  and  N_13
REMARK   10  A    between atoms: C_16  and  N_17
REMARK   11  A    between atoms: N_17  and  C_18
REMARK   12  A    between atoms: N_17  and  C_20
REMARK   13  A    between atoms: C_18  and  C_19
REMARK   14  A    between atoms: C_20  and  C_21
REMARK   15  A    between atoms: N_28  and  C_29
REMARK                            x       y       z     vdW  Elec       q    Type
REMARK                         _______ _______ _______ _____ _____    ______ ____
ROOT
ATOM      1  N   UNL     1       1.339   8.251  20.299  0.00  0.00    +0.000 NA
ATOM      2  C   UNL     1       1.309   6.911  20.915  0.00  0.00    +0.000 C 
ATOM      3  C   UNL     1       1.988   5.779  20.188  0.00  0.00    +0.000 C 
ATOM      4  C   UNL     1       2.682   5.845  19.026  0.00  0.00    +0.000 C 
ATOM      5  N   UNL     1       2.805   7.154  18.500  0.00  0.00    +0.000 N 
ATOM      6  C   UNL     1       3.799   7.517  17.490  0.00  0.00    +0.000 C 
ATOM      7  C   UNL     1       2.444   8.316  19.338  0.00  0.00    +0.000 C 
ENDROOT
BRANCH   3   8
ATOM      8  N   UNL     1       1.912   4.548  20.925  0.00  0.00    +0.000 N 
ATOM      9  O   UNL     1       0.931   3.821  20.707  0.00  0.00    +0.000 OA
ATOM     10  O   UNL     1       2.758   4.354  21.810  0.00  0.00    +0.000 OA
ENDBRANCH   3   8
BRANCH   1  11
ATOM     11  C   UNL     1       0.067   8.709  19.713  0.00  0.00    +0.000 C 
BRANCH  11  12
ATOM     12  C   UNL     1      -0.244  10.196  19.969  0.00  0.00    +0.000 C 
BRANCH  12  13
ATOM     13  C   UNL     1      -0.468  10.914  18.662  0.00  0.00    +0.000 C 
ATOM     14  O   UNL     1      -0.219  12.091  18.443  0.00  0.00    +0.000 OA
BRANCH  13  15
ATOM     15  O   UNL     1      -0.981  10.039  17.728  0.00  0.00    +0.000 OA
BRANCH  15  16
ATOM     16  C   UNL     1      -2.404  10.160  17.472  0.00  0.00    +0.000 C 
ATOM     17  C   UNL     1      -2.602  10.032  15.964  0.00  0.00    +0.000 C 
BRANCH  16  19
ATOM     18  C   UNL     1      -4.365  11.536  18.374  0.00  0.00    +0.000 C 
ATOM     19  C   UNL     1      -2.888  11.513  18.013  0.00  0.00    +0.000 C 
ENDBRANCH  16  19
ENDBRANCH  15  16
ENDBRANCH  13  15
ENDBRANCH  12  13
ENDBRANCH  11  12
ENDBRANCH   1  11
BRANCH   4  20
ATOM     20  N   UNL     1       3.149   4.724  18.284  0.00  0.00    +0.000 N 
BRANCH  20  21
ATOM     21  C   UNL     1       2.182   3.928  17.478  0.00  0.00    +0.000 C 
ATOM     22  C   UNL     1       2.228   2.424  17.718  0.00  0.00    +0.000 C 
ENDBRANCH  20  21
BRANCH  20  23
ATOM     23  C   UNL     1       4.544   4.213  18.368  0.00  0.00    +0.000 C 
BRANCH  23  24
ATOM     24  C   UNL     1       5.367   4.417  17.100  0.00  0.00    +0.000 A 
ATOM     25  C   UNL     1       5.159   3.682  15.925  0.00  0.00    +0.000 A 
ATOM     26  C   UNL     1       5.914   3.945  14.777  0.00  0.00    +0.000 A 
ATOM     27  C   UNL     1       6.875   4.931  14.852  0.00  0.00    +0.000 A 
ATOM     28 CL   UNL     1       7.807   5.365  13.481  0.00  0.00    +0.000 Cl
ATOM     29  N   UNL     1       7.158   5.626  15.972  0.00  0.00    +0.000 NA
ATOM     30  C   UNL     1       6.406   5.343  17.067  0.00  0.00    +0.000 A 
ENDBRANCH  23  24
ENDBRANCH  20  23
ENDBRANCH   4  20
TORSDOF 11
ENDMDL
