MODEL 1
REMARK VINA RESULT:      -7.3      0.000      0.000
REMARK  Name = 
REMARK  10 active torsions:
REMARK  status: ('A' for Active; 'I' for Inactive)
REMARK    1  A    between atoms: C_1  and  C_2
REMARK    2  A    between atoms: C_2  and  C_3
REMARK    3  A    between atoms: C_3  and  C_4
REMARK    4  A    between atoms: C_4  and  N_5
REMARK    5  A    between atoms: N_8  and  C_9
REMARK    6  A    between atoms: C_9  and  C_10
REMARK    7  A    between atoms: N_12  and  C_13
REMARK    8  A    between atoms: C_13  and  C_14
REMARK    9  A    between atoms: C_13  and  C_15
REMARK   10  A    between atoms: C_13  and  C_16
REMARK                            x       y       z     vdW  Elec       q    Type
REMARK                         _______ _______ _______ _____ _____    ______ ____
ROOT
ATOM      1  N   UNL     1       3.733   4.235  17.865  0.00  0.00    +0.000 N 
ATOM      2  C   UNL     1       4.717   3.819  16.967  0.00  0.00    +0.000 A 
ATOM      3  O   UNL     1       4.781   2.657  16.558  0.00  0.00    +0.000 OA
ATOM      4  N   UNL     1       5.642   4.770  16.576  0.00  0.00    +0.000 N 
ATOM      5  C   UNL     1       5.484   6.129  16.761  0.00  0.00    +0.000 A 
ATOM      6  O   UNL     1       6.306   6.971  16.411  0.00  0.00    +0.000 OA
ATOM      7  C   UNL     1       4.215   6.565  17.382  0.00  0.00    +0.000 A 
ATOM      8  C   UNL     1       3.869   7.927  17.365  0.00  0.00    +0.000 A 
ATOM      9  C   UNL     1       2.677   8.350  17.945  0.00  0.00    +0.000 A 
ATOM     10  C   UNL     1       1.854   7.421  18.569  0.00  0.00    +0.000 A 
ATOM     11  C   UNL     1       2.207   6.064  18.591  0.00  0.00    +0.000 A 
ATOM     12  C   UNL     1       3.384   5.611  17.973  0.00  0.00    +0.000 A 
ENDROOT
BRANCH   1  13
ATOM     13  C   UNL     1       3.023   3.187  18.600  0.00  0.00    +0.000 C 
BRANCH  13  14
ATOM     14  C   UNL     1       3.595   2.937  20.011  0.00  0.00    +0.000 C 
BRANCH  14  16
ATOM     15  C   UNL     1       1.128   3.056  20.505  0.00  0.00    +0.000 C 
ATOM     16  C   UNL     1       2.524   2.982  21.104  0.00  0.00    +0.000 C 
ENDBRANCH  14  16
ENDBRANCH  13  14
ENDBRANCH   1  13
BRANCH   4  17
ATOM     17  C   UNL     1       6.853   4.282  15.926  0.00  0.00    +0.000 C 
BRANCH  17  18
ATOM     18  C   UNL     1       6.784   4.458  14.396  0.00  0.00    +0.000 C 
ATOM     19  O   UNL     1       7.139   5.484  13.821  0.00  0.00    +0.000 OA
ATOM     20  N   UNL     1       6.274   3.348  13.734  0.00  0.00    +0.000 N 
ATOM     21  H   UNL     1       6.100   2.514  14.282  0.00  0.00    +0.000 HD
BRANCH  20  22
ATOM     22  C   UNL     1       6.059   3.255  12.277  0.00  0.00    +0.000 C 
ATOM     23  C   UNL     1       4.663   3.763  11.882  0.00  0.00    +0.000 C 
ATOM     24  C   UNL     1       7.104   4.139  11.568  0.00  0.00    +0.000 C 
ATOM     25  C   UNL     1       6.254   1.811  11.782  0.00  0.00    +0.000 C 
ENDBRANCH  20  22
ENDBRANCH  17  18
ENDBRANCH   4  17
TORSDOF 6
ENDMDL
MODEL 2
REMARK VINA RESULT:      -7.3      0.493      1.199
REMARK  Name = 
REMARK  10 active torsions:
REMARK  status: ('A' for Active; 'I' for Inactive)
REMARK    1  A    between atoms: C_1  and  C_2
REMARK    2  A    between atoms: C_2  and  C_3
REMARK    3  A    between atoms: C_3  and  C_4
REMARK    4  A    between atoms: C_4  and  N_5
REMARK    5  A    between atoms: N_8  and  C_9
REMARK    6  A    between atoms: C_9  and  C_10
REMARK    7  A    between atoms: N_12  and  C_13
REMARK    8  A    between atoms: C_13  and  C_14
REMARK    9  A    between atoms: C_13  and  C_15
REMARK   10  A    between atoms: C_13  and  C_16
REMARK                            x       y       z     vdW  Elec       q    Type
REMARK                         _______ _______ _______ _____ _____    ______ ____
ROOT
ATOM      1  N   UNL     1       3.984   4.208  17.889  0.00  0.00    +0.000 N 
ATOM      2  C   UNL     1       4.969   3.837  16.972  0.00  0.00    +0.000 A 
ATOM      3  O   UNL     1       5.092   2.675  16.578  0.00  0.00    +0.000 OA
ATOM      4  N   UNL     1       5.826   4.835  16.544  0.00  0.00    +0.000 N 
ATOM      5  C   UNL     1       5.591   6.185  16.715  0.00  0.00    +0.000 A 
ATOM      6  O   UNL     1       6.352   7.069  16.333  0.00  0.00    +0.000 OA
ATOM      7  C   UNL     1       4.315   6.554  17.362  0.00  0.00    +0.000 A 
ATOM      8  C   UNL     1       3.888   7.893  17.335  0.00  0.00    +0.000 A 
ATOM      9  C   UNL     1       2.687   8.254  17.940  0.00  0.00    +0.000 A 
ATOM     10  C   UNL     1       1.937   7.287  18.599  0.00  0.00    +0.000 A 
ATOM     11  C   UNL     1       2.371   5.953  18.630  0.00  0.00    +0.000 A 
ATOM     12  C   UNL     1       3.557   5.562  17.988  0.00  0.00    +0.000 A 
ENDROOT
BRANCH   1  13
ATOM     13  C   UNL     1       3.357   3.130  18.657  0.00  0.00    +0.000 C 
BRANCH  13  14
ATOM     14  C   UNL     1       2.139   2.504  17.947  0.00  0.00    +0.000 C 
BRANCH  14  16
ATOM     15  C   UNL     1       1.148   2.789  20.245  0.00  0.00    +0.000 C 
ATOM     16  C   UNL     1       0.849   2.619  18.763  0.00  0.00    +0.000 C 
ENDBRANCH  14  16
ENDBRANCH  13  14
ENDBRANCH   1  13
BRANCH   4  17
ATOM     17  C   UNL     1       7.047   4.410  15.870  0.00  0.00    +0.000 C 
BRANCH  17  18
ATOM     18  C   UNL     1       6.925   4.547  14.340  0.00  0.00    +0.000 C 
ATOM     19  O   UNL     1       7.271   5.552  13.724  0.00  0.00    +0.000 OA
ATOM     20  N   UNL     1       6.378   3.426  13.726  0.00  0.00    +0.000 N 
ATOM     21  H   UNL     1       6.214   2.609  14.302  0.00  0.00    +0.000 HD
BRANCH  20  22
ATOM     22  C   UNL     1       6.109   3.296  12.281  0.00  0.00    +0.000 C 
ATOM     23  C   UNL     1       6.212   1.834  11.819  0.00  0.00    +0.000 C 
ATOM     24  C   UNL     1       4.672   3.781  12.003  0.00  0.00    +0.000 C 
ATOM     25  C   UNL     1       7.066   4.178  11.461  0.00  0.00    +0.000 C 
ENDBRANCH  20  22
ENDBRANCH  17  18
ENDBRANCH   4  17
TORSDOF 6
ENDMDL
MODEL 3
REMARK VINA RESULT:      -6.9      1.187      3.642
REMARK  Name = 
REMARK  10 active torsions:
REMARK  status: ('A' for Active; 'I' for Inactive)
REMARK    1  A    between atoms: C_1  and  C_2
REMARK    2  A    between atoms: C_2  and  C_3
REMARK    3  A    between atoms: C_3  and  C_4
REMARK    4  A    between atoms: C_4  and  N_5
REMARK    5  A    between atoms: N_8  and  C_9
REMARK    6  A    between atoms: C_9  and  C_10
REMARK    7  A    between atoms: N_12  and  C_13
REMARK    8  A    between atoms: C_13  and  C_14
REMARK    9  A    between atoms: C_13  and  C_15
REMARK   10  A    between atoms: C_13  and  C_16
REMARK                            x       y       z     vdW  Elec       q    Type
REMARK                         _______ _______ _______ _____ _____    ______ ____
ROOT
ATOM      1  N   UNL     1       3.715   5.687  18.265  0.00  0.00    +0.000 N 
ATOM      2  C   UNL     1       5.018   5.485  17.809  0.00  0.00    +0.000 A 
ATOM      3  O   UNL     1       5.910   6.317  17.987  0.00  0.00    +0.000 OA
ATOM      4  N   UNL     1       5.258   4.312  17.116  0.00  0.00    +0.000 N 
ATOM      5  C   UNL     1       4.407   3.225  17.113  0.00  0.00    +0.000 A 
ATOM      6  O   UNL     1       4.623   2.184  16.499  0.00  0.00    +0.000 OA
ATOM      7  C   UNL     1       3.192   3.338  17.946  0.00  0.00    +0.000 A 
ATOM      8  C   UNL     1       2.419   2.193  18.201  0.00  0.00    +0.000 A 
ATOM      9  C   UNL     1       1.273   2.286  18.986  0.00  0.00    +0.000 A 
ATOM     10  C   UNL     1       0.883   3.524  19.482  0.00  0.00    +0.000 A 
ATOM     11  C   UNL     1       1.653   4.667  19.218  0.00  0.00    +0.000 A 
ATOM     12  C   UNL     1       2.837   4.585  18.465  0.00  0.00    +0.000 A 
ENDROOT
BRANCH   1  13
ATOM     13  C   UNL     1       3.342   7.059  18.615  0.00  0.00    +0.000 C 
BRANCH  13  14
ATOM     14  C   UNL     1       2.742   7.849  17.434  0.00  0.00    +0.000 C 
BRANCH  14  16
ATOM     15  C   UNL     1       1.451   8.918  19.313  0.00  0.00    +0.000 C 
ATOM     16  C   UNL     1       1.940   9.074  17.881  0.00  0.00    +0.000 C 
ENDBRANCH  14  16
ENDBRANCH  13  14
ENDBRANCH   1  13
BRANCH   4  17
ATOM     17  C   UNL     1       6.497   4.242  16.349  0.00  0.00    +0.000 C 
BRANCH  17  18
ATOM     18  C   UNL     1       6.263   4.584  14.865  0.00  0.00    +0.000 C 
ATOM     19  O   UNL     1       5.990   5.715  14.470  0.00  0.00    +0.000 OA
ATOM     20  N   UNL     1       6.382   3.487  14.020  0.00  0.00    +0.000 N 
ATOM     21  H   UNL     1       6.705   2.617  14.423  0.00  0.00    +0.000 HD
BRANCH  20  22
ATOM     22  C   UNL     1       6.171   3.515  12.559  0.00  0.00    +0.000 C 
ATOM     23  C   UNL     1       7.112   4.519  11.874  0.00  0.00    +0.000 C 
ATOM     24  C   UNL     1       6.476   2.115  11.991  0.00  0.00    +0.000 C 
ATOM     25  C   UNL     1       4.708   3.849  12.220  0.00  0.00    +0.000 C 
ENDBRANCH  20  22
ENDBRANCH  17  18
ENDBRANCH   4  17
TORSDOF 6
ENDMDL
MODEL 4
REMARK VINA RESULT:      -6.8      1.193      3.636
REMARK  Name = 
REMARK  10 active torsions:
REMARK  status: ('A' for Active; 'I' for Inactive)
REMARK    1  A    between atoms: C_1  and  C_2
REMARK    2  A    between atoms: C_2  and  C_3
REMARK    3  A    between atoms: C_3  and  C_4
REMARK    4  A    between atoms: C_4  and  N_5
REMARK    5  A    between atoms: N_8  and  C_9
REMARK    6  A    between atoms: C_9  and  C_10
REMARK    7  A    between atoms: N_12  and  C_13
REMARK    8  A    between atoms: C_13  and  C_14
REMARK    9  A    between atoms: C_13  and  C_15
REMARK   10  A    between atoms: C_13  and  C_16
REMARK                            x       y       z     vdW  Elec       q    Type
REMARK                         _______ _______ _______ _____ _____    ______ ____
ROOT
ATOM      1  N   UNL     1       3.832   5.780  18.433  0.00  0.00    +0.000 N 
ATOM      2  C   UNL     1       5.039   5.381  17.855  0.00  0.00    +0.000 A 
ATOM      3  O   UNL     1       6.031   6.113  17.841  0.00  0.00    +0.000 OA
ATOM      4  N   UNL     1       5.061   4.128  17.269  0.00  0.00    +0.000 N 
ATOM      5  C   UNL     1       4.104   3.156  17.478  0.00  0.00    +0.000 A 
ATOM      6  O   UNL     1       4.127   2.044  16.958  0.00  0.00    +0.000 OA
ATOM      7  C   UNL     1       3.022   3.492  18.428  0.00  0.00    +0.000 A 
ATOM      8  C   UNL     1       2.168   2.476  18.890  0.00  0.00    +0.000 A 
ATOM      9  C   UNL     1       1.146   2.779  19.786  0.00  0.00    +0.000 A 
ATOM     10  C   UNL     1       0.959   4.096  20.188  0.00  0.00    +0.000 A 
ATOM     11  C   UNL     1       1.809   5.108  19.718  0.00  0.00    +0.000 A 
ATOM     12  C   UNL     1       2.872   4.815  18.848  0.00  0.00    +0.000 A 
ENDROOT
BRANCH   1  13
ATOM     13  C   UNL     1       3.658   7.214  18.675  0.00  0.00    +0.000 C 
BRANCH  13  14
ATOM     14  C   UNL     1       3.016   7.960  17.487  0.00  0.00    +0.000 C 
BRANCH  14  16
ATOM     15  C   UNL     1       1.666   9.991  18.117  0.00  0.00    +0.000 C 
ATOM     16  C   UNL     1       1.621   8.502  17.806  0.00  0.00    +0.000 C 
ENDBRANCH  14  16
ENDBRANCH  13  14
ENDBRANCH   1  13
BRANCH   4  17
ATOM     17  C   UNL     1       6.179   3.839  16.377  0.00  0.00    +0.000 C 
BRANCH  17  18
ATOM     18  C   UNL     1       5.854   4.223  14.921  0.00  0.00    +0.000 C 
ATOM     19  O   UNL     1       5.201   5.219  14.617  0.00  0.00    +0.000 OA
ATOM     20  N   UNL     1       6.366   3.330  13.986  0.00  0.00    +0.000 N 
ATOM     21  H   UNL     1       6.973   2.594  14.325  0.00  0.00    +0.000 HD
BRANCH  20  22
ATOM     22  C   UNL     1       6.174   3.428  12.526  0.00  0.00    +0.000 C 
ATOM     23  C   UNL     1       4.713   3.752  12.172  0.00  0.00    +0.000 C 
ATOM     24  C   UNL     1       7.057   4.573  11.990  0.00  0.00    +0.000 C 
ATOM     25  C   UNL     1       6.611   2.131  11.825  0.00  0.00    +0.000 C 
ENDBRANCH  20  22
ENDBRANCH  17  18
ENDBRANCH   4  17
TORSDOF 6
ENDMDL
MODEL 5
REMARK VINA RESULT:      -6.7      4.406      7.250
REMARK  Name = 
REMARK  10 active torsions:
REMARK  status: ('A' for Active; 'I' for Inactive)
REMARK    1  A    between atoms: C_1  and  C_2
REMARK    2  A    between atoms: C_2  and  C_3
REMARK    3  A    between atoms: C_3  and  C_4
REMARK    4  A    between atoms: C_4  and  N_5
REMARK    5  A    between atoms: N_8  and  C_9
REMARK    6  A    between atoms: C_9  and  C_10
REMARK    7  A    between atoms: N_12  and  C_13
REMARK    8  A    between atoms: C_13  and  C_14
REMARK    9  A    between atoms: C_13  and  C_15
REMARK   10  A    between atoms: C_13  and  C_16
REMARK                            x       y       z     vdW  Elec       q    Type
REMARK                         _______ _______ _______ _____ _____    ______ ____
ROOT
ATOM      1  N   UNL     1       0.488   9.839  18.904  0.00  0.00    +0.000 N 
ATOM      2  C   UNL     1       1.568   9.124  18.384  0.00  0.00    +0.000 A 
ATOM      3  O   UNL     1       2.096   9.424  17.311  0.00  0.00    +0.000 OA
ATOM      4  N   UNL     1       2.005   8.038  19.120  0.00  0.00    +0.000 N 
ATOM      5  C   UNL     1       1.662   7.804  20.437  0.00  0.00    +0.000 A 
ATOM      6  O   UNL     1       2.052   6.840  21.089  0.00  0.00    +0.000 OA
ATOM      7  C   UNL     1       0.806   8.821  21.084  0.00  0.00    +0.000 A 
ATOM      8  C   UNL     1       0.632   8.792  22.478  0.00  0.00    +0.000 A 
ATOM      9  C   UNL     1      -0.170   9.744  23.100  0.00  0.00    +0.000 A 
ATOM     10  C   UNL     1      -0.822  10.698  22.328  0.00  0.00    +0.000 A 
ATOM     11  C   UNL     1      -0.651  10.719  20.935  0.00  0.00    +0.000 A 
ATOM     12  C   UNL     1       0.189   9.793  20.295  0.00  0.00    +0.000 A 
ENDROOT
BRANCH   1  13
ATOM     13  C   UNL     1      -0.243  10.702  17.973  0.00  0.00    +0.000 C 
BRANCH  13  14
ATOM     14  C   UNL     1      -1.454  10.006  17.319  0.00  0.00    +0.000 C 
BRANCH  14  16
ATOM     15  C   UNL     1      -3.300  10.387  15.648  0.00  0.00    +0.000 C 
ATOM     16  C   UNL     1      -2.493  10.995  16.785  0.00  0.00    +0.000 C 
ENDBRANCH  14  16
ENDBRANCH  13  14
ENDBRANCH   1  13
BRANCH   4  17
ATOM     17  C   UNL     1       2.885   7.094  18.441  0.00  0.00    +0.000 C 
BRANCH  17  18
ATOM     18  C   UNL     1       2.258   5.688  18.370  0.00  0.00    +0.000 C 
ATOM     19  O   UNL     1       1.323   5.405  17.624  0.00  0.00    +0.000 OA
ATOM     20  N   UNL     1       2.848   4.774  19.235  0.00  0.00    +0.000 N 
ATOM     21  H   UNL     1       3.674   5.072  19.739  0.00  0.00    +0.000 HD
BRANCH  20  22
ATOM     22  C   UNL     1       2.424   3.371  19.405  0.00  0.00    +0.000 C 
ATOM     23  C   UNL     1       3.366   2.610  20.353  0.00  0.00    +0.000 C 
ATOM     24  C   UNL     1       1.012   3.356  20.027  0.00  0.00    +0.000 C 
ATOM     25  C   UNL     1       2.345   2.651  18.049  0.00  0.00    +0.000 C 
ENDBRANCH  20  22
ENDBRANCH  17  18
ENDBRANCH   4  17
TORSDOF 6
ENDMDL
MODEL 6
REMARK VINA RESULT:      -6.6      4.314      7.754
REMARK  Name = 
REMARK  10 active torsions:
REMARK  status: ('A' for Active; 'I' for Inactive)
REMARK    1  A    between atoms: C_1  and  C_2
REMARK    2  A    between atoms: C_2  and  C_3
REMARK    3  A    between atoms: C_3  and  C_4
REMARK    4  A    between atoms: C_4  and  N_5
REMARK    5  A    between atoms: N_8  and  C_9
REMARK    6  A    between atoms: C_9  and  C_10
REMARK    7  A    between atoms: N_12  and  C_13
REMARK    8  A    between atoms: C_13  and  C_14
REMARK    9  A    between atoms: C_13  and  C_15
REMARK   10  A    between atoms: C_13  and  C_16
REMARK                            x       y       z     vdW  Elec       q    Type
REMARK                         _______ _______ _______ _____ _____    ______ ____
ROOT
ATOM      1  N   UNL     1       2.141   6.566  20.071  0.00  0.00    +0.000 N 
ATOM      2  C   UNL     1       1.476   7.749  20.397  0.00  0.00    +0.000 A 
ATOM      3  O   UNL     1       1.002   7.946  21.518  0.00  0.00    +0.000 OA
ATOM      4  N   UNL     1       1.348   8.687  19.387  0.00  0.00    +0.000 N 
ATOM      5  C   UNL     1       2.074   8.667  18.214  0.00  0.00    +0.000 A 
ATOM      6  O   UNL     1       1.959   9.502  17.320  0.00  0.00    +0.000 OA
ATOM      7  C   UNL     1       3.073   7.587  18.075  0.00  0.00    +0.000 A 
ATOM      8  C   UNL     1       4.022   7.651  17.040  0.00  0.00    +0.000 A 
ATOM      9  C   UNL     1       4.969   6.640  16.900  0.00  0.00    +0.000 A 
ATOM     10  C   UNL     1       4.943   5.555  17.768  0.00  0.00    +0.000 A 
ATOM     11  C   UNL     1       3.989   5.492  18.795  0.00  0.00    +0.000 A 
ATOM     12  C   UNL     1       3.053   6.523  18.979  0.00  0.00    +0.000 A 
ENDROOT
BRANCH   1  13
ATOM     13  C   UNL     1       1.927   5.422  20.959  0.00  0.00    +0.000 C 
BRANCH  13  14
ATOM     14  C   UNL     1       0.919   4.396  20.400  0.00  0.00    +0.000 C 
BRANCH  14  16
ATOM     15  C   UNL     1       2.256   2.691  21.684  0.00  0.00    +0.000 C 
ATOM     16  C   UNL     1       1.455   2.962  20.420  0.00  0.00    +0.000 C 
ENDBRANCH  14  16
ENDBRANCH  13  14
ENDBRANCH   1  13
BRANCH   4  17
ATOM     17  C   UNL     1       0.380   9.756  19.602  0.00  0.00    +0.000 C 
BRANCH  17  18
ATOM     18  C   UNL     1       1.061  11.042  20.111  0.00  0.00    +0.000 C 
ATOM     19  O   UNL     1       1.364  11.222  21.288  0.00  0.00    +0.000 OA
ATOM     20  N   UNL     1       1.291  11.979  19.111  0.00  0.00    +0.000 N 
ATOM     21  H   UNL     1       1.097  11.703  18.156  0.00  0.00    +0.000 HD
BRANCH  20  22
ATOM     22  C   UNL     1       1.889  13.312  19.319  0.00  0.00    +0.000 C 
ATOM     23  C   UNL     1       2.540  13.425  20.707  0.00  0.00    +0.000 C 
ATOM     24  C   UNL     1       2.990  13.527  18.261  0.00  0.00    +0.000 C 
ATOM     25  C   UNL     1       0.841  14.422  19.135  0.00  0.00    +0.000 C 
ENDBRANCH  20  22
ENDBRANCH  17  18
ENDBRANCH   4  17
TORSDOF 6
ENDMDL
MODEL 7
REMARK VINA RESULT:      -6.6      4.347      7.132
REMARK  Name = 
REMARK  10 active torsions:
REMARK  status: ('A' for Active; 'I' for Inactive)
REMARK    1  A    between atoms: C_1  and  C_2
REMARK    2  A    between atoms: C_2  and  C_3
REMARK    3  A    between atoms: C_3  and  C_4
REMARK    4  A    between atoms: C_4  and  N_5
REMARK    5  A    between atoms: N_8  and  C_9
REMARK    6  A    between atoms: C_9  and  C_10
REMARK    7  A    between atoms: N_12  and  C_13
REMARK    8  A    between atoms: C_13  and  C_14
REMARK    9  A    between atoms: C_13  and  C_15
REMARK   10  A    between atoms: C_13  and  C_16
REMARK                            x       y       z     vdW  Elec       q    Type
REMARK                         _______ _______ _______ _____ _____    ______ ____
ROOT
ATOM      1  N   UNL     1       0.440   9.748  18.931  0.00  0.00    +0.000 N 
ATOM      2  C   UNL     1       1.521   9.051  18.390  0.00  0.00    +0.000 A 
ATOM      3  O   UNL     1       2.008   9.345  17.296  0.00  0.00    +0.000 OA
ATOM      4  N   UNL     1       2.008   7.989  19.131  0.00  0.00    +0.000 N 
ATOM      5  C   UNL     1       1.712   7.770  20.461  0.00  0.00    +0.000 A 
ATOM      6  O   UNL     1       2.146   6.827  21.116  0.00  0.00    +0.000 OA
ATOM      7  C   UNL     1       0.851   8.776  21.118  0.00  0.00    +0.000 A 
ATOM      8  C   UNL     1       0.720   8.767  22.517  0.00  0.00    +0.000 A 
ATOM      9  C   UNL     1      -0.086   9.710  23.148  0.00  0.00    +0.000 A 
ATOM     10  C   UNL     1      -0.786  10.633  22.380  0.00  0.00    +0.000 A 
ATOM     11  C   UNL     1      -0.659  10.634  20.983  0.00  0.00    +0.000 A 
ATOM     12  C   UNL     1       0.184   9.718  20.332  0.00  0.00    +0.000 A 
ENDROOT
BRANCH   1  13
ATOM     13  C   UNL     1      -0.341  10.576  18.010  0.00  0.00    +0.000 C 
BRANCH  13  14
ATOM     14  C   UNL     1      -1.478   9.803  17.310  0.00  0.00    +0.000 C 
BRANCH  14  16
ATOM     15  C   UNL     1      -2.753  11.704  18.362  0.00  0.00    +0.000 C 
ATOM     16  C   UNL     1      -2.860  10.406  17.576  0.00  0.00    +0.000 C 
ENDBRANCH  14  16
ENDBRANCH  13  14
ENDBRANCH   1  13
BRANCH   4  17
ATOM     17  C   UNL     1       2.891   7.056  18.440  0.00  0.00    +0.000 C 
BRANCH  17  18
ATOM     18  C   UNL     1       2.275   5.644  18.368  0.00  0.00    +0.000 C 
ATOM     19  O   UNL     1       1.323   5.362  17.644  0.00  0.00    +0.000 OA
ATOM     20  N   UNL     1       2.897   4.726  19.205  0.00  0.00    +0.000 N 
ATOM     21  H   UNL     1       3.734   5.026  19.690  0.00  0.00    +0.000 HD
BRANCH  20  22
ATOM     22  C   UNL     1       2.491   3.317  19.369  0.00  0.00    +0.000 C 
ATOM     23  C   UNL     1       1.074   3.204  19.954  0.00  0.00    +0.000 C 
ATOM     24  C   UNL     1       2.487   2.642  17.982  0.00  0.00    +0.000 C 
ATOM     25  C   UNL     1       3.490   2.555  20.256  0.00  0.00    +0.000 C 
ENDBRANCH  20  22
ENDBRANCH  17  18
ENDBRANCH   4  17
TORSDOF 6
ENDMDL
MODEL 8
REMARK VINA RESULT:      -6.5      4.393      7.967
REMARK  Name = 
REMARK  10 active torsions:
REMARK  status: ('A' for Active; 'I' for Inactive)
REMARK    1  A    between atoms: C_1  and  C_2
REMARK    2  A    between atoms: C_2  and  C_3
REMARK    3  A    between atoms: C_3  and  C_4
REMARK    4  A    between atoms: C_4  and  N_5
REMARK    5  A    between atoms: N_8  and  C_9
REMARK    6  A    between atoms: C_9  and  C_10
REMARK    7  A    between atoms: N_12  and  C_13
REMARK    8  A    between atoms: C_13  and  C_14
REMARK    9  A    between atoms: C_13  and  C_15
REMARK   10  A    between atoms: C_13  and  C_16
REMARK                            x       y       z     vdW  Elec       q    Type
REMARK                         _______ _______ _______ _____ _____    ______ ____
ROOT
ATOM      1  N   UNL     1       2.090   6.560  20.129  0.00  0.00    +0.000 N 
ATOM      2  C   UNL     1       1.403   7.716  20.503  0.00  0.00    +0.000 A 
ATOM      3  O   UNL     1       0.947   7.867  21.638  0.00  0.00    +0.000 OA
ATOM      4  N   UNL     1       1.232   8.679  19.525  0.00  0.00    +0.000 N 
ATOM      5  C   UNL     1       1.934   8.713  18.338  0.00  0.00    +0.000 A 
ATOM      6  O   UNL     1       1.781   9.570  17.472  0.00  0.00    +0.000 OA
ATOM      7  C   UNL     1       2.956   7.663  18.148  0.00  0.00    +0.000 A 
ATOM      8  C   UNL     1       3.882   7.781  17.097  0.00  0.00    +0.000 A 
ATOM      9  C   UNL     1       4.851   6.800  16.908  0.00  0.00    +0.000 A 
ATOM     10  C   UNL     1       4.870   5.689  17.743  0.00  0.00    +0.000 A 
ATOM     11  C   UNL     1       3.938   5.571  18.786  0.00  0.00    +0.000 A 
ATOM     12  C   UNL     1       2.981   6.572  19.019  0.00  0.00    +0.000 A 
ENDROOT
BRANCH   1  13
ATOM     13  C   UNL     1       1.922   5.384  20.986  0.00  0.00    +0.000 C 
BRANCH  13  14
ATOM     14  C   UNL     1       1.009   4.304  20.369  0.00  0.00    +0.000 C 
BRANCH  14  16
ATOM     15  C   UNL     1       2.609   2.726  21.506  0.00  0.00    +0.000 C 
ATOM     16  C   UNL     1       1.180   2.933  21.027  0.00  0.00    +0.000 C 
ENDBRANCH  14  16
ENDBRANCH  13  14
ENDBRANCH   1  13
BRANCH   4  17
ATOM     17  C   UNL     1       0.241   9.717  19.791  0.00  0.00    +0.000 C 
BRANCH  17  18
ATOM     18  C   UNL     1       0.902  11.009  20.310  0.00  0.00    +0.000 C 
ATOM     19  O   UNL     1       1.485  11.080  21.389  0.00  0.00    +0.000 OA
ATOM     20  N   UNL     1       0.767  12.086  19.442  0.00  0.00    +0.000 N 
ATOM     21  H   UNL     1       0.356  11.907  18.534  0.00  0.00    +0.000 HD
BRANCH  20  22
ATOM     22  C   UNL     1       1.264  13.451  19.701  0.00  0.00    +0.000 C 
ATOM     23  C   UNL     1       0.589  14.479  18.779  0.00  0.00    +0.000 C 
ATOM     24  C   UNL     1       0.930  13.828  21.158  0.00  0.00    +0.000 C 
ATOM     25  C   UNL     1       2.792  13.521  19.539  0.00  0.00    +0.000 C 
ENDBRANCH  20  22
ENDBRANCH  17  18
ENDBRANCH   4  17
TORSDOF 6
ENDMDL
MODEL 9
REMARK VINA RESULT:      -6.3      3.579      7.742
REMARK  Name = 
REMARK  10 active torsions:
REMARK  status: ('A' for Active; 'I' for Inactive)
REMARK    1  A    between atoms: C_1  and  C_2
REMARK    2  A    between atoms: C_2  and  C_3
REMARK    3  A    between atoms: C_3  and  C_4
REMARK    4  A    between atoms: C_4  and  N_5
REMARK    5  A    between atoms: N_8  and  C_9
REMARK    6  A    between atoms: C_9  and  C_10
REMARK    7  A    between atoms: N_12  and  C_13
REMARK    8  A    between atoms: C_13  and  C_14
REMARK    9  A    between atoms: C_13  and  C_15
REMARK   10  A    between atoms: C_13  and  C_16
REMARK                            x       y       z     vdW  Elec       q    Type
REMARK                         _______ _______ _______ _____ _____    ______ ____
ROOT
ATOM      1  N   UNL     1       3.329   6.312  17.832  0.00  0.00    +0.000 N 
ATOM      2  C   UNL     1       2.830   7.413  18.529  0.00  0.00    +0.000 A 
ATOM      3  O   UNL     1       2.916   8.561  18.088  0.00  0.00    +0.000 OA
ATOM      4  N   UNL     1       2.255   7.158  19.761  0.00  0.00    +0.000 N 
ATOM      5  C   UNL     1       1.875   5.905  20.196  0.00  0.00    +0.000 A 
ATOM      6  O   UNL     1       1.363   5.682  21.289  0.00  0.00    +0.000 OA
ATOM      7  C   UNL     1       2.069   4.791  19.244  0.00  0.00    +0.000 A 
ATOM      8  C   UNL     1       1.474   3.545  19.506  0.00  0.00    +0.000 A 
ATOM      9  C   UNL     1       1.649   2.489  18.616  0.00  0.00    +0.000 A 
ATOM     10  C   UNL     1       2.444   2.668  17.490  0.00  0.00    +0.000 A 
ATOM     11  C   UNL     1       3.042   3.911  17.237  0.00  0.00    +0.000 A 
ATOM     12  C   UNL     1       2.842   5.002  18.100  0.00  0.00    +0.000 A 
ENDROOT
BRANCH   1  13
ATOM     13  C   UNL     1       4.289   6.587  16.761  0.00  0.00    +0.000 C 
BRANCH  13  14
ATOM     14  C   UNL     1       5.759   6.494  17.219  0.00  0.00    +0.000 C 
BRANCH  14  16
ATOM     15  C   UNL     1       5.873   5.156  15.089  0.00  0.00    +0.000 C 
ATOM     16  C   UNL     1       6.580   5.503  16.390  0.00  0.00    +0.000 C 
ENDBRANCH  14  16
ENDBRANCH  13  14
ENDBRANCH   1  13
BRANCH   4  17
ATOM     17  C   UNL     1       2.045   8.304  20.638  0.00  0.00    +0.000 C 
BRANCH  17  18
ATOM     18  C   UNL     1       0.697   8.995  20.353  0.00  0.00    +0.000 C 
ATOM     19  O   UNL     1      -0.383   8.545  20.731  0.00  0.00    +0.000 OA
ATOM     20  N   UNL     1       0.821  10.169  19.621  0.00  0.00    +0.000 N 
ATOM     21  H   UNL     1       1.756  10.512  19.439  0.00  0.00    +0.000 HD
BRANCH  20  22
ATOM     22  C   UNL     1      -0.305  11.012  19.172  0.00  0.00    +0.000 C 
ATOM     23  C   UNL     1      -1.223  11.395  20.345  0.00  0.00    +0.000 C 
ATOM     24  C   UNL     1       0.264  12.313  18.571  0.00  0.00    +0.000 C 
ATOM     25  C   UNL     1      -1.118  10.306  18.074  0.00  0.00    +0.000 C 
ENDBRANCH  20  22
ENDBRANCH  17  18
ENDBRANCH   4  17
TORSDOF 6
ENDMDL
