MODEL 1
REMARK VINA RESULT:      -7.7      0.000      0.000
REMARK  Name = 
REMARK  0 active torsions:
REMARK  status: ('A' for Active; 'I' for Inactive)
REMARK                            x       y       z     vdW  Elec       q    Type
REMARK                         _______ _______ _______ _____ _____    ______ ____
ROOT
ATOM      1  O   UNL     1       4.347   2.349  20.186  0.00  0.00    +0.000 OA
ATOM      2  C   UNL     1       4.555   3.396  19.587  0.00  0.00    +0.000 A 
ATOM      3  N   UNL     1       5.656   3.500  18.774  0.00  0.00    +0.000 NA
ATOM      4  C   UNL     1       5.871   4.587  18.114  0.00  0.00    +0.000 A 
ATOM      5  N   UNL     1       5.074   5.724  18.146  0.00  0.00    +0.000 N 
ATOM      6  C   UNL     1       3.920   5.708  18.958  0.00  0.00    +0.000 A 
ATOM      7  C   UNL     1       3.039   6.803  19.066  0.00  0.00    +0.000 A 
ATOM      8  C   UNL     1       1.925   6.770  19.906  0.00  0.00    +0.000 A 
ATOM      9  C   UNL     1       1.656   5.635  20.654  0.00  0.00    +0.000 A 
ATOM     10  C   UNL     1       2.496   4.521  20.569  0.00  0.00    +0.000 A 
ATOM     11 CL   UNL     1       2.029   3.183  21.561  0.00  0.00    +0.000 Cl
ATOM     12  C   UNL     1       3.626   4.553  19.724  0.00  0.00    +0.000 A 
ATOM     13  C   UNL     1       5.387   6.862  17.275  0.00  0.00    +0.000 C 
ATOM     14  C   UNL     1       5.044   6.550  15.815  0.00  0.00    +0.000 C 
ATOM     15  C   UNL     1       5.562   5.201  15.313  0.00  0.00    +0.000 C 
ATOM     16  C   UNL     1       6.985   4.905  15.774  0.00  0.00    +0.000 C 
ATOM     17  C   UNL     1       7.145   4.564  17.259  0.00  0.00    +0.000 C 
ENDROOT
TORSDOF 0
ENDMDL
MODEL 2
REMARK VINA RESULT:      -7.6      1.950      3.220
REMARK  Name = 
REMARK  0 active torsions:
REMARK  status: ('A' for Active; 'I' for Inactive)
REMARK                            x       y       z     vdW  Elec       q    Type
REMARK                         _______ _______ _______ _____ _____    ______ ____
ROOT
ATOM      1  O   UNL     1       2.087   6.358  19.769  0.00  0.00    +0.000 OA
ATOM      2  C   UNL     1       2.947   5.877  19.042  0.00  0.00    +0.000 A 
ATOM      3  N   UNL     1       3.877   6.702  18.462  0.00  0.00    +0.000 NA
ATOM      4  C   UNL     1       4.807   6.205  17.718  0.00  0.00    +0.000 A 
ATOM      5  N   UNL     1       4.970   4.858  17.419  0.00  0.00    +0.000 N 
ATOM      6  C   UNL     1       4.057   3.936  17.972  0.00  0.00    +0.000 A 
ATOM      7  C   UNL     1       4.127   2.548  17.738  0.00  0.00    +0.000 A 
ATOM      8  C   UNL     1       3.187   1.664  18.270  0.00  0.00    +0.000 A 
ATOM      9  C   UNL     1       2.155   2.145  19.060  0.00  0.00    +0.000 A 
ATOM     10  C   UNL     1       2.054   3.512  19.328  0.00  0.00    +0.000 A 
ATOM     11 CL   UNL     1       0.714   3.957  20.328  0.00  0.00    +0.000 Cl
ATOM     12  C   UNL     1       3.000   4.410  18.788  0.00  0.00    +0.000 A 
ATOM     13  C   UNL     1       6.126   4.419  16.630  0.00  0.00    +0.000 C 
ATOM     14  C   UNL     1       7.415   4.487  17.455  0.00  0.00    +0.000 C 
ATOM     15  C   UNL     1       7.621   5.803  18.209  0.00  0.00    +0.000 C 
ATOM     16  C   UNL     1       7.261   7.027  17.372  0.00  0.00    +0.000 C 
ATOM     17  C   UNL     1       5.765   7.246  17.126  0.00  0.00    +0.000 C 
ENDROOT
TORSDOF 0
ENDMDL
MODEL 3
REMARK VINA RESULT:      -7.3      2.807      4.991
REMARK  Name = 
REMARK  0 active torsions:
REMARK  status: ('A' for Active; 'I' for Inactive)
REMARK                            x       y       z     vdW  Elec       q    Type
REMARK                         _______ _______ _______ _____ _____    ______ ____
ROOT
ATOM      1  O   UNL     1       6.783   5.553  19.860  0.00  0.00    +0.000 OA
ATOM      2  C   UNL     1       5.926   4.860  19.325  0.00  0.00    +0.000 A 
ATOM      3  N   UNL     1       5.132   4.052  20.099  0.00  0.00    +0.000 NA
ATOM      4  C   UNL     1       4.207   3.340  19.552  0.00  0.00    +0.000 A 
ATOM      5  N   UNL     1       3.918   3.294  18.194  0.00  0.00    +0.000 N 
ATOM      6  C   UNL     1       4.687   4.091  17.321  0.00  0.00    +0.000 A 
ATOM      7  C   UNL     1       4.482   4.124  15.927  0.00  0.00    +0.000 A 
ATOM      8  C   UNL     1       5.283   4.896  15.083  0.00  0.00    +0.000 A 
ATOM      9  C   UNL     1       6.305   5.665  15.615  0.00  0.00    +0.000 A 
ATOM     10  C   UNL     1       6.536   5.673  16.993  0.00  0.00    +0.000 A 
ATOM     11 CL   UNL     1       7.846   6.682  17.503  0.00  0.00    +0.000 Cl
ATOM     12  C   UNL     1       5.732   4.890  17.848  0.00  0.00    +0.000 A 
ATOM     13  C   UNL     1       2.777   2.506  17.716  0.00  0.00    +0.000 C 
ATOM     14  C   UNL     1       1.451   3.186  18.067  0.00  0.00    +0.000 C 
ATOM     15  C   UNL     1       1.339   3.651  19.521  0.00  0.00    +0.000 C 
ATOM     16  C   UNL     1       1.885   2.630  20.513  0.00  0.00    +0.000 C 
ATOM     17  C   UNL     1       3.409   2.477  20.538  0.00  0.00    +0.000 C 
ENDROOT
TORSDOF 0
ENDMDL
MODEL 4
REMARK VINA RESULT:      -7.0      1.606      1.657
REMARK  Name = 
REMARK  0 active torsions:
REMARK  status: ('A' for Active; 'I' for Inactive)
REMARK                            x       y       z     vdW  Elec       q    Type
REMARK                         _______ _______ _______ _____ _____    ______ ____
ROOT
ATOM      1  O   UNL     1       2.380   1.795  17.613  0.00  0.00    +0.000 OA
ATOM      2  C   UNL     1       3.072   2.795  17.750  0.00  0.00    +0.000 A 
ATOM      3  N   UNL     1       4.216   2.930  17.005  0.00  0.00    +0.000 NA
ATOM      4  C   UNL     1       4.939   3.992  17.117  0.00  0.00    +0.000 A 
ATOM      5  N   UNL     1       4.676   5.064  17.960  0.00  0.00    +0.000 N 
ATOM      6  C   UNL     1       3.520   5.011  18.766  0.00  0.00    +0.000 A 
ATOM      7  C   UNL     1       3.153   6.041  19.656  0.00  0.00    +0.000 A 
ATOM      8  C   UNL     1       2.022   5.944  20.469  0.00  0.00    +0.000 A 
ATOM      9  C   UNL     1       1.220   4.815  20.404  0.00  0.00    +0.000 A 
ATOM     10  C   UNL     1       1.538   3.775  19.527  0.00  0.00    +0.000 A 
ATOM     11 CL   UNL     1       0.442   2.437  19.561  0.00  0.00    +0.000 Cl
ATOM     12  C   UNL     1       2.684   3.868  18.707  0.00  0.00    +0.000 A 
ATOM     13  C   UNL     1       5.535   6.252  17.923  0.00  0.00    +0.000 C 
ATOM     14  C   UNL     1       5.290   7.072  16.654  0.00  0.00    +0.000 C 
ATOM     15  C   UNL     1       5.277   6.254  15.360  0.00  0.00    +0.000 C 
ATOM     16  C   UNL     1       6.383   5.206  15.311  0.00  0.00    +0.000 C 
ATOM     17  C   UNL     1       6.194   3.998  16.234  0.00  0.00    +0.000 C 
ENDROOT
TORSDOF 0
ENDMDL
MODEL 5
REMARK VINA RESULT:      -6.9      1.840      3.215
REMARK  Name = 
REMARK  0 active torsions:
REMARK  status: ('A' for Active; 'I' for Inactive)
REMARK                            x       y       z     vdW  Elec       q    Type
REMARK                         _______ _______ _______ _____ _____    ______ ____
ROOT
ATOM      1  O   UNL     1       2.070   6.783  19.032  0.00  0.00    +0.000 OA
ATOM      2  C   UNL     1       3.108   6.201  18.748  0.00  0.00    +0.000 A 
ATOM      3  N   UNL     1       4.033   6.825  17.949  0.00  0.00    +0.000 NA
ATOM      4  C   UNL     1       5.145   6.236  17.665  0.00  0.00    +0.000 A 
ATOM      5  N   UNL     1       5.522   4.970  18.096  0.00  0.00    +0.000 N 
ATOM      6  C   UNL     1       4.631   4.253  18.921  0.00  0.00    +0.000 A 
ATOM      7  C   UNL     1       4.909   2.963  19.418  0.00  0.00    +0.000 A 
ATOM      8  C   UNL     1       3.991   2.263  20.203  0.00  0.00    +0.000 A 
ATOM      9  C   UNL     1       2.772   2.841  20.521  0.00  0.00    +0.000 A 
ATOM     10  C   UNL     1       2.459   4.122  20.061  0.00  0.00    +0.000 A 
ATOM     11 CL   UNL     1       0.903   4.705  20.543  0.00  0.00    +0.000 Cl
ATOM     12  C   UNL     1       3.383   4.831  19.263  0.00  0.00    +0.000 A 
ATOM     13  C   UNL     1       6.856   4.455  17.772  0.00  0.00    +0.000 C 
ATOM     14  C   UNL     1       7.936   5.158  18.599  0.00  0.00    +0.000 C 
ATOM     15  C   UNL     1       7.830   6.685  18.619  0.00  0.00    +0.000 C 
ATOM     16  C   UNL     1       7.505   7.273  17.250  0.00  0.00    +0.000 C 
ATOM     17  C   UNL     1       6.074   7.046  16.752  0.00  0.00    +0.000 C 
ENDROOT
TORSDOF 0
ENDMDL
MODEL 6
REMARK VINA RESULT:      -6.8      2.604      4.657
REMARK  Name = 
REMARK  0 active torsions:
REMARK  status: ('A' for Active; 'I' for Inactive)
REMARK                            x       y       z     vdW  Elec       q    Type
REMARK                         _______ _______ _______ _____ _____    ______ ____
ROOT
ATOM      1  O   UNL     1       7.039   4.395  18.687  0.00  0.00    +0.000 OA
ATOM      2  C   UNL     1       5.816   4.396  18.740  0.00  0.00    +0.000 A 
ATOM      3  N   UNL     1       5.166   3.342  19.334  0.00  0.00    +0.000 NA
ATOM      4  C   UNL     1       3.879   3.344  19.423  0.00  0.00    +0.000 A 
ATOM      5  N   UNL     1       3.038   4.344  18.953  0.00  0.00    +0.000 N 
ATOM      6  C   UNL     1       3.618   5.466  18.326  0.00  0.00    +0.000 A 
ATOM      7  C   UNL     1       2.863   6.539  17.812  0.00  0.00    +0.000 A 
ATOM      8  C   UNL     1       3.464   7.619  17.164  0.00  0.00    +0.000 A 
ATOM      9  C   UNL     1       4.842   7.659  17.021  0.00  0.00    +0.000 A 
ATOM     10  C   UNL     1       5.632   6.623  17.526  0.00  0.00    +0.000 A 
ATOM     11 CL   UNL     1       7.332   6.817  17.270  0.00  0.00    +0.000 Cl
ATOM     12  C   UNL     1       5.027   5.527  18.178  0.00  0.00    +0.000 A 
ATOM     13  C   UNL     1       1.595   4.261  19.201  0.00  0.00    +0.000 C 
ATOM     14  C   UNL     1       1.269   4.552  20.669  0.00  0.00    +0.000 C 
ATOM     15  C   UNL     1       2.134   3.790  21.676  0.00  0.00    +0.000 C 
ATOM     16  C   UNL     1       2.353   2.332  21.284  0.00  0.00    +0.000 C 
ATOM     17  C   UNL     1       3.292   2.098  20.097  0.00  0.00    +0.000 C 
ENDROOT
TORSDOF 0
ENDMDL
MODEL 7
REMARK VINA RESULT:      -6.8      2.912      5.130
REMARK  Name = 
REMARK  0 active torsions:
REMARK  status: ('A' for Active; 'I' for Inactive)
REMARK                            x       y       z     vdW  Elec       q    Type
REMARK                         _______ _______ _______ _____ _____    ______ ____
ROOT
ATOM      1  O   UNL     1       1.531   7.926  19.995  0.00  0.00    +0.000 OA
ATOM      2  C   UNL     1       2.111   6.857  19.854  0.00  0.00    +0.000 A 
ATOM      3  N   UNL     1       1.897   5.850  20.762  0.00  0.00    +0.000 NA
ATOM      4  C   UNL     1       2.477   4.708  20.609  0.00  0.00    +0.000 A 
ATOM      5  N   UNL     1       3.347   4.375  19.578  0.00  0.00    +0.000 N 
ATOM      6  C   UNL     1       3.628   5.351  18.599  0.00  0.00    +0.000 A 
ATOM      7  C   UNL     1       4.492   5.123  17.510  0.00  0.00    +0.000 A 
ATOM      8  C   UNL     1       4.779   6.121  16.577  0.00  0.00    +0.000 A 
ATOM      9  C   UNL     1       4.199   7.373  16.704  0.00  0.00    +0.000 A 
ATOM     10  C   UNL     1       3.325   7.640  17.761  0.00  0.00    +0.000 A 
ATOM     11 CL   UNL     1       2.682   9.246  17.783  0.00  0.00    +0.000 Cl
ATOM     12  C   UNL     1       3.037   6.634  18.709  0.00  0.00    +0.000 A 
ATOM     13  C   UNL     1       3.869   3.008  19.475  0.00  0.00    +0.000 C 
ATOM     14  C   UNL     1       2.785   2.038  18.997  0.00  0.00    +0.000 C 
ATOM     15  C   UNL     1       1.451   2.157  19.739  0.00  0.00    +0.000 C 
ATOM     16  C   UNL     1       1.625   2.324  21.245  0.00  0.00    +0.000 C 
ATOM     17  C   UNL     1       2.156   3.685  21.705  0.00  0.00    +0.000 C 
ENDROOT
TORSDOF 0
ENDMDL
MODEL 8
REMARK VINA RESULT:      -6.8      2.950      5.469
REMARK  Name = 
REMARK  0 active torsions:
REMARK  status: ('A' for Active; 'I' for Inactive)
REMARK                            x       y       z     vdW  Elec       q    Type
REMARK                         _______ _______ _______ _____ _____    ______ ____
ROOT
ATOM      1  O   UNL     1       3.373   7.666  17.594  0.00  0.00    +0.000 OA
ATOM      2  C   UNL     1       3.462   6.514  17.997  0.00  0.00    +0.000 A 
ATOM      3  N   UNL     1       2.833   6.158  19.164  0.00  0.00    +0.000 NA
ATOM      4  C   UNL     1       2.893   4.940  19.585  0.00  0.00    +0.000 A 
ATOM      5  N   UNL     1       3.566   3.900  18.957  0.00  0.00    +0.000 N 
ATOM      6  C   UNL     1       4.244   4.174  17.751  0.00  0.00    +0.000 A 
ATOM      7  C   UNL     1       4.958   3.197  17.029  0.00  0.00    +0.000 A 
ATOM      8  C   UNL     1       5.649   3.508  15.857  0.00  0.00    +0.000 A 
ATOM      9  C   UNL     1       5.636   4.805  15.369  0.00  0.00    +0.000 A 
ATOM     10  C   UNL     1       4.931   5.803  16.046  0.00  0.00    +0.000 A 
ATOM     11 CL   UNL     1       5.009   7.369  15.315  0.00  0.00    +0.000 Cl
ATOM     12  C   UNL     1       4.235   5.494  17.235  0.00  0.00    +0.000 A 
ATOM     13  C   UNL     1       3.478   2.540  19.499  0.00  0.00    +0.000 C 
ATOM     14  C   UNL     1       2.100   1.928  19.235  0.00  0.00    +0.000 C 
ATOM     15  C   UNL     1       0.920   2.835  19.595  0.00  0.00    +0.000 C 
ATOM     16  C   UNL     1       1.119   3.565  20.920  0.00  0.00    +0.000 C 
ATOM     17  C   UNL     1       2.156   4.692  20.908  0.00  0.00    +0.000 C 
ENDROOT
TORSDOF 0
ENDMDL
MODEL 9
REMARK VINA RESULT:      -6.8      1.681      1.798
REMARK  Name = 
REMARK  0 active torsions:
REMARK  status: ('A' for Active; 'I' for Inactive)
REMARK                            x       y       z     vdW  Elec       q    Type
REMARK                         _______ _______ _______ _____ _____    ______ ____
ROOT
ATOM      1  O   UNL     1       4.874   2.219  20.200  0.00  0.00    +0.000 OA
ATOM      2  C   UNL     1       4.749   3.258  19.566  0.00  0.00    +0.000 A 
ATOM      3  N   UNL     1       5.831   4.088  19.411  0.00  0.00    +0.000 NA
ATOM      4  C   UNL     1       5.721   5.172  18.720  0.00  0.00    +0.000 A 
ATOM      5  N   UNL     1       4.565   5.616  18.091  0.00  0.00    +0.000 N 
ATOM      6  C   UNL     1       3.401   4.827  18.198  0.00  0.00    +0.000 A 
ATOM      7  C   UNL     1       2.174   5.178  17.601  0.00  0.00    +0.000 A 
ATOM      8  C   UNL     1       1.029   4.395  17.755  0.00  0.00    +0.000 A 
ATOM      9  C   UNL     1       1.085   3.230  18.504  0.00  0.00    +0.000 A 
ATOM     10  C   UNL     1       2.283   2.836  19.104  0.00  0.00    +0.000 A 
ATOM     11 CL   UNL     1       2.193   1.362  20.005  0.00  0.00    +0.000 Cl
ATOM     12  C   UNL     1       3.442   3.629  18.954  0.00  0.00    +0.000 A 
ATOM     13  C   UNL     1       4.603   6.825  17.261  0.00  0.00    +0.000 C 
ATOM     14  C   UNL     1       5.331   6.564  15.939  0.00  0.00    +0.000 C 
ATOM     15  C   UNL     1       6.676   5.848  16.084  0.00  0.00    +0.000 C 
ATOM     16  C   UNL     1       7.507   6.379  17.247  0.00  0.00    +0.000 C 
ATOM     17  C   UNL     1       7.007   6.006  18.645  0.00  0.00    +0.000 C 
ENDROOT
TORSDOF 0
ENDMDL
