MODEL 1
REMARK VINA RESULT:      -7.4      0.000      0.000
REMARK  Name = 
REMARK  5 active torsions:
REMARK  status: ('A' for Active; 'I' for Inactive)
REMARK    1  A    between atoms: C_2  and  C_3
REMARK    2  A    between atoms: C_3  and  S_4
REMARK    3  A    between atoms: N_5  and  C_6
REMARK    4  A    between atoms: C_6  and  C_7
REMARK    5  A    between atoms: C_6  and  C_13
REMARK                            x       y       z     vdW  Elec       q    Type
REMARK                         _______ _______ _______ _____ _____    ______ ____
ROOT
ATOM      1  C   UNL     1       3.128   5.926  18.758  0.00  0.00    +0.000 C 
ENDROOT
BRANCH   1   2
ATOM      2  C   UNL     1       2.433   7.284  18.899  0.00  0.00    +0.000 A 
ATOM      3  C   UNL     1       2.390   8.164  17.797  0.00  0.00    +0.000 A 
ATOM      4  C   UNL     1       1.774   9.416  17.901  0.00  0.00    +0.000 A 
ATOM      5  C   UNL     1       1.193   9.815  19.107  0.00  0.00    +0.000 A 
ATOM      6 CL   UNL     1       0.425  11.387  19.237  0.00  0.00    +0.000 Cl
ATOM      7  C   UNL     1       1.232   8.963  20.211  0.00  0.00    +0.000 A 
ATOM      8  C   UNL     1       1.846   7.710  20.112  0.00  0.00    +0.000 A 
ENDBRANCH   1   2
BRANCH   1   9
ATOM      9  C   UNL     1       2.310   4.744  19.268  0.00  0.00    +0.000 A 
ATOM     10  C   UNL     1       2.226   4.418  20.638  0.00  0.00    +0.000 A 
ATOM     11  C   UNL     1       1.512   3.294  21.064  0.00  0.00    +0.000 A 
ATOM     12  C   UNL     1       0.866   2.479  20.133  0.00  0.00    +0.000 A 
ATOM     13  C   UNL     1       0.934   2.787  18.773  0.00  0.00    +0.000 A 
ATOM     14  C   UNL     1       1.649   3.909  18.343  0.00  0.00    +0.000 A 
ENDBRANCH   1   9
BRANCH   1  17
ATOM     15  N   UNL     1       6.635   5.325  19.790  0.00  0.00    +0.000 NA
ATOM     16  C   UNL     1       5.591   5.220  19.043  0.00  0.00    +0.000 C 
ATOM     17  N   UNL     1       4.418   5.949  19.431  0.00  0.00    +0.000 N 
ATOM     18  H   UNL     1       7.513   4.827  19.583  0.00  0.00    +0.000 HD
ATOM     19  H   UNL     1       4.458   6.404  20.355  0.00  0.00    +0.000 HD
BRANCH  16  20
ATOM     20  C   UNL     1       5.663   4.318  17.824  0.00  0.00    +0.000 C 
BRANCH  20  21
ATOM     21  S   UNL     1       7.124   4.724  16.812  0.00  0.00    +0.000 S 
ATOM     22  H   UNL     1       8.023   4.634  17.894  0.00  0.00    +0.000 HD
ENDBRANCH  20  21
ENDBRANCH  16  20
ENDBRANCH   1  17
TORSDOF 5
ENDMDL
MODEL 2
REMARK VINA RESULT:      -7.3      0.120      1.114
REMARK  Name = 
REMARK  5 active torsions:
REMARK  status: ('A' for Active; 'I' for Inactive)
REMARK    1  A    between atoms: C_2  and  C_3
REMARK    2  A    between atoms: C_3  and  S_4
REMARK    3  A    between atoms: N_5  and  C_6
REMARK    4  A    between atoms: C_6  and  C_7
REMARK    5  A    between atoms: C_6  and  C_13
REMARK                            x       y       z     vdW  Elec       q    Type
REMARK                         _______ _______ _______ _____ _____    ______ ____
ROOT
ATOM      1  C   UNL     1       3.142   5.898  18.774  0.00  0.00    +0.000 C 
ENDROOT
BRANCH   1   2
ATOM      2  C   UNL     1       2.411   7.234  18.950  0.00  0.00    +0.000 A 
ATOM      3  C   UNL     1       2.294   8.114  17.854  0.00  0.00    +0.000 A 
ATOM      4  C   UNL     1       1.643   9.346  17.989  0.00  0.00    +0.000 A 
ATOM      5  C   UNL     1       1.101   9.723  19.219  0.00  0.00    +0.000 A 
ATOM      6 CL   UNL     1       0.290  11.270  19.388  0.00  0.00    +0.000 Cl
ATOM      7  C   UNL     1       1.214   8.871  20.317  0.00  0.00    +0.000 A 
ATOM      8  C   UNL     1       1.863   7.638  20.188  0.00  0.00    +0.000 A 
ENDBRANCH   1   2
BRANCH   1   9
ATOM      9  C   UNL     1       2.362   4.684  19.266  0.00  0.00    +0.000 A 
ATOM     10  C   UNL     1       1.593   3.878  18.401  0.00  0.00    +0.000 A 
ATOM     11  C   UNL     1       0.846   2.804  18.897  0.00  0.00    +0.000 A 
ATOM     12  C   UNL     1       0.858   2.514  20.262  0.00  0.00    +0.000 A 
ATOM     13  C   UNL     1       1.616   3.297  21.134  0.00  0.00    +0.000 A 
ATOM     14  C   UNL     1       2.362   4.373  20.643  0.00  0.00    +0.000 A 
ENDBRANCH   1   9
BRANCH   1  17
ATOM     15  N   UNL     1       6.668   5.360  19.776  0.00  0.00    +0.000 NA
ATOM     16  C   UNL     1       5.620   5.237  19.037  0.00  0.00    +0.000 C 
ATOM     17  N   UNL     1       4.437   5.944  19.437  0.00  0.00    +0.000 N 
ATOM     18  H   UNL     1       7.553   4.878  19.561  0.00  0.00    +0.000 HD
ATOM     19  H   UNL     1       4.476   6.397  20.362  0.00  0.00    +0.000 HD
BRANCH  16  20
ATOM     20  C   UNL     1       5.699   4.341  17.816  0.00  0.00    +0.000 C 
BRANCH  20  21
ATOM     21  S   UNL     1       7.206   4.699  16.854  0.00  0.00    +0.000 S 
ATOM     22  H   UNL     1       6.531   5.491  15.903  0.00  0.00    +0.000 HD
ENDBRANCH  20  21
ENDBRANCH  16  20
ENDBRANCH   1  17
TORSDOF 5
ENDMDL
MODEL 3
REMARK VINA RESULT:      -7.3      0.168      1.574
REMARK  Name = 
REMARK  5 active torsions:
REMARK  status: ('A' for Active; 'I' for Inactive)
REMARK    1  A    between atoms: C_2  and  C_3
REMARK    2  A    between atoms: C_3  and  S_4
REMARK    3  A    between atoms: N_5  and  C_6
REMARK    4  A    between atoms: C_6  and  C_7
REMARK    5  A    between atoms: C_6  and  C_13
REMARK                            x       y       z     vdW  Elec       q    Type
REMARK                         _______ _______ _______ _____ _____    ______ ____
ROOT
ATOM      1  C   UNL     1       3.177   5.899  18.778  0.00  0.00    +0.000 C 
ENDROOT
BRANCH   1   2
ATOM      2  C   UNL     1       2.456   7.243  18.918  0.00  0.00    +0.000 A 
ATOM      3  C   UNL     1       1.897   7.609  20.161  0.00  0.00    +0.000 A 
ATOM      4  C   UNL     1       1.222   8.825  20.316  0.00  0.00    +0.000 A 
ATOM      5  C   UNL     1       1.087   9.696  19.233  0.00  0.00    +0.000 A 
ATOM      6 CL   UNL     1       0.236  11.218  19.427  0.00  0.00    +0.000 Cl
ATOM      7  C   UNL     1       1.624   9.349  17.993  0.00  0.00    +0.000 A 
ATOM      8  C   UNL     1       2.301   8.135  17.833  0.00  0.00    +0.000 A 
ENDBRANCH   1   2
BRANCH   1   9
ATOM      9  C   UNL     1       2.390   4.704  19.306  0.00  0.00    +0.000 A 
ATOM     10  C   UNL     1       1.569   3.913  18.475  0.00  0.00    +0.000 A 
ATOM     11  C   UNL     1       0.819   2.858  19.005  0.00  0.00    +0.000 A 
ATOM     12  C   UNL     1       0.879   2.572  20.370  0.00  0.00    +0.000 A 
ATOM     13  C   UNL     1       1.688   3.340  21.207  0.00  0.00    +0.000 A 
ATOM     14  C   UNL     1       2.438   4.397  20.682  0.00  0.00    +0.000 A 
ENDBRANCH   1   9
BRANCH   1  17
ATOM     15  N   UNL     1       6.705   5.372  19.777  0.00  0.00    +0.000 NA
ATOM     16  C   UNL     1       5.655   5.238  19.044  0.00  0.00    +0.000 C 
ATOM     17  N   UNL     1       4.474   5.953  19.436  0.00  0.00    +0.000 N 
ATOM     18  H   UNL     1       7.589   4.885  19.568  0.00  0.00    +0.000 HD
ATOM     19  H   UNL     1       4.517   6.422  20.352  0.00  0.00    +0.000 HD
BRANCH  16  20
ATOM     20  C   UNL     1       5.728   4.321  17.838  0.00  0.00    +0.000 C 
BRANCH  20  21
ATOM     21  S   UNL     1       7.195   4.708  16.826  0.00  0.00    +0.000 S 
ATOM     22  H   UNL     1       6.506   5.616  15.997  0.00  0.00    +0.000 HD
ENDBRANCH  20  21
ENDBRANCH  16  20
ENDBRANCH   1  17
TORSDOF 5
ENDMDL
MODEL 4
REMARK VINA RESULT:      -7.3      0.173      1.122
REMARK  Name = 
REMARK  5 active torsions:
REMARK  status: ('A' for Active; 'I' for Inactive)
REMARK    1  A    between atoms: C_2  and  C_3
REMARK    2  A    between atoms: C_3  and  S_4
REMARK    3  A    between atoms: N_5  and  C_6
REMARK    4  A    between atoms: C_6  and  C_7
REMARK    5  A    between atoms: C_6  and  C_13
REMARK                            x       y       z     vdW  Elec       q    Type
REMARK                         _______ _______ _______ _____ _____    ______ ____
ROOT
ATOM      1  C   UNL     1       3.146   5.936  18.712  0.00  0.00    +0.000 C 
ENDROOT
BRANCH   1   2
ATOM      2  C   UNL     1       2.452   7.294  18.854  0.00  0.00    +0.000 A 
ATOM      3  C   UNL     1       1.875   7.657  20.089  0.00  0.00    +0.000 A 
ATOM      4  C   UNL     1       1.223   8.886  20.244  0.00  0.00    +0.000 A 
ATOM      5  C   UNL     1       1.132   9.773  19.169  0.00  0.00    +0.000 A 
ATOM      6 CL   UNL     1       0.311  11.311  19.364  0.00  0.00    +0.000 Cl
ATOM      7  C   UNL     1       1.688   9.429  17.937  0.00  0.00    +0.000 A 
ATOM      8  C   UNL     1       2.341   8.203  17.777  0.00  0.00    +0.000 A 
ENDBRANCH   1   2
BRANCH   1   9
ATOM      9  C   UNL     1       2.313   4.750  19.189  0.00  0.00    +0.000 A 
ATOM     10  C   UNL     1       2.198   4.407  20.551  0.00  0.00    +0.000 A 
ATOM     11  C   UNL     1       1.471   3.279  20.947  0.00  0.00    +0.000 A 
ATOM     12  C   UNL     1       0.842   2.480  19.991  0.00  0.00    +0.000 A 
ATOM     13  C   UNL     1       0.941   2.805  18.638  0.00  0.00    +0.000 A 
ATOM     14  C   UNL     1       1.669   3.930  18.238  0.00  0.00    +0.000 A 
ENDBRANCH   1   9
BRANCH   1  17
ATOM     15  N   UNL     1       6.636   5.335  19.799  0.00  0.00    +0.000 NA
ATOM     16  C   UNL     1       5.611   5.248  19.025  0.00  0.00    +0.000 C 
ATOM     17  N   UNL     1       4.420   5.947  19.415  0.00  0.00    +0.000 N 
ATOM     18  H   UNL     1       7.525   4.856  19.593  0.00  0.00    +0.000 HD
ATOM     19  H   UNL     1       4.434   6.364  20.357  0.00  0.00    +0.000 HD
BRANCH  16  20
ATOM     20  C   UNL     1       5.722   4.398  17.773  0.00  0.00    +0.000 C 
BRANCH  20  21
ATOM     21  S   UNL     1       6.806   5.201  16.546  0.00  0.00    +0.000 S 
ATOM     22  H   UNL     1       6.652   4.176  15.591  0.00  0.00    +0.000 HD
ENDBRANCH  20  21
ENDBRANCH  16  20
ENDBRANCH   1  17
TORSDOF 5
ENDMDL
MODEL 5
REMARK VINA RESULT:      -7.1      1.367      1.598
REMARK  Name = 
REMARK  5 active torsions:
REMARK  status: ('A' for Active; 'I' for Inactive)
REMARK    1  A    between atoms: C_2  and  C_3
REMARK    2  A    between atoms: C_3  and  S_4
REMARK    3  A    between atoms: N_5  and  C_6
REMARK    4  A    between atoms: C_6  and  C_7
REMARK    5  A    between atoms: C_6  and  C_13
REMARK                            x       y       z     vdW  Elec       q    Type
REMARK                         _______ _______ _______ _____ _____    ______ ____
ROOT
ATOM      1  C   UNL     1       3.845   5.492  18.397  0.00  0.00    +0.000 C 
ENDROOT
BRANCH   1   2
ATOM      2  C   UNL     1       3.003   6.739  18.688  0.00  0.00    +0.000 A 
ATOM      3  C   UNL     1       2.855   7.728  17.693  0.00  0.00    +0.000 A 
ATOM      4  C   UNL     1       2.103   8.884  17.935  0.00  0.00    +0.000 A 
ATOM      5  C   UNL     1       1.490   9.076  19.175  0.00  0.00    +0.000 A 
ATOM      6 CL   UNL     1       0.552  10.527  19.478  0.00  0.00    +0.000 Cl
ATOM      7  C   UNL     1       1.632   8.114  20.175  0.00  0.00    +0.000 A 
ATOM      8  C   UNL     1       2.381   6.957  19.938  0.00  0.00    +0.000 A 
ENDBRANCH   1   2
BRANCH   1   9
ATOM      9  C   UNL     1       3.065   4.182  18.442  0.00  0.00    +0.000 A 
ATOM     10  C   UNL     1       1.656   4.139  18.406  0.00  0.00    +0.000 A 
ATOM     11  C   UNL     1       0.974   2.922  18.504  0.00  0.00    +0.000 A 
ATOM     12  C   UNL     1       1.685   1.728  18.635  0.00  0.00    +0.000 A 
ATOM     13  C   UNL     1       3.080   1.749  18.669  0.00  0.00    +0.000 A 
ATOM     14  C   UNL     1       3.766   2.964  18.573  0.00  0.00    +0.000 A 
ENDBRANCH   1   9
BRANCH   1  17
ATOM     15  N   UNL     1       7.219   5.432  19.924  0.00  0.00    +0.000 NA
ATOM     16  C   UNL     1       6.355   5.579  18.982  0.00  0.00    +0.000 C 
ATOM     17  N   UNL     1       4.969   5.418  19.319  0.00  0.00    +0.000 N 
ATOM     18  H   UNL     1       8.233   5.523  19.761  0.00  0.00    +0.000 HD
ATOM     19  H   UNL     1       4.776   5.067  20.269  0.00  0.00    +0.000 HD
BRANCH  16  20
ATOM     20  C   UNL     1       6.855   5.887  17.583  0.00  0.00    +0.000 C 
BRANCH  20  21
ATOM     21  S   UNL     1       7.520   7.583  17.499  0.00  0.00    +0.000 S 
ATOM     22  H   UNL     1       8.752   7.179  16.947  0.00  0.00    +0.000 HD
ENDBRANCH  20  21
ENDBRANCH  16  20
ENDBRANCH   1  17
TORSDOF 5
ENDMDL
MODEL 6
REMARK VINA RESULT:      -7.1      1.758      1.947
REMARK  Name = 
REMARK  5 active torsions:
REMARK  status: ('A' for Active; 'I' for Inactive)
REMARK    1  A    between atoms: C_2  and  C_3
REMARK    2  A    between atoms: C_3  and  S_4
REMARK    3  A    between atoms: N_5  and  C_6
REMARK    4  A    between atoms: C_6  and  C_7
REMARK    5  A    between atoms: C_6  and  C_13
REMARK                            x       y       z     vdW  Elec       q    Type
REMARK                         _______ _______ _______ _____ _____    ______ ____
ROOT
ATOM      1  C   UNL     1       3.469   6.210  17.632  0.00  0.00    +0.000 C 
ENDROOT
BRANCH   1   2
ATOM      2  C   UNL     1       2.636   7.221  18.427  0.00  0.00    +0.000 A 
ATOM      3  C   UNL     1       2.181   8.399  17.798  0.00  0.00    +0.000 A 
ATOM      4  C   UNL     1       1.429   9.346  18.504  0.00  0.00    +0.000 A 
ATOM      5  C   UNL     1       1.122   9.137  19.850  0.00  0.00    +0.000 A 
ATOM      6 CL   UNL     1       0.183  10.327  20.734  0.00  0.00    +0.000 Cl
ATOM      7  C   UNL     1       1.569   7.983  20.492  0.00  0.00    +0.000 A 
ATOM      8  C   UNL     1       2.320   7.033  19.792  0.00  0.00    +0.000 A 
ENDBRANCH   1   2
BRANCH   1   9
ATOM      9  C   UNL     1       3.316   4.765  18.094  0.00  0.00    +0.000 A 
ATOM     10  C   UNL     1       4.272   4.127  18.910  0.00  0.00    +0.000 A 
ATOM     11  C   UNL     1       4.126   2.783  19.269  0.00  0.00    +0.000 A 
ATOM     12  C   UNL     1       3.021   2.055  18.824  0.00  0.00    +0.000 A 
ATOM     13  C   UNL     1       2.062   2.670  18.017  0.00  0.00    +0.000 A 
ATOM     14  C   UNL     1       2.206   4.012  17.655  0.00  0.00    +0.000 A 
ENDBRANCH   1   9
BRANCH   1  17
ATOM     15  N   UNL     1       7.054   6.715  16.846  0.00  0.00    +0.000 NA
ATOM     16  C   UNL     1       5.837   6.361  16.622  0.00  0.00    +0.000 C 
ATOM     17  N   UNL     1       4.876   6.583  17.664  0.00  0.00    +0.000 N 
ATOM     18  H   UNL     1       7.804   6.581  16.152  0.00  0.00    +0.000 HD
ATOM     19  H   UNL     1       5.259   6.893  18.569  0.00  0.00    +0.000 HD
BRANCH  16  20
ATOM     20  C   UNL     1       5.506   5.715  15.290  0.00  0.00    +0.000 C 
BRANCH  20  21
ATOM     21  S   UNL     1       6.063   3.979  15.263  0.00  0.00    +0.000 S 
ATOM     22  H   UNL     1       7.303   4.263  15.871  0.00  0.00    +0.000 HD
ENDBRANCH  20  21
ENDBRANCH  16  20
ENDBRANCH   1  17
TORSDOF 5
ENDMDL
MODEL 7
REMARK VINA RESULT:      -7.1      1.843      2.303
REMARK  Name = 
REMARK  5 active torsions:
REMARK  status: ('A' for Active; 'I' for Inactive)
REMARK    1  A    between atoms: C_2  and  C_3
REMARK    2  A    between atoms: C_3  and  S_4
REMARK    3  A    between atoms: N_5  and  C_6
REMARK    4  A    between atoms: C_6  and  C_7
REMARK    5  A    between atoms: C_6  and  C_13
REMARK                            x       y       z     vdW  Elec       q    Type
REMARK                         _______ _______ _______ _____ _____    ______ ____
ROOT
ATOM      1  C   UNL     1       3.726   5.959  17.530  0.00  0.00    +0.000 C 
ENDROOT
BRANCH   1   2
ATOM      2  C   UNL     1       2.899   7.008  18.280  0.00  0.00    +0.000 A 
ATOM      3  C   UNL     1       2.504   6.763  19.612  0.00  0.00    +0.000 A 
ATOM      4  C   UNL     1       1.737   7.698  20.318  0.00  0.00    +0.000 A 
ATOM      5  C   UNL     1       1.346   8.890  19.706  0.00  0.00    +0.000 A 
ATOM      6 CL   UNL     1       0.381  10.058  20.590  0.00  0.00    +0.000 Cl
ATOM      7  C   UNL     1       1.719   9.148  18.387  0.00  0.00    +0.000 A 
ATOM      8  C   UNL     1       2.486   8.218  17.677  0.00  0.00    +0.000 A 
ENDBRANCH   1   2
BRANCH   1   9
ATOM      9  C   UNL     1       3.519   4.528  18.016  0.00  0.00    +0.000 A 
ATOM     10  C   UNL     1       4.381   3.913  18.946  0.00  0.00    +0.000 A 
ATOM     11  C   UNL     1       4.192   2.581  19.327  0.00  0.00    +0.000 A 
ATOM     12  C   UNL     1       3.138   1.842  18.789  0.00  0.00    +0.000 A 
ATOM     13  C   UNL     1       2.271   2.434  17.869  0.00  0.00    +0.000 A 
ATOM     14  C   UNL     1       2.458   3.765  17.485  0.00  0.00    +0.000 A 
ENDBRANCH   1   9
BRANCH   1  17
ATOM     15  N   UNL     1       7.324   6.453  16.796  0.00  0.00    +0.000 NA
ATOM     16  C   UNL     1       6.099   6.151  16.538  0.00  0.00    +0.000 C 
ATOM     17  N   UNL     1       5.142   6.293  17.598  0.00  0.00    +0.000 N 
ATOM     18  H   UNL     1       8.071   6.370  16.092  0.00  0.00    +0.000 HD
ATOM     19  H   UNL     1       5.531   6.505  18.529  0.00  0.00    +0.000 HD
BRANCH  16  20
ATOM     20  C   UNL     1       5.755   5.646  15.150  0.00  0.00    +0.000 C 
BRANCH  20  21
ATOM     21  S   UNL     1       6.078   3.856  15.021  0.00  0.00    +0.000 S 
ATOM     22  H   UNL     1       4.845   3.578  14.396  0.00  0.00    +0.000 HD
ENDBRANCH  20  21
ENDBRANCH  16  20
ENDBRANCH   1  17
TORSDOF 5
ENDMDL
MODEL 8
REMARK VINA RESULT:      -7.1      2.322      4.444
REMARK  Name = 
REMARK  5 active torsions:
REMARK  status: ('A' for Active; 'I' for Inactive)
REMARK    1  A    between atoms: C_2  and  C_3
REMARK    2  A    between atoms: C_3  and  S_4
REMARK    3  A    between atoms: N_5  and  C_6
REMARK    4  A    between atoms: C_6  and  C_7
REMARK    5  A    between atoms: C_6  and  C_13
REMARK                            x       y       z     vdW  Elec       q    Type
REMARK                         _______ _______ _______ _____ _____    ______ ____
ROOT
ATOM      1  C   UNL     1       3.390   5.145  18.975  0.00  0.00    +0.000 C 
ENDROOT
BRANCH   1   2
ATOM      2  C   UNL     1       2.788   6.552  18.918  0.00  0.00    +0.000 A 
ATOM      3  C   UNL     1       2.123   7.073  20.048  0.00  0.00    +0.000 A 
ATOM      4  C   UNL     1       1.552   8.351  20.020  0.00  0.00    +0.000 A 
ATOM      5  C   UNL     1       1.630   9.130  18.863  0.00  0.00    +0.000 A 
ATOM      6 CL   UNL     1       0.910  10.729  18.828  0.00  0.00    +0.000 Cl
ATOM      7  C   UNL     1       2.276   8.630  17.733  0.00  0.00    +0.000 A 
ATOM      8  C   UNL     1       2.849   7.354  17.755  0.00  0.00    +0.000 A 
ENDBRANCH   1   2
BRANCH   1   9
ATOM      9  C   UNL     1       4.764   5.020  18.324  0.00  0.00    +0.000 A 
ATOM     10  C   UNL     1       4.945   4.455  17.045  0.00  0.00    +0.000 A 
ATOM     11  C   UNL     1       6.226   4.307  16.502  0.00  0.00    +0.000 A 
ATOM     12  C   UNL     1       7.345   4.723  17.224  0.00  0.00    +0.000 A 
ATOM     13  C   UNL     1       7.186   5.288  18.490  0.00  0.00    +0.000 A 
ATOM     14  C   UNL     1       5.908   5.436  19.037  0.00  0.00    +0.000 A 
ENDBRANCH   1   9
BRANCH   1  17
ATOM     15  N   UNL     1       0.733   2.640  18.353  0.00  0.00    +0.000 NA
ATOM     16  C   UNL     1       1.409   3.496  19.037  0.00  0.00    +0.000 C 
ATOM     17  N   UNL     1       2.479   4.183  18.372  0.00  0.00    +0.000 N 
ATOM     18  H   UNL     1      -0.045   2.100  18.760  0.00  0.00    +0.000 HD
ATOM     19  H   UNL     1       2.711   3.844  17.427  0.00  0.00    +0.000 HD
BRANCH  16  20
ATOM     20  C   UNL     1       1.047   3.703  20.496  0.00  0.00    +0.000 C 
BRANCH  20  21
ATOM     21  S   UNL     1       2.132   2.709  21.572  0.00  0.00    +0.000 S 
ATOM     22  H   UNL     1       2.778   3.832  22.126  0.00  0.00    +0.000 HD
ENDBRANCH  20  21
ENDBRANCH  16  20
ENDBRANCH   1  17
TORSDOF 5
ENDMDL
MODEL 9
REMARK VINA RESULT:      -7.1      1.381      2.010
REMARK  Name = 
REMARK  5 active torsions:
REMARK  status: ('A' for Active; 'I' for Inactive)
REMARK    1  A    between atoms: C_2  and  C_3
REMARK    2  A    between atoms: C_3  and  S_4
REMARK    3  A    between atoms: N_5  and  C_6
REMARK    4  A    between atoms: C_6  and  C_7
REMARK    5  A    between atoms: C_6  and  C_13
REMARK                            x       y       z     vdW  Elec       q    Type
REMARK                         _______ _______ _______ _____ _____    ______ ____
ROOT
ATOM      1  C   UNL     1       3.285   5.904  17.899  0.00  0.00    +0.000 C 
ENDROOT
BRANCH   1   2
ATOM      2  C   UNL     1       2.552   7.106  18.505  0.00  0.00    +0.000 A 
ATOM      3  C   UNL     1       2.226   7.105  19.877  0.00  0.00    +0.000 A 
ATOM      4  C   UNL     1       1.546   8.184  20.455  0.00  0.00    +0.000 A 
ATOM      5  C   UNL     1       1.175   9.280  19.673  0.00  0.00    +0.000 A 
ATOM      6 CL   UNL     1       0.318  10.629  20.397  0.00  0.00    +0.000 Cl
ATOM      7  C   UNL     1       1.481   9.296  18.312  0.00  0.00    +0.000 A 
ATOM      8  C   UNL     1       2.161   8.221  17.730  0.00  0.00    +0.000 A 
ENDBRANCH   1   2
BRANCH   1   9
ATOM      9  C   UNL     1       2.783   4.549  18.388  0.00  0.00    +0.000 A 
ATOM     10  C   UNL     1       1.521   4.036  18.028  0.00  0.00    +0.000 A 
ATOM     11  C   UNL     1       1.071   2.814  18.540  0.00  0.00    +0.000 A 
ATOM     12  C   UNL     1       1.875   2.083  19.415  0.00  0.00    +0.000 A 
ATOM     13  C   UNL     1       3.130   2.573  19.781  0.00  0.00    +0.000 A 
ATOM     14  C   UNL     1       3.582   3.794  19.273  0.00  0.00    +0.000 A 
ENDBRANCH   1   9
BRANCH   1  17
ATOM     15  N   UNL     1       6.974   6.011  17.574  0.00  0.00    +0.000 NA
ATOM     16  C   UNL     1       5.755   5.947  17.162  0.00  0.00    +0.000 C 
ATOM     17  N   UNL     1       4.715   6.010  18.148  0.00  0.00    +0.000 N 
ATOM     18  H   UNL     1       7.776   5.964  16.929  0.00  0.00    +0.000 HD
ATOM     19  H   UNL     1       5.025   5.972  19.131  0.00  0.00    +0.000 HD
BRANCH  16  20
ATOM     20  C   UNL     1       5.503   5.786  15.675  0.00  0.00    +0.000 C 
BRANCH  20  21
ATOM     21  S   UNL     1       6.130   4.178  15.088  0.00  0.00    +0.000 S 
ATOM     22  H   UNL     1       5.018   3.935  14.256  0.00  0.00    +0.000 HD
ENDBRANCH  20  21
ENDBRANCH  16  20
ENDBRANCH   1  17
TORSDOF 5
ENDMDL
