MODEL 1
REMARK VINA RESULT:      -8.4      0.000      0.000
REMARK  Name = 
REMARK  2 active torsions:
REMARK  status: ('A' for Active; 'I' for Inactive)
REMARK    1  A    between atoms: C_5  and  C_6
REMARK    2  A    between atoms: C_15  and  N_16
REMARK                            x       y       z     vdW  Elec       q    Type
REMARK                         _______ _______ _______ _____ _____    ______ ____
ROOT
ATOM      1  C   UNL     1       3.236   6.425  18.087  0.00  0.00    +0.000 A 
ATOM      2  C   UNL     1       4.086   6.753  17.005  0.00  0.00    +0.000 A 
ATOM      3  C   UNL     1       4.867   5.793  16.358  0.00  0.00    +0.000 A 
ATOM      4  C   UNL     1       5.676   6.112  15.250  0.00  0.00    +0.000 A 
ATOM      5  C   UNL     1       6.455   5.130  14.638  0.00  0.00    +0.000 A 
ATOM      6  C   UNL     1       6.438   3.836  15.143  0.00  0.00    +0.000 A 
ATOM      7  C   UNL     1       5.629   3.532  16.243  0.00  0.00    +0.000 A 
ATOM      8  C   UNL     1       4.826   4.487  16.862  0.00  0.00    +0.000 A 
ATOM      9  N   UNL     1       4.028   4.145  17.887  0.00  0.00    +0.000 NA
ATOM     10  C   UNL     1       3.207   5.058  18.483  0.00  0.00    +0.000 A 
ENDROOT
BRANCH   1  15
ATOM     11 CL   UNL     1      -0.510  10.459  20.505  0.00  0.00    +0.000 Cl
ATOM     12  C   UNL     1       0.684   9.404  19.858  0.00  0.00    +0.000 A 
ATOM     13  C   UNL     1       1.094   9.545  18.538  0.00  0.00    +0.000 A 
ATOM     14  C   UNL     1       1.964   8.604  17.977  0.00  0.00    +0.000 A 
ATOM     15  C   UNL     1       2.465   7.524  18.731  0.00  0.00    +0.000 A 
ATOM     16  C   UNL     1       2.155   7.508  20.102  0.00  0.00    +0.000 A 
ATOM     17  C   UNL     1       1.221   8.395  20.648  0.00  0.00    +0.000 A 
ENDBRANCH   1  15
BRANCH  10  18
ATOM     18  N   UNL     1       2.361   4.522  19.431  0.00  0.00    +0.000 N 
ATOM     19  C   UNL     1       2.806   4.446  20.831  0.00  0.00    +0.000 C 
ATOM     20  C   UNL     1       2.446   3.083  21.446  0.00  0.00    +0.000 C 
ATOM     21  O   UNL     1       1.056   2.763  21.274  0.00  0.00    +0.000 OA
ATOM     22  C   UNL     1       0.744   2.698  19.874  0.00  0.00    +0.000 C 
ATOM     23  C   UNL     1       0.999   4.045  19.189  0.00  0.00    +0.000 C 
ENDBRANCH  10  18
TORSDOF 2
ENDMDL
MODEL 2
REMARK VINA RESULT:      -8.4      3.502      5.331
REMARK  Name = 
REMARK  2 active torsions:
REMARK  status: ('A' for Active; 'I' for Inactive)
REMARK    1  A    between atoms: C_5  and  C_6
REMARK    2  A    between atoms: C_15  and  N_16
REMARK                            x       y       z     vdW  Elec       q    Type
REMARK                         _______ _______ _______ _____ _____    ______ ____
ROOT
ATOM      1  C   UNL     1       5.149   4.485  16.179  0.00  0.00    +0.000 A 
ATOM      2  C   UNL     1       4.949   3.803  14.957  0.00  0.00    +0.000 A 
ATOM      3  C   UNL     1       5.808   3.966  13.867  0.00  0.00    +0.000 A 
ATOM      4  C   UNL     1       5.635   3.249  12.667  0.00  0.00    +0.000 A 
ATOM      5  C   UNL     1       6.504   3.448  11.595  0.00  0.00    +0.000 A 
ATOM      6  C   UNL     1       7.533   4.373  11.716  0.00  0.00    +0.000 A 
ATOM      7  C   UNL     1       7.695   5.078  12.914  0.00  0.00    +0.000 A 
ATOM      8  C   UNL     1       6.855   4.885  14.008  0.00  0.00    +0.000 A 
ATOM      9  N   UNL     1       7.071   5.547  15.157  0.00  0.00    +0.000 NA
ATOM     10  C   UNL     1       6.281   5.345  16.252  0.00  0.00    +0.000 A 
ENDROOT
BRANCH   1  15
ATOM     11 CL   UNL     1       0.664   3.407  20.036  0.00  0.00    +0.000 Cl
ATOM     12  C   UNL     1       2.037   3.758  19.062  0.00  0.00    +0.000 A 
ATOM     13  C   UNL     1       2.218   5.038  18.553  0.00  0.00    +0.000 A 
ATOM     14  C   UNL     1       3.261   5.286  17.654  0.00  0.00    +0.000 A 
ATOM     15  C   UNL     1       4.160   4.270  17.273  0.00  0.00    +0.000 A 
ATOM     16  C   UNL     1       4.041   3.034  17.931  0.00  0.00    +0.000 A 
ATOM     17  C   UNL     1       2.953   2.756  18.766  0.00  0.00    +0.000 A 
ENDBRANCH   1  15
BRANCH  10  18
ATOM     18  N   UNL     1       6.711   6.001  17.387  0.00  0.00    +0.000 N 
ATOM     19  C   UNL     1       6.896   7.460  17.347  0.00  0.00    +0.000 C 
ATOM     20  C   UNL     1       8.206   7.864  18.043  0.00  0.00    +0.000 C 
ATOM     21  O   UNL     1       8.305   7.315  19.367  0.00  0.00    +0.000 OA
ATOM     22  C   UNL     1       8.280   5.882  19.300  0.00  0.00    +0.000 C 
ATOM     23  C   UNL     1       6.967   5.381  18.686  0.00  0.00    +0.000 C 
ENDBRANCH  10  18
TORSDOF 2
ENDMDL
MODEL 3
REMARK VINA RESULT:      -8.4      0.273      1.038
REMARK  Name = 
REMARK  2 active torsions:
REMARK  status: ('A' for Active; 'I' for Inactive)
REMARK    1  A    between atoms: C_5  and  C_6
REMARK    2  A    between atoms: C_15  and  N_16
REMARK                            x       y       z     vdW  Elec       q    Type
REMARK                         _______ _______ _______ _____ _____    ______ ____
ROOT
ATOM      1  C   UNL     1       3.161   6.378  18.057  0.00  0.00    +0.000 A 
ATOM      2  C   UNL     1       4.019   6.739  16.992  0.00  0.00    +0.000 A 
ATOM      3  C   UNL     1       4.873   5.816  16.384  0.00  0.00    +0.000 A 
ATOM      4  C   UNL     1       5.691   6.164  15.292  0.00  0.00    +0.000 A 
ATOM      5  C   UNL     1       6.543   5.221  14.718  0.00  0.00    +0.000 A 
ATOM      6  C   UNL     1       6.589   3.937  15.245  0.00  0.00    +0.000 A 
ATOM      7  C   UNL     1       5.769   3.602  16.330  0.00  0.00    +0.000 A 
ATOM      8  C   UNL     1       4.895   4.519  16.909  0.00  0.00    +0.000 A 
ATOM      9  N   UNL     1       4.091   4.146  17.919  0.00  0.00    +0.000 NA
ATOM     10  C   UNL     1       3.201   5.019  18.477  0.00  0.00    +0.000 A 
ENDROOT
BRANCH   1  15
ATOM     11 CL   UNL     1       0.383  11.041  20.645  0.00  0.00    +0.000 Cl
ATOM     12  C   UNL     1       1.030   9.641  19.884  0.00  0.00    +0.000 A 
ATOM     13  C   UNL     1       1.378   8.534  20.647  0.00  0.00    +0.000 A 
ATOM     14  C   UNL     1       2.026   7.451  20.042  0.00  0.00    +0.000 A 
ATOM     15  C   UNL     1       2.309   7.440  18.662  0.00  0.00    +0.000 A 
ATOM     16  C   UNL     1       1.799   8.505  17.900  0.00  0.00    +0.000 A 
ATOM     17  C   UNL     1       1.225   9.627  18.508  0.00  0.00    +0.000 A 
ENDBRANCH   1  15
BRANCH  10  18
ATOM     18  N   UNL     1       2.363   4.449  19.412  0.00  0.00    +0.000 N 
ATOM     19  C   UNL     1       2.784   4.400  20.821  0.00  0.00    +0.000 C 
ATOM     20  C   UNL     1       2.476   3.025  21.436  0.00  0.00    +0.000 C 
ATOM     21  O   UNL     1       1.105   2.641  21.240  0.00  0.00    +0.000 OA
ATOM     22  C   UNL     1       0.823   2.555  19.835  0.00  0.00    +0.000 C 
ATOM     23  C   UNL     1       1.029   3.909  19.147  0.00  0.00    +0.000 C 
ENDBRANCH  10  18
TORSDOF 2
ENDMDL
MODEL 4
REMARK VINA RESULT:      -8.2      3.391      5.301
REMARK  Name = 
REMARK  2 active torsions:
REMARK  status: ('A' for Active; 'I' for Inactive)
REMARK    1  A    between atoms: C_5  and  C_6
REMARK    2  A    between atoms: C_15  and  N_16
REMARK                            x       y       z     vdW  Elec       q    Type
REMARK                         _______ _______ _______ _____ _____    ______ ____
ROOT
ATOM      1  C   UNL     1       5.093   4.520  16.151  0.00  0.00    +0.000 A 
ATOM      2  C   UNL     1       4.893   3.850  14.921  0.00  0.00    +0.000 A 
ATOM      3  C   UNL     1       5.780   3.985  13.850  0.00  0.00    +0.000 A 
ATOM      4  C   UNL     1       5.606   3.280  12.644  0.00  0.00    +0.000 A 
ATOM      5  C   UNL     1       6.504   3.450  11.590  0.00  0.00    +0.000 A 
ATOM      6  C   UNL     1       7.563   4.337  11.736  0.00  0.00    +0.000 A 
ATOM      7  C   UNL     1       7.726   5.031  12.941  0.00  0.00    +0.000 A 
ATOM      8  C   UNL     1       6.857   4.865  14.016  0.00  0.00    +0.000 A 
ATOM      9  N   UNL     1       7.073   5.515  15.172  0.00  0.00    +0.000 NA
ATOM     10  C   UNL     1       6.254   5.338  16.250  0.00  0.00    +0.000 A 
ENDROOT
BRANCH   1  15
ATOM     11 CL   UNL     1       1.547   3.969  20.975  0.00  0.00    +0.000 Cl
ATOM     12  C   UNL     1       2.432   4.083  19.505  0.00  0.00    +0.000 A 
ATOM     13  C   UNL     1       3.106   2.973  19.012  0.00  0.00    +0.000 A 
ATOM     14  C   UNL     1       3.932   3.104  17.890  0.00  0.00    +0.000 A 
ATOM     15  C   UNL     1       4.075   4.338  17.222  0.00  0.00    +0.000 A 
ATOM     16  C   UNL     1       3.255   5.394  17.655  0.00  0.00    +0.000 A 
ATOM     17  C   UNL     1       2.492   5.293  18.823  0.00  0.00    +0.000 A 
ENDBRANCH   1  15
BRANCH  10  18
ATOM     18  N   UNL     1       6.684   5.975  17.396  0.00  0.00    +0.000 N 
ATOM     19  C   UNL     1       6.892   7.431  17.375  0.00  0.00    +0.000 C 
ATOM     20  C   UNL     1       8.202   7.806  18.087  0.00  0.00    +0.000 C 
ATOM     21  O   UNL     1       8.281   7.240  19.405  0.00  0.00    +0.000 OA
ATOM     22  C   UNL     1       8.234   5.808  19.321  0.00  0.00    +0.000 C 
ATOM     23  C   UNL     1       6.919   5.336  18.690  0.00  0.00    +0.000 C 
ENDBRANCH  10  18
TORSDOF 2
ENDMDL
MODEL 5
REMARK VINA RESULT:      -7.9      0.781      1.621
REMARK  Name = 
REMARK  2 active torsions:
REMARK  status: ('A' for Active; 'I' for Inactive)
REMARK    1  A    between atoms: C_5  and  C_6
REMARK    2  A    between atoms: C_15  and  N_16
REMARK                            x       y       z     vdW  Elec       q    Type
REMARK                         _______ _______ _______ _____ _____    ______ ____
ROOT
ATOM      1  C   UNL     1       3.412   5.843  17.995  0.00  0.00    +0.000 A 
ATOM      2  C   UNL     1       4.185   6.386  16.942  0.00  0.00    +0.000 A 
ATOM      3  C   UNL     1       5.032   5.596  16.161  0.00  0.00    +0.000 A 
ATOM      4  C   UNL     1       5.764   6.129  15.082  0.00  0.00    +0.000 A 
ATOM      5  C   UNL     1       6.611   5.314  14.332  0.00  0.00    +0.000 A 
ATOM      6  C   UNL     1       6.739   3.973  14.670  0.00  0.00    +0.000 A 
ATOM      7  C   UNL     1       6.005   3.455  15.744  0.00  0.00    +0.000 A 
ATOM      8  C   UNL     1       5.137   4.241  16.497  0.00  0.00    +0.000 A 
ATOM      9  N   UNL     1       4.415   3.696  17.491  0.00  0.00    +0.000 NA
ATOM     10  C   UNL     1       3.531   4.442  18.217  0.00  0.00    +0.000 A 
ENDROOT
BRANCH   1  15
ATOM     11 CL   UNL     1       0.641   9.951  21.400  0.00  0.00    +0.000 Cl
ATOM     12  C   UNL     1       1.286   8.711  20.399  0.00  0.00    +0.000 A 
ATOM     13  C   UNL     1       1.681   7.502  20.958  0.00  0.00    +0.000 A 
ATOM     14  C   UNL     1       2.327   6.548  20.164  0.00  0.00    +0.000 A 
ATOM     15  C   UNL     1       2.563   6.771  18.792  0.00  0.00    +0.000 A 
ATOM     16  C   UNL     1       2.007   7.934  18.232  0.00  0.00    +0.000 A 
ATOM     17  C   UNL     1       1.435   8.927  19.034  0.00  0.00    +0.000 A 
ENDBRANCH   1  15
BRANCH  10  18
ATOM     18  N   UNL     1       2.778   3.710  19.111  0.00  0.00    +0.000 N 
ATOM     19  C   UNL     1       1.370   3.420  18.797  0.00  0.00    +0.000 C 
ATOM     20  C   UNL     1       0.479   3.635  20.031  0.00  0.00    +0.000 C 
ATOM     21  O   UNL     1       0.964   2.918  21.179  0.00  0.00    +0.000 OA
ATOM     22  C   UNL     1       2.282   3.379  21.515  0.00  0.00    +0.000 C 
ATOM     23  C   UNL     1       3.263   3.132  20.364  0.00  0.00    +0.000 C 
ENDBRANCH  10  18
TORSDOF 2
ENDMDL
MODEL 6
REMARK VINA RESULT:      -7.8      0.783      1.280
REMARK  Name = 
REMARK  2 active torsions:
REMARK  status: ('A' for Active; 'I' for Inactive)
REMARK    1  A    between atoms: C_5  and  C_6
REMARK    2  A    between atoms: C_15  and  N_16
REMARK                            x       y       z     vdW  Elec       q    Type
REMARK                         _______ _______ _______ _____ _____    ______ ____
ROOT
ATOM      1  C   UNL     1       3.548   5.884  17.992  0.00  0.00    +0.000 A 
ATOM      2  C   UNL     1       4.322   6.395  16.924  0.00  0.00    +0.000 A 
ATOM      3  C   UNL     1       5.075   5.565  16.089  0.00  0.00    +0.000 A 
ATOM      4  C   UNL     1       5.806   6.070  14.997  0.00  0.00    +0.000 A 
ATOM      5  C   UNL     1       6.558   5.213  14.194  0.00  0.00    +0.000 A 
ATOM      6  C   UNL     1       6.593   3.857  14.493  0.00  0.00    +0.000 A 
ATOM      7  C   UNL     1       5.860   3.367  15.580  0.00  0.00    +0.000 A 
ATOM      8  C   UNL     1       5.085   4.197  16.387  0.00  0.00    +0.000 A 
ATOM      9  N   UNL     1       4.360   3.682  17.394  0.00  0.00    +0.000 NA
ATOM     10  C   UNL     1       3.565   4.473  18.173  0.00  0.00    +0.000 A 
ENDROOT
BRANCH   1  15
ATOM     11 CL   UNL     1      -0.095   9.422  21.210  0.00  0.00    +0.000 Cl
ATOM     12  C   UNL     1       1.071   8.501  20.346  0.00  0.00    +0.000 A 
ATOM     13  C   UNL     1       1.426   8.867  19.054  0.00  0.00    +0.000 A 
ATOM     14  C   UNL     1       2.273   8.041  18.306  0.00  0.00    +0.000 A 
ATOM     15  C   UNL     1       2.805   6.852  18.845  0.00  0.00    +0.000 A 
ATOM     16  C   UNL     1       2.550   6.601  20.204  0.00  0.00    +0.000 A 
ATOM     17  C   UNL     1       1.640   7.376  20.931  0.00  0.00    +0.000 A 
ENDBRANCH   1  15
BRANCH  10  18
ATOM     18  N   UNL     1       2.789   3.776  19.077  0.00  0.00    +0.000 N 
ATOM     19  C   UNL     1       1.352   3.607  18.811  0.00  0.00    +0.000 C 
ATOM     20  C   UNL     1       0.528   3.855  20.085  0.00  0.00    +0.000 C 
ATOM     21  O   UNL     1       0.997   3.069  21.193  0.00  0.00    +0.000 OA
ATOM     22  C   UNL     1       2.359   3.415  21.489  0.00  0.00    +0.000 C 
ATOM     23  C   UNL     1       3.274   3.125  20.293  0.00  0.00    +0.000 C 
ENDBRANCH  10  18
TORSDOF 2
ENDMDL
MODEL 7
REMARK VINA RESULT:      -7.8      4.178      6.823
REMARK  Name = 
REMARK  2 active torsions:
REMARK  status: ('A' for Active; 'I' for Inactive)
REMARK    1  A    between atoms: C_5  and  C_6
REMARK    2  A    between atoms: C_15  and  N_16
REMARK                            x       y       z     vdW  Elec       q    Type
REMARK                         _______ _______ _______ _____ _____    ______ ____
ROOT
ATOM      1  C   UNL     1       4.491   4.183  17.291  0.00  0.00    +0.000 A 
ATOM      2  C   UNL     1       3.342   3.358  17.304  0.00  0.00    +0.000 A 
ATOM      3  C   UNL     1       2.515   3.255  18.426  0.00  0.00    +0.000 A 
ATOM      4  C   UNL     1       1.345   2.471  18.421  0.00  0.00    +0.000 A 
ATOM      5  C   UNL     1       0.552   2.380  19.564  0.00  0.00    +0.000 A 
ATOM      6  C   UNL     1       0.936   3.057  20.714  0.00  0.00    +0.000 A 
ATOM      7  C   UNL     1       2.100   3.834  20.705  0.00  0.00    +0.000 A 
ATOM      8  C   UNL     1       2.901   3.959  19.573  0.00  0.00    +0.000 A 
ATOM      9  N   UNL     1       3.986   4.751  19.591  0.00  0.00    +0.000 NA
ATOM     10  C   UNL     1       4.763   4.916  18.480  0.00  0.00    +0.000 A 
ENDROOT
BRANCH   1  15
ATOM     11 CL   UNL     1       7.754   5.026  12.312  0.00  0.00    +0.000 Cl
ATOM     12  C   UNL     1       6.852   4.626  13.720  0.00  0.00    +0.000 A 
ATOM     13  C   UNL     1       5.498   4.334  13.618  0.00  0.00    +0.000 A 
ATOM     14  C   UNL     1       4.740   4.140  14.778  0.00  0.00    +0.000 A 
ATOM     15  C   UNL     1       5.326   4.202  16.058  0.00  0.00    +0.000 A 
ATOM     16  C   UNL     1       6.724   4.339  16.112  0.00  0.00    +0.000 A 
ATOM     17  C   UNL     1       7.474   4.616  14.963  0.00  0.00    +0.000 A 
ENDBRANCH   1  15
BRANCH  10  18
ATOM     18  N   UNL     1       5.760   5.858  18.624  0.00  0.00    +0.000 N 
ATOM     19  C   UNL     1       5.660   7.130  17.894  0.00  0.00    +0.000 C 
ATOM     20  C   UNL     1       7.013   7.511  17.270  0.00  0.00    +0.000 C 
ATOM     21  O   UNL     1       8.076   7.494  18.236  0.00  0.00    +0.000 OA
ATOM     22  C   UNL     1       8.212   6.173  18.782  0.00  0.00    +0.000 C 
ATOM     23  C   UNL     1       6.928   5.737  19.497  0.00  0.00    +0.000 C 
ENDBRANCH  10  18
TORSDOF 2
ENDMDL
MODEL 8
REMARK VINA RESULT:      -7.5      2.785      5.775
REMARK  Name = 
REMARK  2 active torsions:
REMARK  status: ('A' for Active; 'I' for Inactive)
REMARK    1  A    between atoms: C_5  and  C_6
REMARK    2  A    between atoms: C_15  and  N_16
REMARK                            x       y       z     vdW  Elec       q    Type
REMARK                         _______ _______ _______ _____ _____    ______ ____
ROOT
ATOM      1  C   UNL     1       3.301   6.690  18.173  0.00  0.00    +0.000 A 
ATOM      2  C   UNL     1       2.907   7.982  17.754  0.00  0.00    +0.000 A 
ATOM      3  C   UNL     1       2.076   8.792  18.532  0.00  0.00    +0.000 A 
ATOM      4  C   UNL     1       1.724  10.097  18.136  0.00  0.00    +0.000 A 
ATOM      5  C   UNL     1       0.880  10.872  18.930  0.00  0.00    +0.000 A 
ATOM      6  C   UNL     1       0.376  10.339  20.109  0.00  0.00    +0.000 A 
ATOM      7  C   UNL     1       0.735   9.041  20.493  0.00  0.00    +0.000 A 
ATOM      8  C   UNL     1       1.591   8.252  19.729  0.00  0.00    +0.000 A 
ATOM      9  N   UNL     1       1.948   7.028  20.154  0.00  0.00    +0.000 NA
ATOM     10  C   UNL     1       2.816   6.254  19.439  0.00  0.00    +0.000 A 
ENDROOT
BRANCH   1  15
ATOM     11 CL   UNL     1       6.368   3.761  13.912  0.00  0.00    +0.000 Cl
ATOM     12  C   UNL     1       5.587   4.524  15.239  0.00  0.00    +0.000 A 
ATOM     13  C   UNL     1       4.490   3.919  15.841  0.00  0.00    +0.000 A 
ATOM     14  C   UNL     1       3.777   4.604  16.832  0.00  0.00    +0.000 A 
ATOM     15  C   UNL     1       4.164   5.889  17.261  0.00  0.00    +0.000 A 
ATOM     16  C   UNL     1       5.368   6.397  16.744  0.00  0.00    +0.000 A 
ATOM     17  C   UNL     1       6.039   5.756  15.696  0.00  0.00    +0.000 A 
ENDBRANCH   1  15
BRANCH  10  18
ATOM     18  N   UNL     1       3.180   5.083  20.071  0.00  0.00    +0.000 N 
ATOM     19  C   UNL     1       4.557   4.587  19.929  0.00  0.00    +0.000 C 
ATOM     20  C   UNL     1       4.569   3.071  19.674  0.00  0.00    +0.000 C 
ATOM     21  O   UNL     1       3.806   2.353  20.658  0.00  0.00    +0.000 OA
ATOM     22  C   UNL     1       2.437   2.784  20.617  0.00  0.00    +0.000 C 
ATOM     23  C   UNL     1       2.320   4.278  20.939  0.00  0.00    +0.000 C 
ENDBRANCH  10  18
TORSDOF 2
ENDMDL
MODEL 9
REMARK VINA RESULT:      -7.3      3.315      5.118
REMARK  Name = 
REMARK  2 active torsions:
REMARK  status: ('A' for Active; 'I' for Inactive)
REMARK    1  A    between atoms: C_5  and  C_6
REMARK    2  A    between atoms: C_15  and  N_16
REMARK                            x       y       z     vdW  Elec       q    Type
REMARK                         _______ _______ _______ _____ _____    ______ ____
ROOT
ATOM      1  C   UNL     1       5.329   4.828  16.112  0.00  0.00    +0.000 A 
ATOM      2  C   UNL     1       4.739   4.164  15.012  0.00  0.00    +0.000 A 
ATOM      3  C   UNL     1       5.424   3.965  13.810  0.00  0.00    +0.000 A 
ATOM      4  C   UNL     1       4.852   3.261  12.733  0.00  0.00    +0.000 A 
ATOM      5  C   UNL     1       5.559   3.095  11.543  0.00  0.00    +0.000 A 
ATOM      6  C   UNL     1       6.829   3.645  11.425  0.00  0.00    +0.000 A 
ATOM      7  C   UNL     1       7.387   4.341  12.503  0.00  0.00    +0.000 A 
ATOM      8  C   UNL     1       6.711   4.505  13.710  0.00  0.00    +0.000 A 
ATOM      9  N   UNL     1       7.300   5.140  14.737  0.00  0.00    +0.000 NA
ATOM     10  C   UNL     1       6.668   5.280  15.940  0.00  0.00    +0.000 A 
ENDROOT
BRANCH   1  15
ATOM     11 CL   UNL     1       1.400   5.442  20.621  0.00  0.00    +0.000 Cl
ATOM     12  C   UNL     1       2.641   5.303  19.439  0.00  0.00    +0.000 A 
ATOM     13  C   UNL     1       3.018   6.414  18.695  0.00  0.00    +0.000 A 
ATOM     14  C   UNL     1       3.932   6.268  17.645  0.00  0.00    +0.000 A 
ATOM     15  C   UNL     1       4.508   5.019  17.339  0.00  0.00    +0.000 A 
ATOM     16  C   UNL     1       4.223   3.957  18.214  0.00  0.00    +0.000 A 
ATOM     17  C   UNL     1       3.250   4.075  19.212  0.00  0.00    +0.000 A 
ENDBRANCH   1  15
BRANCH  10  18
ATOM     18  N   UNL     1       7.453   5.839  16.927  0.00  0.00    +0.000 N 
ATOM     19  C   UNL     1       7.884   5.008  18.061  0.00  0.00    +0.000 C 
ATOM     20  C   UNL     1       7.733   5.772  19.387  0.00  0.00    +0.000 C 
ATOM     21  O   UNL     1       8.378   7.055  19.347  0.00  0.00    +0.000 OA
ATOM     22  C   UNL     1       7.786   7.862  18.318  0.00  0.00    +0.000 C 
ATOM     23  C   UNL     1       7.958   7.212  16.940  0.00  0.00    +0.000 C 
ENDBRANCH  10  18
TORSDOF 2
ENDMDL
