MODEL 1
REMARK VINA RESULT:      -8.3      0.000      0.000
REMARK  Name = 
REMARK  7 active torsions:
REMARK  status: ('A' for Active; 'I' for Inactive)
REMARK    1  A    between atoms: C_1  and  C_2
REMARK    2  A    between atoms: C_2  and  N_3
REMARK    3  A    between atoms: N_6  and  C_7
REMARK    4  A    between atoms: C_7  and  C_8
REMARK    5  A    between atoms: C_11  and  N_12
REMARK    6  A    between atoms: C_17  and  N_18
REMARK    7  A    between atoms: C_19  and  C_21
REMARK                            x       y       z     vdW  Elec       q    Type
REMARK                         _______ _______ _______ _____ _____    ______ ____
ROOT
ATOM      1  N   UNL     1       6.372   6.817  16.863  0.00  0.00    +0.000 N 
ATOM      2  C   UNL     1       6.777   5.736  16.050  0.00  0.00    +0.000 A 
ATOM      3  O   UNL     1       7.808   5.648  15.401  0.00  0.00    +0.000 OA
ATOM      4  N   UNL     1       5.751   4.768  16.142  0.00  0.00    +0.000 N 
ATOM      5  C   UNL     1       4.778   5.227  17.047  0.00  0.00    +0.000 A 
ATOM      6  C   UNL     1       3.639   4.595  17.516  0.00  0.00    +0.000 A 
ATOM      7  C   UNL     1       2.821   5.267  18.444  0.00  0.00    +0.000 A 
ATOM      8  C   UNL     1       3.190   6.605  18.811  0.00  0.00    +0.000 A 
ATOM      9  C   UNL     1       4.356   7.223  18.323  0.00  0.00    +0.000 A 
ATOM     10  C   UNL     1       5.144   6.499  17.462  0.00  0.00    +0.000 A 
ENDROOT
BRANCH   7  11
ATOM     11  N   UNL     1       1.643   4.691  18.966  0.00  0.00    +0.000 N 
ATOM     12  C   UNL     1       1.450   4.523  20.418  0.00  0.00    +0.000 C 
ATOM     13  C   UNL     1       1.165   3.037  20.615  0.00  0.00    +0.000 C 
ATOM     14  C   UNL     1       0.472   2.647  19.327  0.00  0.00    +0.000 C 
ATOM     15  C   UNL     1       1.213   3.458  18.270  0.00  0.00    +0.000 C 
ENDBRANCH   7  11
BRANCH   8  16
ATOM     16  N   UNL     1       2.400   7.282  19.763  0.00  0.00    +0.000 N 
ATOM     17  C   UNL     1       1.659   8.413  19.485  0.00  0.00    +0.000 C 
ATOM     18  O   UNL     1       1.531   8.898  18.362  0.00  0.00    +0.000 OA
ATOM     19  H   UNL     1       2.187   6.740  20.596  0.00  0.00    +0.000 HD
BRANCH  17  20
ATOM     20  C   UNL     1       0.935   9.046  20.620  0.00  0.00    +0.000 A 
ATOM     21  C   UNL     1       0.309   8.215  21.565  0.00  0.00    +0.000 A 
ATOM     22  C   UNL     1      -0.479   8.763  22.580  0.00  0.00    +0.000 A 
ATOM     23  C   UNL     1      -0.649  10.144  22.663  0.00  0.00    +0.000 A 
ATOM     24  C   UNL     1      -0.007  10.977  21.749  0.00  0.00    +0.000 A 
ATOM     25  C   UNL     1       0.785  10.428  20.741  0.00  0.00    +0.000 A 
ATOM     26  F   UNL     1       1.390  11.270  19.891  0.00  0.00    +0.000 F 
ENDBRANCH  17  20
ENDBRANCH   8  16
BRANCH   1  28
ATOM     27  C   UNL     1       8.163   7.724  18.281  0.00  0.00    +0.000 C 
ATOM     28  C   UNL     1       7.179   7.977  17.148  0.00  0.00    +0.000 C 
ENDBRANCH   1  28
BRANCH   4  29
ATOM     29  C   UNL     1       5.734   3.515  15.438  0.00  0.00    +0.000 C 
ATOM     30  C   UNL     1       5.689   3.688  13.929  0.00  0.00    +0.000 C 
ENDBRANCH   4  29
TORSDOF 5
ENDMDL
MODEL 2
REMARK VINA RESULT:      -8.1      2.504      7.350
REMARK  Name = 
REMARK  7 active torsions:
REMARK  status: ('A' for Active; 'I' for Inactive)
REMARK    1  A    between atoms: C_1  and  C_2
REMARK    2  A    between atoms: C_2  and  N_3
REMARK    3  A    between atoms: N_6  and  C_7
REMARK    4  A    between atoms: C_7  and  C_8
REMARK    5  A    between atoms: C_11  and  N_12
REMARK    6  A    between atoms: C_17  and  N_18
REMARK    7  A    between atoms: C_19  and  C_21
REMARK                            x       y       z     vdW  Elec       q    Type
REMARK                         _______ _______ _______ _____ _____    ______ ____
ROOT
ATOM      1  N   UNL     1       1.038  10.318  19.397  0.00  0.00    +0.000 N 
ATOM      2  C   UNL     1       0.197  10.482  20.520  0.00  0.00    +0.000 A 
ATOM      3  O   UNL     1      -0.415  11.488  20.841  0.00  0.00    +0.000 OA
ATOM      4  N   UNL     1       0.198   9.241  21.196  0.00  0.00    +0.000 N 
ATOM      5  C   UNL     1       0.970   8.326  20.459  0.00  0.00    +0.000 A 
ATOM      6  C   UNL     1       1.196   6.978  20.682  0.00  0.00    +0.000 A 
ATOM      7  C   UNL     1       2.005   6.265  19.778  0.00  0.00    +0.000 A 
ATOM      8  C   UNL     1       2.603   6.997  18.698  0.00  0.00    +0.000 A 
ATOM      9  C   UNL     1       2.354   8.366  18.491  0.00  0.00    +0.000 A 
ATOM     10  C   UNL     1       1.512   8.998  19.374  0.00  0.00    +0.000 A 
ENDROOT
BRANCH   7  11
ATOM     11  N   UNL     1       2.284   4.890  19.939  0.00  0.00    +0.000 N 
ATOM     12  C   UNL     1       1.550   3.865  19.176  0.00  0.00    +0.000 C 
ATOM     13  C   UNL     1       0.962   2.927  20.225  0.00  0.00    +0.000 C 
ATOM     14  C   UNL     1       1.974   2.994  21.350  0.00  0.00    +0.000 C 
ATOM     15  C   UNL     1       2.402   4.458  21.349  0.00  0.00    +0.000 C 
ENDBRANCH   7  11
BRANCH   8  16
ATOM     16  N   UNL     1       3.392   6.293  17.765  0.00  0.00    +0.000 N 
ATOM     17  C   UNL     1       4.685   5.878  18.009  0.00  0.00    +0.000 C 
ATOM     18  O   UNL     1       5.257   5.990  19.091  0.00  0.00    +0.000 OA
ATOM     19  H   UNL     1       2.867   5.869  17.005  0.00  0.00    +0.000 HD
BRANCH  17  20
ATOM     20  C   UNL     1       5.404   5.207  16.892  0.00  0.00    +0.000 A 
ATOM     21  C   UNL     1       6.551   5.824  16.363  0.00  0.00    +0.000 A 
ATOM     22  C   UNL     1       7.190   5.292  15.241  0.00  0.00    +0.000 A 
ATOM     23  C   UNL     1       6.693   4.139  14.637  0.00  0.00    +0.000 A 
ATOM     24  C   UNL     1       5.576   3.502  15.173  0.00  0.00    +0.000 A 
ATOM     25  C   UNL     1       4.944   4.032  16.298  0.00  0.00    +0.000 A 
ATOM     26  F   UNL     1       3.878   3.378  16.783  0.00  0.00    +0.000 F 
ENDBRANCH  17  20
ENDBRANCH   8  16
BRANCH   1  28
ATOM     27  C   UNL     1       2.174  12.417  18.810  0.00  0.00    +0.000 C 
ATOM     28  C   UNL     1       1.233  11.307  18.366  0.00  0.00    +0.000 C 
ENDBRANCH   1  28
BRANCH   4  29
ATOM     29  C   UNL     1      -0.501   8.970  22.423  0.00  0.00    +0.000 C 
ATOM     30  C   UNL     1       0.221   9.513  23.644  0.00  0.00    +0.000 C 
ENDBRANCH   4  29
TORSDOF 5
ENDMDL
MODEL 3
REMARK VINA RESULT:      -8.0      0.878      1.253
REMARK  Name = 
REMARK  7 active torsions:
REMARK  status: ('A' for Active; 'I' for Inactive)
REMARK    1  A    between atoms: C_1  and  C_2
REMARK    2  A    between atoms: C_2  and  N_3
REMARK    3  A    between atoms: N_6  and  C_7
REMARK    4  A    between atoms: C_7  and  C_8
REMARK    5  A    between atoms: C_11  and  N_12
REMARK    6  A    between atoms: C_17  and  N_18
REMARK    7  A    between atoms: C_19  and  C_21
REMARK                            x       y       z     vdW  Elec       q    Type
REMARK                         _______ _______ _______ _____ _____    ______ ____
ROOT
ATOM      1  N   UNL     1       6.342   6.942  16.858  0.00  0.00    +0.000 N 
ATOM      2  C   UNL     1       6.800   5.847  16.093  0.00  0.00    +0.000 A 
ATOM      3  O   UNL     1       7.849   5.768  15.474  0.00  0.00    +0.000 OA
ATOM      4  N   UNL     1       5.801   4.852  16.193  0.00  0.00    +0.000 N 
ATOM      5  C   UNL     1       4.792   5.313  17.057  0.00  0.00    +0.000 A 
ATOM      6  C   UNL     1       3.660   4.663  17.520  0.00  0.00    +0.000 A 
ATOM      7  C   UNL     1       2.799   5.342  18.403  0.00  0.00    +0.000 A 
ATOM      8  C   UNL     1       3.119   6.701  18.732  0.00  0.00    +0.000 A 
ATOM      9  C   UNL     1       4.279   7.337  18.252  0.00  0.00    +0.000 A 
ATOM     10  C   UNL     1       5.110   6.608  17.436  0.00  0.00    +0.000 A 
ENDROOT
BRANCH   7  11
ATOM     11  N   UNL     1       1.625   4.748  18.915  0.00  0.00    +0.000 N 
ATOM     12  C   UNL     1       1.476   4.460  20.353  0.00  0.00    +0.000 C 
ATOM     13  C   UNL     1       1.162   2.969  20.433  0.00  0.00    +0.000 C 
ATOM     14  C   UNL     1       0.416   2.707  19.142  0.00  0.00    +0.000 C 
ATOM     15  C   UNL     1       1.141   3.590  18.132  0.00  0.00    +0.000 C 
ENDBRANCH   7  11
BRANCH   8  16
ATOM     16  N   UNL     1       2.285   7.387  19.641  0.00  0.00    +0.000 N 
ATOM     17  C   UNL     1       1.584   8.533  19.327  0.00  0.00    +0.000 C 
ATOM     18  O   UNL     1       1.532   9.029  18.203  0.00  0.00    +0.000 OA
ATOM     19  H   UNL     1       2.012   6.843  20.454  0.00  0.00    +0.000 HD
BRANCH  17  20
ATOM     20  C   UNL     1       0.803   9.172  20.422  0.00  0.00    +0.000 A 
ATOM     21  C   UNL     1       0.781  10.575  20.501  0.00  0.00    +0.000 A 
ATOM     22  C   UNL     1       0.160  11.215  21.576  0.00  0.00    +0.000 A 
ATOM     23  C   UNL     1      -0.446  10.463  22.580  0.00  0.00    +0.000 A 
ATOM     24  C   UNL     1      -0.457   9.072  22.494  0.00  0.00    +0.000 A 
ATOM     25  C   UNL     1       0.158   8.435  21.415  0.00  0.00    +0.000 A 
ATOM     26  F   UNL     1       0.114   7.096  21.371  0.00  0.00    +0.000 F 
ENDBRANCH  17  20
ENDBRANCH   8  16
BRANCH   1  28
ATOM     27  C   UNL     1       8.152   7.915  18.207  0.00  0.00    +0.000 C 
ATOM     28  C   UNL     1       7.108   8.135  17.122  0.00  0.00    +0.000 C 
ENDBRANCH   1  28
BRANCH   4  29
ATOM     29  C   UNL     1       5.838   3.576  15.532  0.00  0.00    +0.000 C 
ATOM     30  C   UNL     1       5.726   3.692  14.022  0.00  0.00    +0.000 C 
ENDBRANCH   4  29
TORSDOF 5
ENDMDL
MODEL 4
REMARK VINA RESULT:      -7.8      2.413      7.252
REMARK  Name = 
REMARK  7 active torsions:
REMARK  status: ('A' for Active; 'I' for Inactive)
REMARK    1  A    between atoms: C_1  and  C_2
REMARK    2  A    between atoms: C_2  and  N_3
REMARK    3  A    between atoms: N_6  and  C_7
REMARK    4  A    between atoms: C_7  and  C_8
REMARK    5  A    between atoms: C_11  and  N_12
REMARK    6  A    between atoms: C_17  and  N_18
REMARK    7  A    between atoms: C_19  and  C_21
REMARK                            x       y       z     vdW  Elec       q    Type
REMARK                         _______ _______ _______ _____ _____    ______ ____
ROOT
ATOM      1  N   UNL     1       0.935  10.395  19.446  0.00  0.00    +0.000 N 
ATOM      2  C   UNL     1       0.188  10.574  20.631  0.00  0.00    +0.000 A 
ATOM      3  O   UNL     1      -0.385  11.588  20.995  0.00  0.00    +0.000 OA
ATOM      4  N   UNL     1       0.230   9.336  21.313  0.00  0.00    +0.000 N 
ATOM      5  C   UNL     1       0.931   8.409  20.521  0.00  0.00    +0.000 A 
ATOM      6  C   UNL     1       1.159   7.060  20.733  0.00  0.00    +0.000 A 
ATOM      7  C   UNL     1       1.885   6.333  19.771  0.00  0.00    +0.000 A 
ATOM      8  C   UNL     1       2.402   7.053  18.642  0.00  0.00    +0.000 A 
ATOM      9  C   UNL     1       2.152   8.424  18.448  0.00  0.00    +0.000 A 
ATOM     10  C   UNL     1       1.391   9.070  19.393  0.00  0.00    +0.000 A 
ENDROOT
BRANCH   7  11
ATOM     11  N   UNL     1       2.161   4.956  19.917  0.00  0.00    +0.000 N 
ATOM     12  C   UNL     1       1.412   3.940  19.155  0.00  0.00    +0.000 C 
ATOM     13  C   UNL     1       0.835   2.996  20.206  0.00  0.00    +0.000 C 
ATOM     14  C   UNL     1       1.864   3.050  21.316  0.00  0.00    +0.000 C 
ATOM     15  C   UNL     1       2.297   4.511  21.321  0.00  0.00    +0.000 C 
ENDBRANCH   7  11
BRANCH   8  16
ATOM     16  N   UNL     1       3.106   6.336  17.652  0.00  0.00    +0.000 N 
ATOM     17  C   UNL     1       4.452   6.040  17.727  0.00  0.00    +0.000 C 
ATOM     18  O   UNL     1       5.162   6.284  18.701  0.00  0.00    +0.000 OA
ATOM     19  H   UNL     1       2.516   5.812  17.012  0.00  0.00    +0.000 HD
BRANCH  17  20
ATOM     20  C   UNL     1       5.057   5.335  16.565  0.00  0.00    +0.000 A 
ATOM     21  C   UNL     1       5.491   4.009  16.735  0.00  0.00    +0.000 A 
ATOM     22  C   UNL     1       6.170   3.347  15.709  0.00  0.00    +0.000 A 
ATOM     23  C   UNL     1       6.420   4.001  14.503  0.00  0.00    +0.000 A 
ATOM     24  C   UNL     1       5.966   5.305  14.315  0.00  0.00    +0.000 A 
ATOM     25  C   UNL     1       5.282   5.960  15.339  0.00  0.00    +0.000 A 
ATOM     26  F   UNL     1       4.856   7.211  15.106  0.00  0.00    +0.000 F 
ENDBRANCH  17  20
ENDBRANCH   8  16
BRANCH   1  28
ATOM     27  C   UNL     1       2.156  12.389  18.687  0.00  0.00    +0.000 C 
ATOM     28  C   UNL     1       1.057  11.377  18.397  0.00  0.00    +0.000 C 
ENDBRANCH   1  28
BRANCH   4  29
ATOM     29  C   UNL     1      -0.371   9.079  22.593  0.00  0.00    +0.000 C 
ATOM     30  C   UNL     1       0.545   9.427  23.754  0.00  0.00    +0.000 C 
ENDBRANCH   4  29
TORSDOF 5
ENDMDL
MODEL 5
REMARK VINA RESULT:      -7.0      2.305      4.445
REMARK  Name = 
REMARK  7 active torsions:
REMARK  status: ('A' for Active; 'I' for Inactive)
REMARK    1  A    between atoms: C_1  and  C_2
REMARK    2  A    between atoms: C_2  and  N_3
REMARK    3  A    between atoms: N_6  and  C_7
REMARK    4  A    between atoms: C_7  and  C_8
REMARK    5  A    between atoms: C_11  and  N_12
REMARK    6  A    between atoms: C_17  and  N_18
REMARK    7  A    between atoms: C_19  and  C_21
REMARK                            x       y       z     vdW  Elec       q    Type
REMARK                         _______ _______ _______ _____ _____    ______ ____
ROOT
ATOM      1  N   UNL     1       3.878   5.577  17.578  0.00  0.00    +0.000 N 
ATOM      2  C   UNL     1       3.914   4.253  18.068  0.00  0.00    +0.000 A 
ATOM      3  O   UNL     1       4.531   3.310  17.598  0.00  0.00    +0.000 OA
ATOM      4  N   UNL     1       3.098   4.239  19.222  0.00  0.00    +0.000 N 
ATOM      5  C   UNL     1       2.633   5.544  19.461  0.00  0.00    +0.000 A 
ATOM      6  C   UNL     1       1.874   6.033  20.511  0.00  0.00    +0.000 A 
ATOM      7  C   UNL     1       1.546   7.402  20.534  0.00  0.00    +0.000 A 
ATOM      8  C   UNL     1       1.975   8.208  19.426  0.00  0.00    +0.000 A 
ATOM      9  C   UNL     1       2.750   7.687  18.374  0.00  0.00    +0.000 A 
ATOM     10  C   UNL     1       3.085   6.356  18.432  0.00  0.00    +0.000 A 
ENDROOT
BRANCH   7  11
ATOM     11  N   UNL     1       0.774   7.974  21.568  0.00  0.00    +0.000 N 
ATOM     12  C   UNL     1      -0.640   8.335  21.358  0.00  0.00    +0.000 C 
ATOM     13  C   UNL     1      -0.734   9.814  21.721  0.00  0.00    +0.000 C 
ATOM     14  C   UNL     1       0.331   9.974  22.786  0.00  0.00    +0.000 C 
ATOM     15  C   UNL     1       1.454   9.067  22.297  0.00  0.00    +0.000 C 
ENDBRANCH   7  11
BRANCH   8  16
ATOM     16  N   UNL     1       1.682   9.588  19.447  0.00  0.00    +0.000 N 
ATOM     17  C   UNL     1       0.812  10.203  18.572  0.00  0.00    +0.000 C 
ATOM     18  O   UNL     1       0.126   9.608  17.742  0.00  0.00    +0.000 OA
ATOM     19  H   UNL     1       1.935  10.059  20.311  0.00  0.00    +0.000 HD
BRANCH  17  20
ATOM     20  C   UNL     1       0.667  11.680  18.684  0.00  0.00    +0.000 A 
ATOM     21  C   UNL     1       1.820  12.478  18.586  0.00  0.00    +0.000 A 
ATOM     22  C   UNL     1       1.750  13.856  18.801  0.00  0.00    +0.000 A 
ATOM     23  C   UNL     1       0.529  14.452  19.114  0.00  0.00    +0.000 A 
ATOM     24  C   UNL     1      -0.625  13.674  19.181  0.00  0.00    +0.000 A 
ATOM     25  C   UNL     1      -0.553  12.299  18.959  0.00  0.00    +0.000 A 
ATOM     26  F   UNL     1      -1.691  11.593  19.026  0.00  0.00    +0.000 F 
ENDBRANCH  17  20
ENDBRANCH   8  16
BRANCH   1  28
ATOM     27  C   UNL     1       6.037   6.550  16.919  0.00  0.00    +0.000 C 
ATOM     28  C   UNL     1       4.666   6.065  16.472  0.00  0.00    +0.000 C 
ENDBRANCH   1  28
BRANCH   4  29
ATOM     29  C   UNL     1       2.820   3.076  20.020  0.00  0.00    +0.000 C 
ATOM     30  C   UNL     1       1.596   2.313  19.543  0.00  0.00    +0.000 C 
ENDBRANCH   4  29
TORSDOF 5
ENDMDL
MODEL 6
REMARK VINA RESULT:      -7.0      2.282      4.382
REMARK  Name = 
REMARK  7 active torsions:
REMARK  status: ('A' for Active; 'I' for Inactive)
REMARK    1  A    between atoms: C_1  and  C_2
REMARK    2  A    between atoms: C_2  and  N_3
REMARK    3  A    between atoms: N_6  and  C_7
REMARK    4  A    between atoms: C_7  and  C_8
REMARK    5  A    between atoms: C_11  and  N_12
REMARK    6  A    between atoms: C_17  and  N_18
REMARK    7  A    between atoms: C_19  and  C_21
REMARK                            x       y       z     vdW  Elec       q    Type
REMARK                         _______ _______ _______ _____ _____    ______ ____
ROOT
ATOM      1  N   UNL     1       3.875   5.642  17.515  0.00  0.00    +0.000 N 
ATOM      2  C   UNL     1       3.907   4.305  17.969  0.00  0.00    +0.000 A 
ATOM      3  O   UNL     1       4.517   3.372  17.471  0.00  0.00    +0.000 OA
ATOM      4  N   UNL     1       3.094   4.263  19.125  0.00  0.00    +0.000 N 
ATOM      5  C   UNL     1       2.636   5.564  19.401  0.00  0.00    +0.000 A 
ATOM      6  C   UNL     1       1.883   6.028  20.466  0.00  0.00    +0.000 A 
ATOM      7  C   UNL     1       1.562   7.397  20.527  0.00  0.00    +0.000 A 
ATOM      8  C   UNL     1       1.991   8.231  19.441  0.00  0.00    +0.000 A 
ATOM      9  C   UNL     1       2.760   7.735  18.372  0.00  0.00    +0.000 A 
ATOM     10  C   UNL     1       3.088   6.401  18.393  0.00  0.00    +0.000 A 
ENDROOT
BRANCH   7  11
ATOM     11  N   UNL     1       0.796   7.945  21.579  0.00  0.00    +0.000 N 
ATOM     12  C   UNL     1      -0.627   8.286  21.394  0.00  0.00    +0.000 C 
ATOM     13  C   UNL     1      -0.739   9.758  21.776  0.00  0.00    +0.000 C 
ATOM     14  C   UNL     1       0.339   9.923  22.828  0.00  0.00    +0.000 C 
ATOM     15  C   UNL     1       1.469   9.039  22.312  0.00  0.00    +0.000 C 
ENDBRANCH   7  11
BRANCH   8  16
ATOM     16  N   UNL     1       1.705   9.611  19.500  0.00  0.00    +0.000 N 
ATOM     17  C   UNL     1       0.829  10.253  18.649  0.00  0.00    +0.000 C 
ATOM     18  O   UNL     1       0.132   9.682  17.812  0.00  0.00    +0.000 OA
ATOM     19  H   UNL     1       1.969  10.058  20.373  0.00  0.00    +0.000 HD
BRANCH  17  20
ATOM     20  C   UNL     1       0.692  11.727  18.801  0.00  0.00    +0.000 A 
ATOM     21  C   UNL     1      -0.541  12.247  19.232  0.00  0.00    +0.000 A 
ATOM     22  C   UNL     1      -0.752  13.627  19.277  0.00  0.00    +0.000 A 
ATOM     23  C   UNL     1       0.264  14.501  18.895  0.00  0.00    +0.000 A 
ATOM     24  C   UNL     1       1.500  13.995  18.497  0.00  0.00    +0.000 A 
ATOM     25  C   UNL     1       1.711  12.617  18.459  0.00  0.00    +0.000 A 
ATOM     26  F   UNL     1       2.919  12.178  18.078  0.00  0.00    +0.000 F 
ENDBRANCH  17  20
ENDBRANCH   8  16
BRANCH   1  28
ATOM     27  C   UNL     1       6.052   6.582  16.868  0.00  0.00    +0.000 C 
ATOM     28  C   UNL     1       4.662   6.156  16.420  0.00  0.00    +0.000 C 
ENDBRANCH   1  28
BRANCH   4  29
ATOM     29  C   UNL     1       2.813   3.081  19.892  0.00  0.00    +0.000 C 
ATOM     30  C   UNL     1       1.519   2.402  19.476  0.00  0.00    +0.000 C 
ENDBRANCH   4  29
TORSDOF 5
ENDMDL
MODEL 7
REMARK VINA RESULT:      -6.9      4.759      8.518
REMARK  Name = 
REMARK  7 active torsions:
REMARK  status: ('A' for Active; 'I' for Inactive)
REMARK    1  A    between atoms: C_1  and  C_2
REMARK    2  A    between atoms: C_2  and  N_3
REMARK    3  A    between atoms: N_6  and  C_7
REMARK    4  A    between atoms: C_7  and  C_8
REMARK    5  A    between atoms: C_11  and  N_12
REMARK    6  A    between atoms: C_17  and  N_18
REMARK    7  A    between atoms: C_19  and  C_21
REMARK                            x       y       z     vdW  Elec       q    Type
REMARK                         _______ _______ _______ _____ _____    ______ ____
ROOT
ATOM      1  N   UNL     1       2.687  15.234  19.085  0.00  0.00    +0.000 N 
ATOM      2  C   UNL     1       1.940  16.364  18.685  0.00  0.00    +0.000 A 
ATOM      3  O   UNL     1       2.354  17.502  18.528  0.00  0.00    +0.000 OA
ATOM      4  N   UNL     1       0.614  15.913  18.496  0.00  0.00    +0.000 N 
ATOM      5  C   UNL     1       0.576  14.524  18.710  0.00  0.00    +0.000 A 
ATOM      6  C   UNL     1      -0.476  13.636  18.564  0.00  0.00    +0.000 A 
ATOM      7  C   UNL     1      -0.256  12.271  18.828  0.00  0.00    +0.000 A 
ATOM      8  C   UNL     1       1.045  11.883  19.292  0.00  0.00    +0.000 A 
ATOM      9  C   UNL     1       2.099  12.805  19.428  0.00  0.00    +0.000 A 
ATOM     10  C   UNL     1       1.841  14.115  19.105  0.00  0.00    +0.000 A 
ENDROOT
BRANCH   7  11
ATOM     11  N   UNL     1      -1.279  11.305  18.704  0.00  0.00    +0.000 N 
ATOM     12  C   UNL     1      -1.383  10.448  17.509  0.00  0.00    +0.000 C 
ATOM     13  C   UNL     1      -2.795  10.671  16.977  0.00  0.00    +0.000 C 
ATOM     14  C   UNL     1      -3.591  10.969  18.231  0.00  0.00    +0.000 C 
ATOM     15  C   UNL     1      -2.625  11.799  19.070  0.00  0.00    +0.000 C 
ENDBRANCH   7  11
BRANCH   8  16
ATOM     16  N   UNL     1       1.293  10.515  19.532  0.00  0.00    +0.000 N 
ATOM     17  C   UNL     1       1.859   9.662  18.607  0.00  0.00    +0.000 C 
ATOM     18  O   UNL     1       2.295  10.016  17.513  0.00  0.00    +0.000 OA
ATOM     19  H   UNL     1       1.285  10.252  20.513  0.00  0.00    +0.000 HD
BRANCH  17  20
ATOM     20  C   UNL     1       1.989   8.231  18.994  0.00  0.00    +0.000 A 
ATOM     21  C   UNL     1       2.363   7.300  18.009  0.00  0.00    +0.000 A 
ATOM     22  C   UNL     1       2.385   5.933  18.297  0.00  0.00    +0.000 A 
ATOM     23  C   UNL     1       2.034   5.482  19.569  0.00  0.00    +0.000 A 
ATOM     24  C   UNL     1       1.692   6.400  20.560  0.00  0.00    +0.000 A 
ATOM     25  C   UNL     1       1.679   7.765  20.271  0.00  0.00    +0.000 A 
ATOM     26  F   UNL     1       1.353   8.611  21.260  0.00  0.00    +0.000 F 
ENDBRANCH  17  20
ENDBRANCH   8  16
BRANCH   1  28
ATOM     27  C   UNL     1       4.862  14.912  17.986  0.00  0.00    +0.000 C 
ATOM     28  C   UNL     1       4.116  15.220  19.276  0.00  0.00    +0.000 C 
ENDBRANCH   1  28
BRANCH   4  29
ATOM     29  C   UNL     1      -0.495  16.747  18.121  0.00  0.00    +0.000 C 
ATOM     30  C   UNL     1      -1.303  17.223  19.316  0.00  0.00    +0.000 C 
ENDBRANCH   4  29
TORSDOF 5
ENDMDL
MODEL 8
REMARK VINA RESULT:      -6.8      2.626      5.397
REMARK  Name = 
REMARK  7 active torsions:
REMARK  status: ('A' for Active; 'I' for Inactive)
REMARK    1  A    between atoms: C_1  and  C_2
REMARK    2  A    between atoms: C_2  and  N_3
REMARK    3  A    between atoms: N_6  and  C_7
REMARK    4  A    between atoms: C_7  and  C_8
REMARK    5  A    between atoms: C_11  and  N_12
REMARK    6  A    between atoms: C_17  and  N_18
REMARK    7  A    between atoms: C_19  and  C_21
REMARK                            x       y       z     vdW  Elec       q    Type
REMARK                         _______ _______ _______ _____ _____    ______ ____
ROOT
ATOM      1  N   UNL     1       2.653   5.729  19.969  0.00  0.00    +0.000 N 
ATOM      2  C   UNL     1       3.554   5.310  18.965  0.00  0.00    +0.000 A 
ATOM      3  O   UNL     1       4.110   4.226  18.880  0.00  0.00    +0.000 OA
ATOM      4  N   UNL     1       3.678   6.396  18.070  0.00  0.00    +0.000 N 
ATOM      5  C   UNL     1       2.816   7.426  18.489  0.00  0.00    +0.000 A 
ATOM      6  C   UNL     1       2.537   8.643  17.890  0.00  0.00    +0.000 A 
ATOM      7  C   UNL     1       1.612   9.507  18.505  0.00  0.00    +0.000 A 
ATOM      8  C   UNL     1       1.049   9.097  19.760  0.00  0.00    +0.000 A 
ATOM      9  C   UNL     1       1.347   7.853  20.345  0.00  0.00    +0.000 A 
ATOM     10  C   UNL     1       2.215   7.027  19.673  0.00  0.00    +0.000 A 
ENDROOT
BRANCH   7  11
ATOM     11  N   UNL     1       1.277  10.765  17.958  0.00  0.00    +0.000 N 
ATOM     12  C   UNL     1       2.114  11.954  18.202  0.00  0.00    +0.000 C 
ATOM     13  C   UNL     1       1.170  12.992  18.800  0.00  0.00    +0.000 C 
ATOM     14  C   UNL     1      -0.161  12.654  18.161  0.00  0.00    +0.000 C 
ATOM     15  C   UNL     1      -0.148  11.131  18.110  0.00  0.00    +0.000 C 
ENDBRANCH   7  11
BRANCH   8  16
ATOM     16  N   UNL     1       0.097   9.937  20.376  0.00  0.00    +0.000 N 
ATOM     17  C   UNL     1       0.395  10.822  21.392  0.00  0.00    +0.000 C 
ATOM     18  O   UNL     1       1.531  11.046  21.805  0.00  0.00    +0.000 OA
ATOM     19  H   UNL     1      -0.764  10.053  19.850  0.00  0.00    +0.000 HD
BRANCH  17  20
ATOM     20  C   UNL     1      -0.739  11.585  21.980  0.00  0.00    +0.000 A 
ATOM     21  C   UNL     1      -0.999  12.880  21.499  0.00  0.00    +0.000 A 
ATOM     22  C   UNL     1      -1.977  13.678  22.100  0.00  0.00    +0.000 A 
ATOM     23  C   UNL     1      -2.704  13.190  23.184  0.00  0.00    +0.000 A 
ATOM     24  C   UNL     1      -2.475  11.896  23.647  0.00  0.00    +0.000 A 
ATOM     25  C   UNL     1      -1.503  11.100  23.041  0.00  0.00    +0.000 A 
ATOM     26  F   UNL     1      -1.326   9.858  23.516  0.00  0.00    +0.000 F 
ENDBRANCH  17  20
ENDBRANCH   8  16
BRANCH   1  28
ATOM     27  C   UNL     1       1.069   3.936  20.536  0.00  0.00    +0.000 C 
ATOM     28  C   UNL     1       2.153   4.885  21.027  0.00  0.00    +0.000 C 
ENDBRANCH   1  28
BRANCH   4  29
ATOM     29  C   UNL     1       4.531   6.418  16.914  0.00  0.00    +0.000 C 
ATOM     30  C   UNL     1       5.956   6.831  17.241  0.00  0.00    +0.000 C 
ENDBRANCH   4  29
TORSDOF 5
ENDMDL
MODEL 9
REMARK VINA RESULT:      -6.8      4.978      8.733
REMARK  Name = 
REMARK  7 active torsions:
REMARK  status: ('A' for Active; 'I' for Inactive)
REMARK    1  A    between atoms: C_1  and  C_2
REMARK    2  A    between atoms: C_2  and  N_3
REMARK    3  A    between atoms: N_6  and  C_7
REMARK    4  A    between atoms: C_7  and  C_8
REMARK    5  A    between atoms: C_11  and  N_12
REMARK    6  A    between atoms: C_17  and  N_18
REMARK    7  A    between atoms: C_19  and  C_21
REMARK                            x       y       z     vdW  Elec       q    Type
REMARK                         _______ _______ _______ _____ _____    ______ ____
ROOT
ATOM      1  N   UNL     1       2.643  15.498  19.157  0.00  0.00    +0.000 N 
ATOM      2  C   UNL     1       1.920  16.635  18.734  0.00  0.00    +0.000 A 
ATOM      3  O   UNL     1       2.353  17.765  18.572  0.00  0.00    +0.000 OA
ATOM      4  N   UNL     1       0.591  16.201  18.526  0.00  0.00    +0.000 N 
ATOM      5  C   UNL     1       0.529  14.815  18.753  0.00  0.00    +0.000 A 
ATOM      6  C   UNL     1      -0.534  13.941  18.598  0.00  0.00    +0.000 A 
ATOM      7  C   UNL     1      -0.338  12.575  18.878  0.00  0.00    +0.000 A 
ATOM      8  C   UNL     1       0.950  12.174  19.369  0.00  0.00    +0.000 A 
ATOM      9  C   UNL     1       2.014  13.082  19.513  0.00  0.00    +0.000 A 
ATOM     10  C   UNL     1       1.781  14.392  19.173  0.00  0.00    +0.000 A 
ENDROOT
BRANCH   7  11
ATOM     11  N   UNL     1      -1.373  11.624  18.747  0.00  0.00    +0.000 N 
ATOM     12  C   UNL     1      -1.564  10.868  17.495  0.00  0.00    +0.000 C 
ATOM     13  C   UNL     1      -3.009  11.135  17.083  0.00  0.00    +0.000 C 
ATOM     14  C   UNL     1      -3.713  11.328  18.410  0.00  0.00    +0.000 C 
ATOM     15  C   UNL     1      -2.687  12.085  19.245  0.00  0.00    +0.000 C 
ENDBRANCH   7  11
BRANCH   8  16
ATOM     16  N   UNL     1       1.173  10.805  19.626  0.00  0.00    +0.000 N 
ATOM     17  C   UNL     1       1.712   9.927  18.708  0.00  0.00    +0.000 C 
ATOM     18  O   UNL     1       2.143  10.257  17.604  0.00  0.00    +0.000 OA
ATOM     19  H   UNL     1       1.171  10.556  20.611  0.00  0.00    +0.000 HD
BRANCH  17  20
ATOM     20  C   UNL     1       1.818   8.500  19.114  0.00  0.00    +0.000 A 
ATOM     21  C   UNL     1       1.375   8.132  20.396  0.00  0.00    +0.000 A 
ATOM     22  C   UNL     1       1.561   6.829  20.865  0.00  0.00    +0.000 A 
ATOM     23  C   UNL     1       2.189   5.881  20.058  0.00  0.00    +0.000 A 
ATOM     24  C   UNL     1       2.603   6.228  18.774  0.00  0.00    +0.000 A 
ATOM     25  C   UNL     1       2.409   7.528  18.306  0.00  0.00    +0.000 A 
ATOM     26  F   UNL     1       2.816   7.813  17.060  0.00  0.00    +0.000 F 
ENDBRANCH  17  20
ENDBRANCH   8  16
BRANCH   1  28
ATOM     27  C   UNL     1       4.825  15.036  18.124  0.00  0.00    +0.000 C 
ATOM     28  C   UNL     1       4.069  15.465  19.372  0.00  0.00    +0.000 C 
ENDBRANCH   1  28
BRANCH   4  29
ATOM     29  C   UNL     1      -0.499  17.048  18.125  0.00  0.00    +0.000 C 
ATOM     30  C   UNL     1      -1.035  17.898  19.264  0.00  0.00    +0.000 C 
ENDBRANCH   4  29
TORSDOF 5
ENDMDL
