MODEL 1
REMARK VINA RESULT:      -6.7      0.000      0.000
REMARK  Name = 
REMARK  9 active torsions:
REMARK  status: ('A' for Active; 'I' for Inactive)
REMARK    1  A    between atoms: C_2  and  C_3
REMARK    2  A    between atoms: C_3  and  C_4
REMARK    3  A    between atoms: C_10  and  O_11
REMARK    4  A    between atoms: C_13  and  C_14
REMARK    5  A    between atoms: C_13  and  C_15
REMARK    6  A    between atoms: C_18  and  O_19
REMARK    7  A    between atoms: C_20  and  C_21
REMARK    8  A    between atoms: C_22  and  O_23
REMARK    9  A    between atoms: O_23  and  C_24
REMARK                            x       y       z     vdW  Elec       q    Type
REMARK                         _______ _______ _______ _____ _____    ______ ____
ROOT
ATOM      1  C   UNL     1       6.780   6.499  17.170  0.00  0.00    +0.000 C 
ATOM      2  C   UNL     1       7.864   7.578  17.430  0.00  0.00    +0.000 C 
ATOM      3  C   UNL     1       5.394   7.170  17.288  0.00  0.00    +0.000 C 
ATOM      4  C   UNL     1       4.251   6.176  17.003  0.00  0.00    +0.000 C 
ATOM      5  C   UNL     1       4.308   4.943  17.912  0.00  0.00    +0.000 C 
ATOM      6  C   UNL     1       5.520   4.555  18.409  0.00  0.00    +0.000 C 
ATOM      7  C   UNL     1       5.727   3.397  19.348  0.00  0.00    +0.000 C 
ATOM      8  C   UNL     1       4.486   2.627  19.752  0.00  0.00    +0.000 C 
ATOM      9  C   UNL     1       3.146   3.417  19.626  0.00  0.00    +0.000 C 
ATOM     10  C   UNL     1       1.853   3.274  20.597  0.00  0.00    +0.000 C 
ATOM     11  C   UNL     1       2.333   3.357  22.052  0.00  0.00    +0.000 C 
ATOM     12  C   UNL     1       0.536   4.190  20.629  0.00  0.00    +0.000 C 
ATOM     13  C   UNL     1       1.226   2.032  19.955  0.00  0.00    +0.000 C 
ATOM     14  C   UNL     1       0.945   2.438  18.412  0.00  0.00    +0.000 C 
ATOM     15  C   UNL     1       1.660   3.841  17.772  0.00  0.00    +0.000 C 
ATOM     16  C   UNL     1       2.953   4.509  18.584  0.00  0.00    +0.000 C 
ATOM     17  C   UNL     1       2.581   5.849  19.306  0.00  0.00    +0.000 C 
ATOM     18  C   UNL     1       6.830   5.362  18.242  0.00  0.00    +0.000 C 
ENDROOT
BRANCH   1  20
ATOM     19  C   UNL     1       7.175   4.636  15.408  0.00  0.00    +0.000 C 
ATOM     20  C   UNL     1       6.942   5.918  15.752  0.00  0.00    +0.000 C 
ENDBRANCH   1  20
BRANCH   8  21
ATOM     21  O   UNL     1       4.647   1.897  20.966  0.00  0.00    +0.000 OA
ATOM     22  H   UNL     1       4.274   1.012  20.824  0.00  0.00    +0.000 HD
ENDBRANCH   8  21
BRANCH  15  23
ATOM     23  O   UNL     1       2.038   3.511  16.431  0.00  0.00    +0.000 OA
ATOM     24  H   UNL     1       1.965   2.540  16.334  0.00  0.00    +0.000 HD
ENDBRANCH  15  23
BRANCH  18  25
ATOM     25  O   UNL     1       7.033   5.898  19.571  0.00  0.00    +0.000 OA
ATOM     26  C   UNL     1       8.256   5.568  20.213  0.00  0.00    +0.000 C 
ENDBRANCH  18  25
TORSDOF 4
ENDMDL
MODEL 2
REMARK VINA RESULT:      -5.7      9.813     12.736
REMARK  Name = 
REMARK  9 active torsions:
REMARK  status: ('A' for Active; 'I' for Inactive)
REMARK    1  A    between atoms: C_2  and  C_3
REMARK    2  A    between atoms: C_3  and  C_4
REMARK    3  A    between atoms: C_10  and  O_11
REMARK    4  A    between atoms: C_13  and  C_14
REMARK    5  A    between atoms: C_13  and  C_15
REMARK    6  A    between atoms: C_18  and  O_19
REMARK    7  A    between atoms: C_20  and  C_21
REMARK    8  A    between atoms: C_22  and  O_23
REMARK    9  A    between atoms: O_23  and  C_24
REMARK                            x       y       z     vdW  Elec       q    Type
REMARK                         _______ _______ _______ _____ _____    ______ ____
ROOT
ATOM      1  C   UNL     1      -5.344  14.051  23.399  0.00  0.00    +0.000 C 
ATOM      2  C   UNL     1      -6.229  15.300  23.653  0.00  0.00    +0.000 C 
ATOM      3  C   UNL     1      -3.950  14.317  24.005  0.00  0.00    +0.000 C 
ATOM      4  C   UNL     1      -3.012  13.105  23.836  0.00  0.00    +0.000 C 
ATOM      5  C   UNL     1      -2.866  12.679  22.370  0.00  0.00    +0.000 C 
ATOM      6  C   UNL     1      -3.892  12.948  21.508  0.00  0.00    +0.000 C 
ATOM      7  C   UNL     1      -3.875  12.634  20.036  0.00  0.00    +0.000 C 
ATOM      8  C   UNL     1      -2.621  11.972  19.503  0.00  0.00    +0.000 C 
ATOM      9  C   UNL     1      -1.336  12.200  20.359  0.00  0.00    +0.000 C 
ATOM     10  C   UNL     1       0.179  12.344  19.795  0.00  0.00    +0.000 C 
ATOM     11  C   UNL     1       0.171  13.362  18.647  0.00  0.00    +0.000 C 
ATOM     12  C   UNL     1       1.498  12.768  20.605  0.00  0.00    +0.000 C 
ATOM     13  C   UNL     1       0.503  10.855  19.638  0.00  0.00    +0.000 C 
ATOM     14  C   UNL     1       0.325  10.215  21.115  0.00  0.00    +0.000 C 
ATOM     15  C   UNL     1      -0.461  11.112  22.327  0.00  0.00    +0.000 C 
ATOM     16  C   UNL     1      -1.401  12.408  21.865  0.00  0.00    +0.000 C 
ATOM     17  C   UNL     1      -0.744  13.784  22.224  0.00  0.00    +0.000 C 
ATOM     18  C   UNL     1      -5.137  13.793  21.871  0.00  0.00    +0.000 C 
ENDROOT
BRANCH   1  20
ATOM     19  C   UNL     1      -7.162  12.248  23.825  0.00  0.00    +0.000 C 
ATOM     20  C   UNL     1      -5.967  12.816  24.081  0.00  0.00    +0.000 C 
ENDBRANCH   1  20
BRANCH   8  21
ATOM     21  O   UNL     1      -2.450  12.141  18.098  0.00  0.00    +0.000 OA
ATOM     22  H   UNL     1      -2.550  11.266  17.686  0.00  0.00    +0.000 HD
ENDBRANCH   8  21
BRANCH  15  23
ATOM     23  O   UNL     1      -1.249  10.169  23.062  0.00  0.00    +0.000 OA
ATOM     24  H   UNL     1      -2.056  10.633  23.367  0.00  0.00    +0.000 HD
ENDBRANCH  15  23
BRANCH  18  25
ATOM     25  O   UNL     1      -4.892  15.027  21.155  0.00  0.00    +0.000 OA
ATOM     26  C   UNL     1      -5.866  15.413  20.197  0.00  0.00    +0.000 C 
ENDBRANCH  18  25
TORSDOF 4
ENDMDL
MODEL 3
REMARK VINA RESULT:      -5.7      9.242     12.000
REMARK  Name = 
REMARK  9 active torsions:
REMARK  status: ('A' for Active; 'I' for Inactive)
REMARK    1  A    between atoms: C_2  and  C_3
REMARK    2  A    between atoms: C_3  and  C_4
REMARK    3  A    between atoms: C_10  and  O_11
REMARK    4  A    between atoms: C_13  and  C_14
REMARK    5  A    between atoms: C_13  and  C_15
REMARK    6  A    between atoms: C_18  and  O_19
REMARK    7  A    between atoms: C_20  and  C_21
REMARK    8  A    between atoms: C_22  and  O_23
REMARK    9  A    between atoms: O_23  and  C_24
REMARK                            x       y       z     vdW  Elec       q    Type
REMARK                         _______ _______ _______ _____ _____    ______ ____
ROOT
ATOM      1  C   UNL     1       6.891  13.782  23.417  0.00  0.00    +0.000 C 
ATOM      2  C   UNL     1       6.374  14.655  24.591  0.00  0.00    +0.000 C 
ATOM      3  C   UNL     1       8.422  13.638  23.561  0.00  0.00    +0.000 C 
ATOM      4  C   UNL     1       9.019  12.746  22.455  0.00  0.00    +0.000 C 
ATOM      5  C   UNL     1       8.677  13.252  21.049  0.00  0.00    +0.000 C 
ATOM      6  C   UNL     1       7.532  13.978  20.877  0.00  0.00    +0.000 C 
ATOM      7  C   UNL     1       7.089  14.579  19.570  0.00  0.00    +0.000 C 
ATOM      8  C   UNL     1       7.997  14.344  18.380  0.00  0.00    +0.000 C 
ATOM      9  C   UNL     1       9.484  14.025  18.731  0.00  0.00    +0.000 C 
ATOM     10  C   UNL     1      10.788  14.462  17.871  0.00  0.00    +0.000 C 
ATOM     11  C   UNL     1      10.674  15.958  17.549  0.00  0.00    +0.000 C 
ATOM     12  C   UNL     1      12.333  14.328  18.283  0.00  0.00    +0.000 C 
ATOM     13  C   UNL     1      10.755  13.340  16.827  0.00  0.00    +0.000 C 
ATOM     14  C   UNL     1      10.858  11.961  17.670  0.00  0.00    +0.000 C 
ATOM     15  C   UNL     1      10.621  11.990  19.353  0.00  0.00    +0.000 C 
ATOM     16  C   UNL     1       9.869  13.317  20.022  0.00  0.00    +0.000 C 
ATOM     17  C   UNL     1      10.858  14.224  20.831  0.00  0.00    +0.000 C 
ATOM     18  C   UNL     1       6.624  14.460  22.034  0.00  0.00    +0.000 C 
ENDROOT
BRANCH   1  20
ATOM     19  C   UNL     1       6.018  11.623  24.562  0.00  0.00    +0.000 C 
ATOM     20  C   UNL     1       6.243  12.384  23.473  0.00  0.00    +0.000 C 
ENDBRANCH   1  20
BRANCH   8  21
ATOM     21  O   UNL     1       7.813  15.298  17.336  0.00  0.00    +0.000 OA
ATOM     22  H   UNL     1       8.530  15.168  16.694  0.00  0.00    +0.000 HD
ENDBRANCH   8  21
BRANCH  15  23
ATOM     23  O   UNL     1       9.889  10.800  19.666  0.00  0.00    +0.000 OA
ATOM     24  H   UNL     1       9.025  10.855  19.208  0.00  0.00    +0.000 HD
ENDBRANCH  15  23
BRANCH  18  25
ATOM     25  O   UNL     1       6.908  15.879  22.077  0.00  0.00    +0.000 OA
ATOM     26  C   UNL     1       5.799  16.756  21.940  0.00  0.00    +0.000 C 
ENDBRANCH  18  25
TORSDOF 4
ENDMDL
MODEL 4
REMARK VINA RESULT:      -5.6      9.712     12.257
REMARK  Name = 
REMARK  9 active torsions:
REMARK  status: ('A' for Active; 'I' for Inactive)
REMARK    1  A    between atoms: C_2  and  C_3
REMARK    2  A    between atoms: C_3  and  C_4
REMARK    3  A    between atoms: C_10  and  O_11
REMARK    4  A    between atoms: C_13  and  C_14
REMARK    5  A    between atoms: C_13  and  C_15
REMARK    6  A    between atoms: C_18  and  O_19
REMARK    7  A    between atoms: C_20  and  C_21
REMARK    8  A    between atoms: C_22  and  O_23
REMARK    9  A    between atoms: O_23  and  C_24
REMARK                            x       y       z     vdW  Elec       q    Type
REMARK                         _______ _______ _______ _____ _____    ______ ____
ROOT
ATOM      1  C   UNL     1       6.616  15.419  23.330  0.00  0.00    +0.000 C 
ATOM      2  C   UNL     1       6.124  16.698  24.058  0.00  0.00    +0.000 C 
ATOM      3  C   UNL     1       8.117  15.236  23.639  0.00  0.00    +0.000 C 
ATOM      4  C   UNL     1       8.684  13.960  22.987  0.00  0.00    +0.000 C 
ATOM      5  C   UNL     1       8.461  13.930  21.470  0.00  0.00    +0.000 C 
ATOM      6  C   UNL     1       7.398  14.616  20.954  0.00  0.00    +0.000 C 
ATOM      7  C   UNL     1       7.077  14.718  19.487  0.00  0.00    +0.000 C 
ATOM      8  C   UNL     1       8.017  13.998  18.541  0.00  0.00    +0.000 C 
ATOM      9  C   UNL     1       9.449  13.732  19.103  0.00  0.00    +0.000 C 
ATOM     10  C   UNL     1      10.829  13.730  18.250  0.00  0.00    +0.000 C 
ATOM     11  C   UNL     1      10.869  15.004  17.396  0.00  0.00    +0.000 C 
ATOM     12  C   UNL     1      12.333  13.655  18.805  0.00  0.00    +0.000 C 
ATOM     13  C   UNL     1      10.745  12.307  17.689  0.00  0.00    +0.000 C 
ATOM     14  C   UNL     1      10.678  11.335  18.983  0.00  0.00    +0.000 C 
ATOM     15  C   UNL     1      10.362  12.001  20.515  0.00  0.00    +0.000 C 
ATOM     16  C   UNL     1       9.702  13.530  20.590  0.00  0.00    +0.000 C 
ATOM     17  C   UNL     1      10.729  14.603  21.088  0.00  0.00    +0.000 C 
ATOM     18  C   UNL     1       6.481  15.552  21.778  0.00  0.00    +0.000 C 
ENDROOT
BRANCH   1  20
ATOM     19  C   UNL     1       5.664  13.798  25.118  0.00  0.00    +0.000 C 
ATOM     20  C   UNL     1       5.839  14.189  23.841  0.00  0.00    +0.000 C 
ENDBRANCH   1  20
BRANCH   8  21
ATOM     21  O   UNL     1       7.974  14.507  17.210  0.00  0.00    +0.000 OA
ATOM     22  H   UNL     1       7.107  14.927  17.088  0.00  0.00    +0.000 HD
ENDBRANCH   8  21
BRANCH  15  23
ATOM     23  O   UNL     1       9.509  11.064  21.181  0.00  0.00    +0.000 OA
ATOM     24  H   UNL     1       8.586  11.369  21.063  0.00  0.00    +0.000 HD
ENDBRANCH  15  23
BRANCH  18  25
ATOM     25  O   UNL     1       6.892  16.864  21.323  0.00  0.00    +0.000 OA
ATOM     26  C   UNL     1       5.889  17.677  20.732  0.00  0.00    +0.000 C 
ENDBRANCH  18  25
TORSDOF 4
ENDMDL
MODEL 5
REMARK VINA RESULT:      -5.4      8.810     11.003
REMARK  Name = 
REMARK  9 active torsions:
REMARK  status: ('A' for Active; 'I' for Inactive)
REMARK    1  A    between atoms: C_2  and  C_3
REMARK    2  A    between atoms: C_3  and  C_4
REMARK    3  A    between atoms: C_10  and  O_11
REMARK    4  A    between atoms: C_13  and  C_14
REMARK    5  A    between atoms: C_13  and  C_15
REMARK    6  A    between atoms: C_18  and  O_19
REMARK    7  A    between atoms: C_20  and  C_21
REMARK    8  A    between atoms: C_22  and  O_23
REMARK    9  A    between atoms: O_23  and  C_24
REMARK                            x       y       z     vdW  Elec       q    Type
REMARK                         _______ _______ _______ _____ _____    ______ ____
ROOT
ATOM      1  C   UNL     1       0.778  10.738  19.099  0.00  0.00    +0.000 C 
ATOM      2  C   UNL     1       1.046   9.448  18.278  0.00  0.00    +0.000 C 
ATOM      3  C   UNL     1       0.784  10.365  20.597  0.00  0.00    +0.000 C 
ATOM      4  C   UNL     1       0.566  11.599  21.495  0.00  0.00    +0.000 C 
ATOM      5  C   UNL     1      -0.727  12.348  21.154  0.00  0.00    +0.000 C 
ATOM      6  C   UNL     1      -1.212  12.265  19.879  0.00  0.00    +0.000 C 
ATOM      7  C   UNL     1      -2.490  12.906  19.408  0.00  0.00    +0.000 C 
ATOM      8  C   UNL     1      -3.270  13.692  20.442  0.00  0.00    +0.000 C 
ATOM      9  C   UNL     1      -2.990  13.297  21.926  0.00  0.00    +0.000 C 
ATOM     10  C   UNL     1      -4.065  13.311  23.141  0.00  0.00    +0.000 C 
ATOM     11  C   UNL     1      -5.330  12.581  22.673  0.00  0.00    +0.000 C 
ATOM     12  C   UNL     1      -3.882  12.737  24.628  0.00  0.00    +0.000 C 
ATOM     13  C   UNL     1      -3.996  14.802  23.486  0.00  0.00    +0.000 C 
ATOM     14  C   UNL     1      -2.449  15.087  23.869  0.00  0.00    +0.000 C 
ATOM     15  C   UNL     1      -1.266  13.925  23.492  0.00  0.00    +0.000 C 
ATOM     16  C   UNL     1      -1.640  12.752  22.370  0.00  0.00    +0.000 C 
ATOM     17  C   UNL     1      -1.844  11.341  23.020  0.00  0.00    +0.000 C 
ATOM     18  C   UNL     1      -0.630  11.340  18.784  0.00  0.00    +0.000 C 
ENDROOT
BRANCH   1  20
ATOM     19  C   UNL     1       1.765  12.973  18.226  0.00  0.00    +0.000 C 
ATOM     20  C   UNL     1       1.886  11.774  18.830  0.00  0.00    +0.000 C 
ENDBRANCH   1  20
BRANCH   8  21
ATOM     21  O   UNL     1      -4.647  13.850  20.107  0.00  0.00    +0.000 OA
ATOM     22  H   UNL     1      -5.163  13.340  20.752  0.00  0.00    +0.000 HD
ENDBRANCH   8  21
BRANCH  15  23
ATOM     23  O   UNL     1      -0.114  14.662  23.068  0.00  0.00    +0.000 OA
ATOM     24  H   UNL     1      -0.408  15.306  22.392  0.00  0.00    +0.000 HD
ENDBRANCH  15  23
BRANCH  18  25
ATOM     25  O   UNL     1      -1.638  10.305  18.687  0.00  0.00    +0.000 OA
ATOM     26  C   UNL     1      -2.186  10.065  17.399  0.00  0.00    +0.000 C 
ENDBRANCH  18  25
TORSDOF 4
ENDMDL
MODEL 6
REMARK VINA RESULT:      -5.4      8.588     11.997
REMARK  Name = 
REMARK  9 active torsions:
REMARK  status: ('A' for Active; 'I' for Inactive)
REMARK    1  A    between atoms: C_2  and  C_3
REMARK    2  A    between atoms: C_3  and  C_4
REMARK    3  A    between atoms: C_10  and  O_11
REMARK    4  A    between atoms: C_13  and  C_14
REMARK    5  A    between atoms: C_13  and  C_15
REMARK    6  A    between atoms: C_18  and  O_19
REMARK    7  A    between atoms: C_20  and  C_21
REMARK    8  A    between atoms: C_22  and  O_23
REMARK    9  A    between atoms: O_23  and  C_24
REMARK                            x       y       z     vdW  Elec       q    Type
REMARK                         _______ _______ _______ _____ _____    ______ ____
ROOT
ATOM      1  C   UNL     1       6.496  16.859  21.099  0.00  0.00    +0.000 C 
ATOM      2  C   UNL     1       4.993  17.227  21.215  0.00  0.00    +0.000 C 
ATOM      3  C   UNL     1       6.831  16.671  19.603  0.00  0.00    +0.000 C 
ATOM      4  C   UNL     1       8.322  16.343  19.389  0.00  0.00    +0.000 C 
ATOM      5  C   UNL     1       8.768  15.106  20.178  0.00  0.00    +0.000 C 
ATOM      6  C   UNL     1       8.097  14.789  21.326  0.00  0.00    +0.000 C 
ATOM      7  C   UNL     1       8.388  13.584  22.180  0.00  0.00    +0.000 C 
ATOM      8  C   UNL     1       9.508  12.680  21.709  0.00  0.00    +0.000 C 
ATOM      9  C   UNL     1       9.834  12.765  20.184  0.00  0.00    +0.000 C 
ATOM     10  C   UNL     1      10.328  11.543  19.239  0.00  0.00    +0.000 C 
ATOM     11  C   UNL     1       9.397  10.346  19.472  0.00  0.00    +0.000 C 
ATOM     12  C   UNL     1      10.490  11.531  17.642  0.00  0.00    +0.000 C 
ATOM     13  C   UNL     1      11.818  11.571  19.597  0.00  0.00    +0.000 C 
ATOM     14  C   UNL     1      12.329  13.056  19.205  0.00  0.00    +0.000 C 
ATOM     15  C   UNL     1      11.190  14.275  18.879  0.00  0.00    +0.000 C 
ATOM     16  C   UNL     1       9.620  14.045  19.389  0.00  0.00    +0.000 C 
ATOM     17  C   UNL     1       8.639  13.756  18.202  0.00  0.00    +0.000 C 
ATOM     18  C   UNL     1       6.814  15.504  21.812  0.00  0.00    +0.000 C 
ENDROOT
BRANCH   1  20
ATOM     19  C   UNL     1       7.224  18.618  22.861  0.00  0.00    +0.000 C 
ATOM     20  C   UNL     1       7.363  17.995  21.674  0.00  0.00    +0.000 C 
ENDBRANCH   1  20
BRANCH   8  21
ATOM     21  O   UNL     1       9.424  11.358  22.236  0.00  0.00    +0.000 OA
ATOM     22  H   UNL     1      10.084  11.285  22.945  0.00  0.00    +0.000 HD
ENDBRANCH   8  21
BRANCH  15  23
ATOM     23  O   UNL     1      11.723  15.473  19.453  0.00  0.00    +0.000 OA
ATOM     24  H   UNL     1      11.246  16.230  19.053  0.00  0.00    +0.000 HD
ENDBRANCH  15  23
BRANCH  18  25
ATOM     25  O   UNL     1       5.791  14.515  21.549  0.00  0.00    +0.000 OA
ATOM     26  C   UNL     1       5.296  13.795  22.668  0.00  0.00    +0.000 C 
ENDBRANCH  18  25
TORSDOF 4
ENDMDL
MODEL 7
REMARK VINA RESULT:      -5.4      8.396     11.482
REMARK  Name = 
REMARK  9 active torsions:
REMARK  status: ('A' for Active; 'I' for Inactive)
REMARK    1  A    between atoms: C_2  and  C_3
REMARK    2  A    between atoms: C_3  and  C_4
REMARK    3  A    between atoms: C_10  and  O_11
REMARK    4  A    between atoms: C_13  and  C_14
REMARK    5  A    between atoms: C_13  and  C_15
REMARK    6  A    between atoms: C_18  and  O_19
REMARK    7  A    between atoms: C_20  and  C_21
REMARK    8  A    between atoms: C_22  and  O_23
REMARK    9  A    between atoms: O_23  and  C_24
REMARK                            x       y       z     vdW  Elec       q    Type
REMARK                         _______ _______ _______ _____ _____    ______ ____
ROOT
ATOM      1  C   UNL     1      11.130  12.928  19.120  0.00  0.00    +0.000 C 
ATOM      2  C   UNL     1      11.834  11.551  19.245  0.00  0.00    +0.000 C 
ATOM      3  C   UNL     1      10.852  13.457  20.544  0.00  0.00    +0.000 C 
ATOM      4  C   UNL     1      10.188  14.848  20.517  0.00  0.00    +0.000 C 
ATOM      5  C   UNL     1       8.893  14.861  19.697  0.00  0.00    +0.000 C 
ATOM      6  C   UNL     1       8.752  13.955  18.685  0.00  0.00    +0.000 C 
ATOM      7  C   UNL     1       7.523  13.816  17.827  0.00  0.00    +0.000 C 
ATOM      8  C   UNL     1       6.380  14.763  18.129  0.00  0.00    +0.000 C 
ATOM      9  C   UNL     1       6.370  15.350  19.576  0.00  0.00    +0.000 C 
ATOM     10  C   UNL     1       5.054  15.703  20.458  0.00  0.00    +0.000 C 
ATOM     11  C   UNL     1       4.106  14.498  20.413  0.00  0.00    +0.000 C 
ATOM     12  C   UNL     1       4.986  16.122  22.006  0.00  0.00    +0.000 C 
ATOM     13  C   UNL     1       4.745  17.079  19.858  0.00  0.00    +0.000 C 
ATOM     14  C   UNL     1       6.069  17.973  20.121  0.00  0.00    +0.000 C 
ATOM     15  C   UNL     1       7.512  17.212  20.599  0.00  0.00    +0.000 C 
ATOM     16  C   UNL     1       7.654  15.569  20.362  0.00  0.00    +0.000 C 
ATOM     17  C   UNL     1       7.582  14.760  21.702  0.00  0.00    +0.000 C 
ATOM     18  C   UNL     1       9.748  12.805  18.400  0.00  0.00    +0.000 C 
ENDROOT
BRANCH   1  20
ATOM     19  C   UNL     1      12.031  14.237  17.070  0.00  0.00    +0.000 C 
ATOM     20  C   UNL     1      12.045  13.923  18.380  0.00  0.00    +0.000 C 
ENDBRANCH   1  20
BRANCH   8  21
ATOM     21  O   UNL     1       5.120  14.292  17.657  0.00  0.00    +0.000 OA
ATOM     22  H   UNL     1       5.168  13.323  17.619  0.00  0.00    +0.000 HD
ENDBRANCH   8  21
BRANCH  15  23
ATOM     23  O   UNL     1       8.564  17.901  19.914  0.00  0.00    +0.000 OA
ATOM     24  H   UNL     1       9.067  18.411  20.582  0.00  0.00    +0.000 HD
ENDBRANCH  15  23
BRANCH  18  25
ATOM     25  O   UNL     1       9.017  11.642  18.854  0.00  0.00    +0.000 OA
ATOM     26  C   UNL     1       8.973  10.530  17.972  0.00  0.00    +0.000 C 
ENDBRANCH  18  25
TORSDOF 4
ENDMDL
MODEL 8
REMARK VINA RESULT:      -5.4      8.645     11.678
REMARK  Name = 
REMARK  9 active torsions:
REMARK  status: ('A' for Active; 'I' for Inactive)
REMARK    1  A    between atoms: C_2  and  C_3
REMARK    2  A    between atoms: C_3  and  C_4
REMARK    3  A    between atoms: C_10  and  O_11
REMARK    4  A    between atoms: C_13  and  C_14
REMARK    5  A    between atoms: C_13  and  C_15
REMARK    6  A    between atoms: C_18  and  O_19
REMARK    7  A    between atoms: C_20  and  C_21
REMARK    8  A    between atoms: C_22  and  O_23
REMARK    9  A    between atoms: O_23  and  C_24
REMARK                            x       y       z     vdW  Elec       q    Type
REMARK                         _______ _______ _______ _____ _____    ______ ____
ROOT
ATOM      1  C   UNL     1      -1.774  12.698  21.781  0.00  0.00    +0.000 C 
ATOM      2  C   UNL     1      -3.313  12.605  21.604  0.00  0.00    +0.000 C 
ATOM      3  C   UNL     1      -1.411  14.172  22.065  0.00  0.00    +0.000 C 
ATOM      4  C   UNL     1       0.102  14.353  22.297  0.00  0.00    +0.000 C 
ATOM      5  C   UNL     1       0.939  13.831  21.123  0.00  0.00    +0.000 C 
ATOM      6  C   UNL     1       0.424  12.831  20.348  0.00  0.00    +0.000 C 
ATOM      7  C   UNL     1       1.106  12.250  19.139  0.00  0.00    +0.000 C 
ATOM      8  C   UNL     1       2.456  12.834  18.782  0.00  0.00    +0.000 C 
ATOM      9  C   UNL     1       2.719  14.276  19.320  0.00  0.00    +0.000 C 
ATOM     10  C   UNL     1       3.580  15.435  18.579  0.00  0.00    +0.000 C 
ATOM     11  C   UNL     1       3.099  15.537  17.125  0.00  0.00    +0.000 C 
ATOM     12  C   UNL     1       3.719  16.979  18.992  0.00  0.00    +0.000 C 
ATOM     13  C   UNL     1       4.981  14.980  19.004  0.00  0.00    +0.000 C 
ATOM     14  C   UNL     1       4.968  14.995  20.623  0.00  0.00    +0.000 C 
ATOM     15  C   UNL     1       3.486  15.117  21.447  0.00  0.00    +0.000 C 
ATOM     16  C   UNL     1       2.086  14.778  20.609  0.00  0.00    +0.000 C 
ATOM     17  C   UNL     1       1.243  16.063  20.302  0.00  0.00    +0.000 C 
ATOM     18  C   UNL     1      -1.019  12.285  20.476  0.00  0.00    +0.000 C 
ENDROOT
BRANCH   1  20
ATOM     19  C   UNL     1      -0.848  10.567  22.935  0.00  0.00    +0.000 C 
ATOM     20  C   UNL     1      -1.325  11.827  22.970  0.00  0.00    +0.000 C 
ENDBRANCH   1  20
BRANCH   8  21
ATOM     21  O   UNL     1       2.819  12.621  17.419  0.00  0.00    +0.000 OA
ATOM     22  H   UNL     1       3.765  12.399  17.402  0.00  0.00    +0.000 HD
ENDBRANCH   8  21
BRANCH  15  23
ATOM     23  O   UNL     1       3.599  14.257  22.586  0.00  0.00    +0.000 OA
ATOM     24  H   UNL     1       3.520  14.815  23.387  0.00  0.00    +0.000 HD
ENDBRANCH  15  23
BRANCH  18  25
ATOM     25  O   UNL     1      -1.660  12.830  19.299  0.00  0.00    +0.000 OA
ATOM     26  C   UNL     1      -2.193  11.896  18.371  0.00  0.00    +0.000 C 
ENDBRANCH  18  25
TORSDOF 4
ENDMDL
MODEL 9
REMARK VINA RESULT:      -5.3     10.154     12.037
REMARK  Name = 
REMARK  9 active torsions:
REMARK  status: ('A' for Active; 'I' for Inactive)
REMARK    1  A    between atoms: C_2  and  C_3
REMARK    2  A    between atoms: C_3  and  C_4
REMARK    3  A    between atoms: C_10  and  O_11
REMARK    4  A    between atoms: C_13  and  C_14
REMARK    5  A    between atoms: C_13  and  C_15
REMARK    6  A    between atoms: C_18  and  O_19
REMARK    7  A    between atoms: C_20  and  C_21
REMARK    8  A    between atoms: C_22  and  O_23
REMARK    9  A    between atoms: O_23  and  C_24
REMARK                            x       y       z     vdW  Elec       q    Type
REMARK                         _______ _______ _______ _____ _____    ______ ____
ROOT
ATOM      1  C   UNL     1      -0.276  11.068  20.311  0.00  0.00    +0.000 C 
ATOM      2  C   UNL     1       0.903  10.059  20.278  0.00  0.00    +0.000 C 
ATOM      3  C   UNL     1       0.309  12.494  20.225  0.00  0.00    +0.000 C 
ATOM      4  C   UNL     1      -0.799  13.566  20.209  0.00  0.00    +0.000 C 
ATOM      5  C   UNL     1      -1.730  13.462  21.422  0.00  0.00    +0.000 C 
ATOM      6  C   UNL     1      -1.887  12.244  22.020  0.00  0.00    +0.000 C 
ATOM      7  C   UNL     1      -2.729  11.995  23.244  0.00  0.00    +0.000 C 
ATOM      8  C   UNL     1      -3.440  13.198  23.827  0.00  0.00    +0.000 C 
ATOM      9  C   UNL     1      -2.805  14.580  23.474  0.00  0.00    +0.000 C 
ATOM     10  C   UNL     1      -2.763  15.890  24.431  0.00  0.00    +0.000 C 
ATOM     11  C   UNL     1      -2.255  15.459  25.814  0.00  0.00    +0.000 C 
ATOM     12  C   UNL     1      -1.962  17.260  24.196  0.00  0.00    +0.000 C 
ATOM     13  C   UNL     1      -4.171  16.422  24.147  0.00  0.00    +0.000 C 
ATOM     14  C   UNL     1      -4.222  16.680  22.549  0.00  0.00    +0.000 C 
ATOM     15  C   UNL     1      -3.002  16.033  21.557  0.00  0.00    +0.000 C 
ATOM     16  C   UNL     1      -2.053  14.808  22.171  0.00  0.00    +0.000 C 
ATOM     17  C   UNL     1      -0.595  15.281  22.493  0.00  0.00    +0.000 C 
ATOM     18  C   UNL     1      -1.071  10.981  21.655  0.00  0.00    +0.000 C 
ENDROOT
BRANCH   1  20
ATOM     19  C   UNL     1      -0.936  10.152  17.975  0.00  0.00    +0.000 C 
ATOM     20  C   UNL     1      -1.209  10.828  19.108  0.00  0.00    +0.000 C 
ENDBRANCH   1  20
BRANCH   8  21
ATOM     21  O   UNL     1      -3.798  13.030  25.197  0.00  0.00    +0.000 OA
ATOM     22  H   UNL     1      -3.882  12.076  25.360  0.00  0.00    +0.000 HD
ENDBRANCH   8  21
BRANCH  15  23
ATOM     23  O   UNL     1      -3.659  15.596  20.363  0.00  0.00    +0.000 OA
ATOM     24  H   UNL     1      -3.360  14.681  20.179  0.00  0.00    +0.000 HD
ENDBRANCH  15  23
BRANCH  18  25
ATOM     25  O   UNL     1      -0.181  10.850  22.788  0.00  0.00    +0.000 OA
ATOM     26  C   UNL     1      -0.138   9.581  23.424  0.00  0.00    +0.000 C 
ENDBRANCH  18  25
TORSDOF 4
ENDMDL
