MODEL 1
REMARK VINA RESULT:      -7.7      0.000      0.000
REMARK  Name = 
REMARK  7 active torsions:
REMARK  status: ('A' for Active; 'I' for Inactive)
REMARK    1  A    between atoms: C_1  and  O_2
REMARK    2  A    between atoms: O_2  and  C_3
REMARK    3  A    between atoms: C_3  and  C_5
REMARK    4  A    between atoms: C_8  and  N_9
REMARK    5  A    between atoms: C_10  and  C_12
REMARK    6  A    between atoms: C_17  and  C_19
REMARK    7  A    between atoms: C_21  and  C_22
REMARK                            x       y       z     vdW  Elec       q    Type
REMARK                         _______ _______ _______ _____ _____    ______ ____
ROOT
ATOM      1  C   UNL     1       1.073   9.030  19.526  0.00  0.00    +0.000 A 
ATOM      2  C   UNL     1       0.617   9.870  18.535  0.00  0.00    +0.000 A 
ATOM      3  O   UNL     1      -0.283  10.726  19.081  0.00  0.00    +0.000 OA
ATOM      4  C   UNL     1      -0.294  10.393  20.405  0.00  0.00    +0.000 A 
ATOM      5  N   UNL     1      -1.054  11.208  21.180  0.00  0.00    +0.000 N 
ATOM      6  C   UNL     1      -0.957  11.200  22.547  0.00  0.00    +0.000 C 
ATOM      7  O   UNL     1      -0.242  10.463  23.220  0.00  0.00    +0.000 OA
ATOM      8  N   UNL     1       0.466   9.363  20.719  0.00  0.00    +0.000 NA
ATOM      9  H   UNL     1      -1.586  11.934  20.724  0.00  0.00    +0.000 HD
ENDROOT
BRANCH   6  10
ATOM     10  C   UNL     1      -1.784  12.228  23.187  0.00  0.00    +0.000 A 
ATOM     11  C   UNL     1      -1.409  13.562  23.483  0.00  0.00    +0.000 A 
ATOM     12  C   UNL     1      -2.543  14.136  24.000  0.00  0.00    +0.000 A 
ATOM     13  C   UNL     1      -2.895  15.492  24.457  0.00  0.00    +0.000 C 
ATOM     14  O   UNL     1      -3.529  13.202  24.052  0.00  0.00    +0.000 OA
ATOM     15  N   UNL     1      -3.062  12.003  23.540  0.00  0.00    +0.000 NA
ENDBRANCH   6  10
BRANCH   1  17
ATOM     16  N   UNL     1       2.668   7.990  18.062  0.00  0.00    +0.000 N 
ATOM     17  C   UNL     1       2.070   7.991  19.315  0.00  0.00    +0.000 C 
ATOM     18  O   UNL     1       2.316   7.212  20.233  0.00  0.00    +0.000 OA
ATOM     19  H   UNL     1       2.357   8.717  17.422  0.00  0.00    +0.000 HD
BRANCH  16  23
ATOM     20  C   UNL     1       5.613   5.215  16.732  0.00  0.00    +0.000 A 
ATOM     21  C   UNL     1       5.886   6.581  16.729  0.00  0.00    +0.000 A 
ATOM     22  C   UNL     1       4.923   7.495  17.169  0.00  0.00    +0.000 A 
ATOM     23  C   UNL     1       3.666   7.080  17.622  0.00  0.00    +0.000 A 
ATOM     24  C   UNL     1       3.397   5.704  17.635  0.00  0.00    +0.000 A 
ATOM     25  C   UNL     1       4.363   4.778  17.190  0.00  0.00    +0.000 A 
BRANCH  20  26
ATOM     26  C   UNL     1       6.679   4.292  16.249  0.00  0.00    +0.000 C 
ATOM     27  O   UNL     1       7.829   4.311  16.660  0.00  0.00    +0.000 OA
BRANCH  26  29
ATOM     28  C   UNL     1       6.211   3.983  13.983  0.00  0.00    +0.000 C 
ATOM     29  O   UNL     1       6.185   3.451  15.308  0.00  0.00    +0.000 OA
ENDBRANCH  26  29
ENDBRANCH  20  26
ENDBRANCH  16  23
ENDBRANCH   1  17
TORSDOF 5
ENDMDL
MODEL 2
REMARK VINA RESULT:      -7.5      2.536     10.983
REMARK  Name = 
REMARK  7 active torsions:
REMARK  status: ('A' for Active; 'I' for Inactive)
REMARK    1  A    between atoms: C_1  and  O_2
REMARK    2  A    between atoms: O_2  and  C_3
REMARK    3  A    between atoms: C_3  and  C_5
REMARK    4  A    between atoms: C_8  and  N_9
REMARK    5  A    between atoms: C_10  and  C_12
REMARK    6  A    between atoms: C_17  and  C_19
REMARK    7  A    between atoms: C_21  and  C_22
REMARK                            x       y       z     vdW  Elec       q    Type
REMARK                         _______ _______ _______ _____ _____    ______ ____
ROOT
ATOM      1  C   UNL     1       2.670   5.516  19.533  0.00  0.00    +0.000 A 
ATOM      2  C   UNL     1       3.148   4.274  19.887  0.00  0.00    +0.000 A 
ATOM      3  O   UNL     1       3.913   3.804  18.870  0.00  0.00    +0.000 OA
ATOM      4  C   UNL     1       3.904   4.818  17.955  0.00  0.00    +0.000 A 
ATOM      5  N   UNL     1       4.712   4.612  16.884  0.00  0.00    +0.000 N 
ATOM      6  C   UNL     1       5.044   5.625  16.025  0.00  0.00    +0.000 C 
ATOM      7  O   UNL     1       4.641   6.784  16.078  0.00  0.00    +0.000 OA
ATOM      8  N   UNL     1       3.147   5.846  18.281  0.00  0.00    +0.000 NA
ATOM      9  H   UNL     1       5.192   3.726  16.817  0.00  0.00    +0.000 HD
ENDROOT
BRANCH   6  10
ATOM     10  C   UNL     1       6.010   5.216  15.000  0.00  0.00    +0.000 A 
ATOM     11  C   UNL     1       5.760   4.404  13.866  0.00  0.00    +0.000 A 
ATOM     12  C   UNL     1       6.950   4.380  13.185  0.00  0.00    +0.000 A 
ATOM     13  C   UNL     1       7.396   3.791  11.910  0.00  0.00    +0.000 C 
ATOM     14  O   UNL     1       7.874   5.096  13.879  0.00  0.00    +0.000 OA
ATOM     15  N   UNL     1       7.291   5.628  15.018  0.00  0.00    +0.000 NA
ENDBRANCH   6  10
BRANCH   1  17
ATOM     16  N   UNL     1       1.826   7.694  20.092  0.00  0.00    +0.000 N 
ATOM     17  C   UNL     1       1.828   6.337  20.389  0.00  0.00    +0.000 C 
ATOM     18  O   UNL     1       1.188   5.795  21.287  0.00  0.00    +0.000 OA
ATOM     19  H   UNL     1       2.405   7.975  19.304  0.00  0.00    +0.000 HD
BRANCH  16  23
ATOM     20  C   UNL     1      -0.354  10.675  22.213  0.00  0.00    +0.000 A 
ATOM     21  C   UNL     1      -0.393  10.636  20.822  0.00  0.00    +0.000 A 
ATOM     22  C   UNL     1       0.318   9.656  20.122  0.00  0.00    +0.000 A 
ATOM     23  C   UNL     1       1.086   8.691  20.782  0.00  0.00    +0.000 A 
ATOM     24  C   UNL     1       1.116   8.725  22.183  0.00  0.00    +0.000 A 
ATOM     25  C   UNL     1       0.403   9.712  22.894  0.00  0.00    +0.000 A 
BRANCH  20  26
ATOM     26  C   UNL     1      -1.131  11.745  22.901  0.00  0.00    +0.000 C 
ATOM     27  O   UNL     1      -2.291  11.615  23.260  0.00  0.00    +0.000 OA
BRANCH  26  29
ATOM     28  C   UNL     1      -1.116  14.034  23.355  0.00  0.00    +0.000 C 
ATOM     29  O   UNL     1      -0.369  12.854  23.060  0.00  0.00    +0.000 OA
ENDBRANCH  26  29
ENDBRANCH  20  26
ENDBRANCH  16  23
ENDBRANCH   1  17
TORSDOF 5
ENDMDL
MODEL 3
REMARK VINA RESULT:      -7.5      1.920     11.110
REMARK  Name = 
REMARK  7 active torsions:
REMARK  status: ('A' for Active; 'I' for Inactive)
REMARK    1  A    between atoms: C_1  and  O_2
REMARK    2  A    between atoms: O_2  and  C_3
REMARK    3  A    between atoms: C_3  and  C_5
REMARK    4  A    between atoms: C_8  and  N_9
REMARK    5  A    between atoms: C_10  and  C_12
REMARK    6  A    between atoms: C_17  and  C_19
REMARK    7  A    between atoms: C_21  and  C_22
REMARK                            x       y       z     vdW  Elec       q    Type
REMARK                         _______ _______ _______ _____ _____    ______ ____
ROOT
ATOM      1  C   UNL     1       1.033   9.414  19.323  0.00  0.00    +0.000 A 
ATOM      2  C   UNL     1       1.281  10.188  18.211  0.00  0.00    +0.000 A 
ATOM      3  O   UNL     1       2.240   9.578  17.470  0.00  0.00    +0.000 OA
ATOM      4  C   UNL     1       2.497   8.422  18.150  0.00  0.00    +0.000 A 
ATOM      5  N   UNL     1       3.360   7.584  17.522  0.00  0.00    +0.000 N 
ATOM      6  C   UNL     1       3.509   6.279  17.910  0.00  0.00    +0.000 C 
ATOM      7  O   UNL     1       2.947   5.733  18.855  0.00  0.00    +0.000 OA
ATOM      8  N   UNL     1       1.834   8.291  19.282  0.00  0.00    +0.000 NA
ATOM      9  H   UNL     1       3.781   7.898  16.660  0.00  0.00    +0.000 HD
ENDROOT
BRANCH   6  10
ATOM     10  C   UNL     1       4.408   5.519  17.035  0.00  0.00    +0.000 A 
ATOM     11  C   UNL     1       5.207   6.029  15.981  0.00  0.00    +0.000 A 
ATOM     12  C   UNL     1       5.916   4.947  15.527  0.00  0.00    +0.000 A 
ATOM     13  C   UNL     1       6.963   4.755  14.507  0.00  0.00    +0.000 C 
ATOM     14  O   UNL     1       5.544   3.845  16.230  0.00  0.00    +0.000 OA
ATOM     15  N   UNL     1       4.601   4.195  17.181  0.00  0.00    +0.000 NA
ENDBRANCH   6  10
BRANCH   1  17
ATOM     16  N   UNL     1      -0.425  11.049  20.306  0.00  0.00    +0.000 N 
ATOM     17  C   UNL     1       0.044   9.743  20.338  0.00  0.00    +0.000 C 
ATOM     18  O   UNL     1      -0.306   8.870  21.129  0.00  0.00    +0.000 OA
ATOM     19  H   UNL     1      -0.039  11.641  19.574  0.00  0.00    +0.000 HD
BRANCH  16  23
ATOM     20  C   UNL     1      -3.273  12.708  23.003  0.00  0.00    +0.000 A 
ATOM     21  C   UNL     1      -3.420  12.891  21.630  0.00  0.00    +0.000 A 
ATOM     22  C   UNL     1      -2.490  12.344  20.741  0.00  0.00    +0.000 A 
ATOM     23  C   UNL     1      -1.390  11.603  21.189  0.00  0.00    +0.000 A 
ATOM     24  C   UNL     1      -1.250  11.412  22.570  0.00  0.00    +0.000 A 
ATOM     25  C   UNL     1      -2.183  11.963  23.472  0.00  0.00    +0.000 A 
BRANCH  20  26
ATOM     26  C   UNL     1      -4.297  13.318  23.899  0.00  0.00    +0.000 C 
ATOM     27  O   UNL     1      -4.322  14.502  24.192  0.00  0.00    +0.000 OA
BRANCH  26  29
ATOM     28  C   UNL     1      -6.539  12.681  24.042  0.00  0.00    +0.000 C 
ATOM     29  O   UNL     1      -5.173  12.375  24.325  0.00  0.00    +0.000 OA
ENDBRANCH  26  29
ENDBRANCH  20  26
ENDBRANCH  16  23
ENDBRANCH   1  17
TORSDOF 5
ENDMDL
MODEL 4
REMARK VINA RESULT:      -7.4      1.760     11.104
REMARK  Name = 
REMARK  7 active torsions:
REMARK  status: ('A' for Active; 'I' for Inactive)
REMARK    1  A    between atoms: C_1  and  O_2
REMARK    2  A    between atoms: O_2  and  C_3
REMARK    3  A    between atoms: C_3  and  C_5
REMARK    4  A    between atoms: C_8  and  N_9
REMARK    5  A    between atoms: C_10  and  C_12
REMARK    6  A    between atoms: C_17  and  C_19
REMARK    7  A    between atoms: C_21  and  C_22
REMARK                            x       y       z     vdW  Elec       q    Type
REMARK                         _______ _______ _______ _____ _____    ______ ____
ROOT
ATOM      1  C   UNL     1       1.191   9.273  19.275  0.00  0.00    +0.000 A 
ATOM      2  C   UNL     1       1.378  10.050  18.154  0.00  0.00    +0.000 A 
ATOM      3  O   UNL     1       2.322   9.460  17.378  0.00  0.00    +0.000 OA
ATOM      4  C   UNL     1       2.631   8.312  18.050  0.00  0.00    +0.000 A 
ATOM      5  N   UNL     1       3.489   7.492  17.392  0.00  0.00    +0.000 N 
ATOM      6  C   UNL     1       3.684   6.192  17.776  0.00  0.00    +0.000 C 
ATOM      7  O   UNL     1       3.171   5.637  18.744  0.00  0.00    +0.000 OA
ATOM      8  N   UNL     1       2.016   8.169  19.207  0.00  0.00    +0.000 NA
ATOM      9  H   UNL     1       3.871   7.813  16.513  0.00  0.00    +0.000 HD
ENDROOT
BRANCH   6  10
ATOM     10  C   UNL     1       4.566   5.450  16.870  0.00  0.00    +0.000 A 
ATOM     11  C   UNL     1       5.274   5.967  15.756  0.00  0.00    +0.000 A 
ATOM     12  C   UNL     1       6.010   4.907  15.289  0.00  0.00    +0.000 A 
ATOM     13  C   UNL     1       7.002   4.736  14.213  0.00  0.00    +0.000 C 
ATOM     14  O   UNL     1       5.736   3.810  16.043  0.00  0.00    +0.000 OA
ATOM     15  N   UNL     1       4.834   4.143  17.040  0.00  0.00    +0.000 NA
ENDBRANCH   6  10
BRANCH   1  17
ATOM     16  N   UNL     1      -0.265  10.878  20.312  0.00  0.00    +0.000 N 
ATOM     17  C   UNL     1       0.233   9.582  20.327  0.00  0.00    +0.000 C 
ATOM     18  O   UNL     1      -0.068   8.703  21.130  0.00  0.00    +0.000 OA
ATOM     19  H   UNL     1       0.082  11.477  19.566  0.00  0.00    +0.000 HD
BRANCH  16  23
ATOM     20  C   UNL     1      -3.137  12.487  23.013  0.00  0.00    +0.000 A 
ATOM     21  C   UNL     1      -2.088  11.706  23.491  0.00  0.00    +0.000 A 
ATOM     22  C   UNL     1      -1.140  11.179  22.607  0.00  0.00    +0.000 A 
ATOM     23  C   UNL     1      -1.208  11.412  21.229  0.00  0.00    +0.000 A 
ATOM     24  C   UNL     1      -2.259  12.207  20.752  0.00  0.00    +0.000 A 
ATOM     25  C   UNL     1      -3.219  12.739  21.637  0.00  0.00    +0.000 A 
BRANCH  20  26
ATOM     26  C   UNL     1      -4.116  13.018  24.005  0.00  0.00    +0.000 C 
ATOM     27  O   UNL     1      -4.850  12.311  24.677  0.00  0.00    +0.000 OA
BRANCH  26  29
ATOM     28  C   UNL     1      -3.179  14.891  25.034  0.00  0.00    +0.000 C 
ATOM     29  O   UNL     1      -4.063  14.371  24.042  0.00  0.00    +0.000 OA
ENDBRANCH  26  29
ENDBRANCH  20  26
ENDBRANCH  16  23
ENDBRANCH   1  17
TORSDOF 5
ENDMDL
MODEL 5
REMARK VINA RESULT:      -7.4      2.658     11.078
REMARK  Name = 
REMARK  7 active torsions:
REMARK  status: ('A' for Active; 'I' for Inactive)
REMARK    1  A    between atoms: C_1  and  O_2
REMARK    2  A    between atoms: O_2  and  C_3
REMARK    3  A    between atoms: C_3  and  C_5
REMARK    4  A    between atoms: C_8  and  N_9
REMARK    5  A    between atoms: C_10  and  C_12
REMARK    6  A    between atoms: C_17  and  C_19
REMARK    7  A    between atoms: C_21  and  C_22
REMARK                            x       y       z     vdW  Elec       q    Type
REMARK                         _______ _______ _______ _____ _____    ______ ____
ROOT
ATOM      1  C   UNL     1       2.859   5.329  19.167  0.00  0.00    +0.000 A 
ATOM      2  C   UNL     1       3.176   4.013  19.426  0.00  0.00    +0.000 A 
ATOM      3  O   UNL     1       3.860   3.522  18.362  0.00  0.00    +0.000 OA
ATOM      4  C   UNL     1       3.972   4.589  17.519  0.00  0.00    +0.000 A 
ATOM      5  N   UNL     1       4.732   4.356  16.419  0.00  0.00    +0.000 N 
ATOM      6  C   UNL     1       5.182   5.376  15.623  0.00  0.00    +0.000 C 
ATOM      7  O   UNL     1       4.934   6.570  15.764  0.00  0.00    +0.000 OA
ATOM      8  N   UNL     1       3.359   5.681  17.930  0.00  0.00    +0.000 NA
ATOM      9  H   UNL     1       5.091   3.422  16.281  0.00  0.00    +0.000 HD
ENDROOT
BRANCH   6  10
ATOM     10  C   UNL     1       6.074   4.919  14.552  0.00  0.00    +0.000 A 
ATOM     11  C   UNL     1       5.822   3.886  13.615  0.00  0.00    +0.000 A 
ATOM     12  C   UNL     1       6.913   3.896  12.784  0.00  0.00    +0.000 A 
ATOM     13  C   UNL     1       7.293   3.148  11.573  0.00  0.00    +0.000 C 
ATOM     14  O   UNL     1       7.789   4.844  13.212  0.00  0.00    +0.000 OA
ATOM     15  N   UNL     1       7.267   5.494  14.319  0.00  0.00    +0.000 NA
ENDBRANCH   6  10
BRANCH   1  17
ATOM     16  N   UNL     1       1.969   7.501  19.672  0.00  0.00    +0.000 N 
ATOM     17  C   UNL     1       2.143   6.190  20.095  0.00  0.00    +0.000 C 
ATOM     18  O   UNL     1       1.745   5.715  21.156  0.00  0.00    +0.000 OA
ATOM     19  H   UNL     1       2.350   7.725  18.757  0.00  0.00    +0.000 HD
BRANCH  16  23
ATOM     20  C   UNL     1      -0.059  10.586  21.796  0.00  0.00    +0.000 A 
ATOM     21  C   UNL     1       0.431   9.474  22.476  0.00  0.00    +0.000 A 
ATOM     22  C   UNL     1       1.102   8.461  21.783  0.00  0.00    +0.000 A 
ATOM     23  C   UNL     1       1.303   8.523  20.400  0.00  0.00    +0.000 A 
ATOM     24  C   UNL     1       0.817   9.648  19.718  0.00  0.00    +0.000 A 
ATOM     25  C   UNL     1       0.139  10.672  20.411  0.00  0.00    +0.000 A 
BRANCH  20  26
ATOM     26  C   UNL     1      -0.766  11.631  22.590  0.00  0.00    +0.000 C 
ATOM     27  O   UNL     1      -1.758  11.412  23.266  0.00  0.00    +0.000 OA
BRANCH  26  29
ATOM     28  C   UNL     1      -1.020  13.951  22.598  0.00  0.00    +0.000 C 
ATOM     29  O   UNL     1      -0.149  12.829  22.448  0.00  0.00    +0.000 OA
ENDBRANCH  26  29
ENDBRANCH  20  26
ENDBRANCH  16  23
ENDBRANCH   1  17
TORSDOF 5
ENDMDL
MODEL 6
REMARK VINA RESULT:      -7.4      1.572      2.031
REMARK  Name = 
REMARK  7 active torsions:
REMARK  status: ('A' for Active; 'I' for Inactive)
REMARK    1  A    between atoms: C_1  and  O_2
REMARK    2  A    between atoms: O_2  and  C_3
REMARK    3  A    between atoms: C_3  and  C_5
REMARK    4  A    between atoms: C_8  and  N_9
REMARK    5  A    between atoms: C_10  and  C_12
REMARK    6  A    between atoms: C_17  and  C_19
REMARK    7  A    between atoms: C_21  and  C_22
REMARK                            x       y       z     vdW  Elec       q    Type
REMARK                         _______ _______ _______ _____ _____    ______ ____
ROOT
ATOM      1  C   UNL     1       1.641   8.538  19.542  0.00  0.00    +0.000 A 
ATOM      2  C   UNL     1       1.455   7.769  20.669  0.00  0.00    +0.000 A 
ATOM      3  O   UNL     1       0.683   8.467  21.540  0.00  0.00    +0.000 OA
ATOM      4  C   UNL     1       0.392   9.621  20.872  0.00  0.00    +0.000 A 
ATOM      5  N   UNL     1      -0.478  10.437  21.518  0.00  0.00    +0.000 N 
ATOM      6  C   UNL     1      -1.096  11.482  20.883  0.00  0.00    +0.000 C 
ATOM      7  O   UNL     1      -0.920  11.830  19.719  0.00  0.00    +0.000 OA
ATOM      8  N   UNL     1       0.969   9.734  19.692  0.00  0.00    +0.000 NA
ATOM      9  H   UNL     1      -0.783  10.167  22.443  0.00  0.00    +0.000 HD
ENDROOT
BRANCH   6  10
ATOM     10  C   UNL     1      -2.076  12.171  21.730  0.00  0.00    +0.000 A 
ATOM     11  C   UNL     1      -2.359  11.909  23.093  0.00  0.00    +0.000 A 
ATOM     12  C   UNL     1      -3.282  12.861  23.446  0.00  0.00    +0.000 A 
ATOM     13  C   UNL     1      -3.964  13.220  24.702  0.00  0.00    +0.000 C 
ATOM     14  O   UNL     1      -3.571  13.624  22.359  0.00  0.00    +0.000 OA
ATOM     15  N   UNL     1      -2.815  13.200  21.278  0.00  0.00    +0.000 NA
ENDBRANCH   6  10
BRANCH   1  17
ATOM     16  N   UNL     1       3.185   6.975  18.572  0.00  0.00    +0.000 N 
ATOM     17  C   UNL     1       2.402   8.106  18.380  0.00  0.00    +0.000 C 
ATOM     18  O   UNL     1       2.300   8.744  17.335  0.00  0.00    +0.000 OA
ATOM     19  H   UNL     1       3.142   6.560  19.499  0.00  0.00    +0.000 HD
BRANCH  16  23
ATOM     20  C   UNL     1       5.612   5.093  15.622  0.00  0.00    +0.000 A 
ATOM     21  C   UNL     1       5.782   6.445  15.909  0.00  0.00    +0.000 A 
ATOM     22  C   UNL     1       4.990   7.066  16.881  0.00  0.00    +0.000 A 
ATOM     23  C   UNL     1       4.010   6.364  17.591  0.00  0.00    +0.000 A 
ATOM     24  C   UNL     1       3.846   5.001  17.306  0.00  0.00    +0.000 A 
ATOM     25  C   UNL     1       4.640   4.370  16.326  0.00  0.00    +0.000 A 
BRANCH  20  26
ATOM     26  C   UNL     1       6.485   4.490  14.575  0.00  0.00    +0.000 C 
ATOM     27  O   UNL     1       6.221   3.454  13.986  0.00  0.00    +0.000 OA
BRANCH  26  29
ATOM     28  C   UNL     1       8.015   5.329  13.024  0.00  0.00    +0.000 C 
ATOM     29  O   UNL     1       7.589   5.253  14.384  0.00  0.00    +0.000 OA
ENDBRANCH  26  29
ENDBRANCH  20  26
ENDBRANCH  16  23
ENDBRANCH   1  17
TORSDOF 5
ENDMDL
MODEL 7
REMARK VINA RESULT:      -7.3      0.430      1.016
REMARK  Name = 
REMARK  7 active torsions:
REMARK  status: ('A' for Active; 'I' for Inactive)
REMARK    1  A    between atoms: C_1  and  O_2
REMARK    2  A    between atoms: O_2  and  C_3
REMARK    3  A    between atoms: C_3  and  C_5
REMARK    4  A    between atoms: C_8  and  N_9
REMARK    5  A    between atoms: C_10  and  C_12
REMARK    6  A    between atoms: C_17  and  C_19
REMARK    7  A    between atoms: C_21  and  C_22
REMARK                            x       y       z     vdW  Elec       q    Type
REMARK                         _______ _______ _______ _____ _____    ______ ____
ROOT
ATOM      1  C   UNL     1       0.859   9.304  19.707  0.00  0.00    +0.000 A 
ATOM      2  C   UNL     1       0.491  10.213  18.741  0.00  0.00    +0.000 A 
ATOM      3  O   UNL     1      -0.430  11.055  19.275  0.00  0.00    +0.000 OA
ATOM      4  C   UNL     1      -0.541  10.642  20.571  0.00  0.00    +0.000 A 
ATOM      5  N   UNL     1      -1.339  11.426  21.341  0.00  0.00    +0.000 N 
ATOM      6  C   UNL     1      -1.340  11.333  22.708  0.00  0.00    +0.000 C 
ATOM      7  O   UNL     1      -0.689  10.539  23.382  0.00  0.00    +0.000 OA
ATOM      8  N   UNL     1       0.175   9.578  20.873  0.00  0.00    +0.000 NA
ATOM      9  H   UNL     1      -1.823  12.191  20.895  0.00  0.00    +0.000 HD
ENDROOT
BRANCH   6  10
ATOM     10  C   UNL     1      -2.190  12.339  23.352  0.00  0.00    +0.000 A 
ATOM     11  C   UNL     1      -1.869  13.698  23.597  0.00  0.00    +0.000 A 
ATOM     12  C   UNL     1      -3.009  14.232  24.141  0.00  0.00    +0.000 A 
ATOM     13  C   UNL     1      -3.409  15.582  24.574  0.00  0.00    +0.000 C 
ATOM     14  O   UNL     1      -3.947  13.254  24.257  0.00  0.00    +0.000 OA
ATOM     15  N   UNL     1      -3.442  12.064  23.760  0.00  0.00    +0.000 NA
ENDBRANCH   6  10
BRANCH   1  17
ATOM     16  N   UNL     1       2.339   8.150  18.207  0.00  0.00    +0.000 N 
ATOM     17  C   UNL     1       1.849   8.257  19.502  0.00  0.00    +0.000 C 
ATOM     18  O   UNL     1       2.182   7.561  20.459  0.00  0.00    +0.000 OA
ATOM     19  H   UNL     1       1.965   8.817  17.536  0.00  0.00    +0.000 HD
BRANCH  16  23
ATOM     20  C   UNL     1       5.294   5.385  16.883  0.00  0.00    +0.000 A 
ATOM     21  C   UNL     1       4.112   4.924  17.457  0.00  0.00    +0.000 A 
ATOM     22  C   UNL     1       3.137   5.829  17.890  0.00  0.00    +0.000 A 
ATOM     23  C   UNL     1       3.308   7.212  17.764  0.00  0.00    +0.000 A 
ATOM     24  C   UNL     1       4.495   7.673  17.176  0.00  0.00    +0.000 A 
ATOM     25  C   UNL     1       5.482   6.766  16.741  0.00  0.00    +0.000 A 
BRANCH  20  26
ATOM     26  C   UNL     1       6.295   4.371  16.444  0.00  0.00    +0.000 C 
ATOM     27  O   UNL     1       7.405   4.256  16.939  0.00  0.00    +0.000 OA
BRANCH  26  29
ATOM     28  C   UNL     1       6.296   3.960  14.146  0.00  0.00    +0.000 C 
ATOM     29  O   UNL     1       5.792   3.616  15.437  0.00  0.00    +0.000 OA
ENDBRANCH  26  29
ENDBRANCH  20  26
ENDBRANCH  16  23
ENDBRANCH   1  17
TORSDOF 5
ENDMDL
MODEL 8
REMARK VINA RESULT:      -7.3      1.530      1.862
REMARK  Name = 
REMARK  7 active torsions:
REMARK  status: ('A' for Active; 'I' for Inactive)
REMARK    1  A    between atoms: C_1  and  O_2
REMARK    2  A    between atoms: O_2  and  C_3
REMARK    3  A    between atoms: C_3  and  C_5
REMARK    4  A    between atoms: C_8  and  N_9
REMARK    5  A    between atoms: C_10  and  C_12
REMARK    6  A    between atoms: C_17  and  C_19
REMARK    7  A    between atoms: C_21  and  C_22
REMARK                            x       y       z     vdW  Elec       q    Type
REMARK                         _______ _______ _______ _____ _____    ______ ____
ROOT
ATOM      1  C   UNL     1       1.623   8.461  19.599  0.00  0.00    +0.000 A 
ATOM      2  C   UNL     1       1.391   7.623  20.666  0.00  0.00    +0.000 A 
ATOM      3  O   UNL     1       0.634   8.288  21.575  0.00  0.00    +0.000 OA
ATOM      4  C   UNL     1       0.397   9.497  20.986  0.00  0.00    +0.000 A 
ATOM      5  N   UNL     1      -0.450  10.300  21.677  0.00  0.00    +0.000 N 
ATOM      6  C   UNL     1      -1.017  11.411  21.110  0.00  0.00    +0.000 C 
ATOM      7  O   UNL     1      -0.810  11.832  19.975  0.00  0.00    +0.000 OA
ATOM      8  N   UNL     1       0.996   9.669  19.824  0.00  0.00    +0.000 NA
ATOM      9  H   UNL     1      -0.779   9.979  22.577  0.00  0.00    +0.000 HD
ENDROOT
BRANCH   6  10
ATOM     10  C   UNL     1      -1.982  12.077  21.991  0.00  0.00    +0.000 A 
ATOM     11  C   UNL     1      -2.805  13.186  21.672  0.00  0.00    +0.000 A 
ATOM     12  C   UNL     1      -3.576  13.380  22.789  0.00  0.00    +0.000 A 
ATOM     13  C   UNL     1      -4.672  14.301  23.138  0.00  0.00    +0.000 C 
ATOM     14  O   UNL     1      -3.218  12.476  23.739  0.00  0.00    +0.000 OA
ATOM     15  N   UNL     1      -2.220  11.651  23.245  0.00  0.00    +0.000 NA
ENDBRANCH   6  10
BRANCH   1  17
ATOM     16  N   UNL     1       3.189   6.959  18.568  0.00  0.00    +0.000 N 
ATOM     17  C   UNL     1       2.383   8.081  18.417  0.00  0.00    +0.000 C 
ATOM     18  O   UNL     1       2.263   8.750  17.395  0.00  0.00    +0.000 OA
ATOM     19  H   UNL     1       3.161   6.513  19.482  0.00  0.00    +0.000 HD
BRANCH  16  23
ATOM     20  C   UNL     1       5.633   5.216  15.547  0.00  0.00    +0.000 A 
ATOM     21  C   UNL     1       5.690   6.586  15.789  0.00  0.00    +0.000 A 
ATOM     22  C   UNL     1       4.892   7.162  16.783  0.00  0.00    +0.000 A 
ATOM     23  C   UNL     1       4.018   6.396  17.562  0.00  0.00    +0.000 A 
ATOM     24  C   UNL     1       3.969   5.015  17.324  0.00  0.00    +0.000 A 
ATOM     25  C   UNL     1       4.770   4.429  16.321  0.00  0.00    +0.000 A 
BRANCH  20  26
ATOM     26  C   UNL     1       6.506   4.663  14.473  0.00  0.00    +0.000 C 
ATOM     27  O   UNL     1       7.627   5.081  14.229  0.00  0.00    +0.000 OA
BRANCH  26  29
ATOM     28  C   UNL     1       6.294   3.478  12.474  0.00  0.00    +0.000 C 
ATOM     29  O   UNL     1       5.878   3.650  13.829  0.00  0.00    +0.000 OA
ENDBRANCH  26  29
ENDBRANCH  20  26
ENDBRANCH  16  23
ENDBRANCH   1  17
TORSDOF 5
ENDMDL
MODEL 9
REMARK VINA RESULT:      -7.3      0.596      1.099
REMARK  Name = 
REMARK  7 active torsions:
REMARK  status: ('A' for Active; 'I' for Inactive)
REMARK    1  A    between atoms: C_1  and  O_2
REMARK    2  A    between atoms: O_2  and  C_3
REMARK    3  A    between atoms: C_3  and  C_5
REMARK    4  A    between atoms: C_8  and  N_9
REMARK    5  A    between atoms: C_10  and  C_12
REMARK    6  A    between atoms: C_17  and  C_19
REMARK    7  A    between atoms: C_21  and  C_22
REMARK                            x       y       z     vdW  Elec       q    Type
REMARK                         _______ _______ _______ _____ _____    ______ ____
ROOT
ATOM      1  C   UNL     1       0.969   9.339  19.648  0.00  0.00    +0.000 A 
ATOM      2  C   UNL     1       0.685  10.325  18.729  0.00  0.00    +0.000 A 
ATOM      3  O   UNL     1      -0.218  11.175  19.279  0.00  0.00    +0.000 OA
ATOM      4  C   UNL     1      -0.404  10.687  20.541  0.00  0.00    +0.000 A 
ATOM      5  N   UNL     1      -1.197  11.459  21.328  0.00  0.00    +0.000 N 
ATOM      6  C   UNL     1      -1.261  11.280  22.684  0.00  0.00    +0.000 C 
ATOM      7  O   UNL     1      -0.676  10.416  23.331  0.00  0.00    +0.000 OA
ATOM      8  N   UNL     1       0.248   9.572  20.802  0.00  0.00    +0.000 NA
ATOM      9  H   UNL     1      -1.626  12.274  20.913  0.00  0.00    +0.000 HD
ENDROOT
BRANCH   6  10
ATOM     10  C   UNL     1      -2.091  12.285  23.357  0.00  0.00    +0.000 A 
ATOM     11  C   UNL     1      -1.768  13.645  23.586  0.00  0.00    +0.000 A 
ATOM     12  C   UNL     1      -2.888  14.176  24.172  0.00  0.00    +0.000 A 
ATOM     13  C   UNL     1      -3.278  15.526  24.616  0.00  0.00    +0.000 C 
ATOM     14  O   UNL     1      -3.816  13.194  24.327  0.00  0.00    +0.000 OA
ATOM     15  N   UNL     1      -3.325  12.005  23.815  0.00  0.00    +0.000 NA
ENDBRANCH   6  10
BRANCH   1  17
ATOM     16  N   UNL     1       2.420   8.182  18.124  0.00  0.00    +0.000 N 
ATOM     17  C   UNL     1       1.917   8.260  19.416  0.00  0.00    +0.000 C 
ATOM     18  O   UNL     1       2.208   7.516  20.349  0.00  0.00    +0.000 OA
ATOM     19  H   UNL     1       2.083   8.889  17.474  0.00  0.00    +0.000 HD
BRANCH  16  23
ATOM     20  C   UNL     1       5.179   5.253  16.729  0.00  0.00    +0.000 A 
ATOM     21  C   UNL     1       5.389   6.601  16.450  0.00  0.00    +0.000 A 
ATOM     22  C   UNL     1       4.487   7.566  16.910  0.00  0.00    +0.000 A 
ATOM     23  C   UNL     1       3.356   7.221  17.657  0.00  0.00    +0.000 A 
ATOM     24  C   UNL     1       3.151   5.865  17.945  0.00  0.00    +0.000 A 
ATOM     25  C   UNL     1       4.055   4.886  17.482  0.00  0.00    +0.000 A 
BRANCH  20  26
ATOM     26  C   UNL     1       6.174   4.272  16.210  0.00  0.00    +0.000 C 
ATOM     27  O   UNL     1       5.872   3.257  15.603  0.00  0.00    +0.000 OA
BRANCH  26  29
ATOM     28  C   UNL     1       7.757   4.584  17.897  0.00  0.00    +0.000 C 
ATOM     29  O   UNL     1       7.433   4.674  16.509  0.00  0.00    +0.000 OA
ENDBRANCH  26  29
ENDBRANCH  20  26
ENDBRANCH  16  23
ENDBRANCH   1  17
TORSDOF 5
ENDMDL
