MODEL 1
REMARK VINA RESULT:      -7.0      0.000      0.000
REMARK  Name = 
REMARK  5 active torsions:
REMARK  status: ('A' for Active; 'I' for Inactive)
REMARK    1  A    between atoms: C_1  and  O_2
REMARK    2  A    between atoms: O_2  and  C_3
REMARK    3  A    between atoms: C_3  and  C_5
REMARK    4  A    between atoms: C_6  and  N_7
REMARK    5  A    between atoms: C_20  and  C_21
REMARK                            x       y       z     vdW  Elec       q    Type
REMARK                         _______ _______ _______ _____ _____    ______ ____
ROOT
ATOM      1  C   UNL     1       2.530   6.906  19.489  0.00  0.00    +0.000 C 
ATOM      2  C   UNL     1       2.720   7.613  18.354  0.00  0.00    +0.000 C 
ATOM      3  O   UNL     1       3.592   7.170  17.370  0.00  0.00    +0.000 OA
ATOM      4  C   UNL     1       4.235   5.956  17.497  0.00  0.00    +0.000 A 
ATOM      5  C   UNL     1       4.146   5.192  18.596  0.00  0.00    +0.000 A 
ATOM      6  C   UNL     1       4.909   3.924  18.683  0.00  0.00    +0.000 A 
ATOM      7  O   UNL     1       4.957   3.260  19.710  0.00  0.00    +0.000 OA
ATOM      8  O   UNL     1       5.587   3.507  17.547  0.00  0.00    +0.000 OA
ATOM      9  C   UNL     1       5.712   4.334  16.421  0.00  0.00    +0.000 A 
ATOM     10  C   UNL     1       6.531   3.877  15.389  0.00  0.00    +0.000 A 
ATOM     11  C   UNL     1       6.714   4.676  14.264  0.00  0.00    +0.000 A 
ATOM     12  C   UNL     1       6.073   5.913  14.181  0.00  0.00    +0.000 A 
ATOM     13  C   UNL     1       5.249   6.353  15.221  0.00  0.00    +0.000 A 
ATOM     14  C   UNL     1       5.064   5.562  16.362  0.00  0.00    +0.000 A 
ATOM     15  C   UNL     1       3.319   5.637  19.789  0.00  0.00    +0.000 C 
ENDROOT
BRANCH  15  16
ATOM     16  C   UNL     1       2.463   4.516  20.365  0.00  0.00    +0.000 A 
ATOM     17  C   UNL     1       1.490   3.837  19.629  0.00  0.00    +0.000 A 
ATOM     18  C   UNL     1       0.805   2.777  20.216  0.00  0.00    +0.000 A 
ATOM     19  C   UNL     1       1.096   2.441  21.531  0.00  0.00    +0.000 A 
ATOM     20  N   UNL     1       1.999   3.094  22.287  0.00  0.00    +0.000 NA
ATOM     21  C   UNL     1       2.670   4.100  21.686  0.00  0.00    +0.000 A 
ENDBRANCH  15  16
BRANCH   2  22
ATOM     22  N   UNL     1       2.130   8.811  18.032  0.00  0.00    +0.000 N 
ATOM     23  H   UNL     1       1.230   8.711  17.554  0.00  0.00    +0.000 HD
ATOM     24  H   UNL     1       2.766   9.454  17.570  0.00  0.00    +0.000 HD
ENDBRANCH   2  22
BRANCH   1  25
ATOM     25  C   UNL     1       1.547   7.408  20.487  0.00  0.00    +0.000 C 
ATOM     26  O   UNL     1       0.570   6.788  20.867  0.00  0.00    +0.000 OA
BRANCH  25  28
ATOM     27  C   UNL     1       1.173   9.156  22.010  0.00  0.00    +0.000 C 
ATOM     28  O   UNL     1       1.917   8.644  20.905  0.00  0.00    +0.000 OA
ENDBRANCH  25  28
ENDBRANCH   1  25
TORSDOF 4
ENDMDL
MODEL 2
REMARK VINA RESULT:      -7.0      3.640      7.089
REMARK  Name = 
REMARK  5 active torsions:
REMARK  status: ('A' for Active; 'I' for Inactive)
REMARK    1  A    between atoms: C_1  and  O_2
REMARK    2  A    between atoms: O_2  and  C_3
REMARK    3  A    between atoms: C_3  and  C_5
REMARK    4  A    between atoms: C_6  and  N_7
REMARK    5  A    between atoms: C_20  and  C_21
REMARK                            x       y       z     vdW  Elec       q    Type
REMARK                         _______ _______ _______ _____ _____    ______ ____
ROOT
ATOM      1  C   UNL     1      -0.282  10.697  21.435  0.00  0.00    +0.000 C 
ATOM      2  C   UNL     1      -0.158   9.542  22.124  0.00  0.00    +0.000 C 
ATOM      3  O   UNL     1       0.518   8.456  21.589  0.00  0.00    +0.000 OA
ATOM      4  C   UNL     1       1.145   8.555  20.363  0.00  0.00    +0.000 A 
ATOM      5  C   UNL     1       1.057   9.641  19.581  0.00  0.00    +0.000 A 
ATOM      6  C   UNL     1       1.712   9.654  18.251  0.00  0.00    +0.000 A 
ATOM      7  O   UNL     1       1.554  10.570  17.454  0.00  0.00    +0.000 OA
ATOM      8  O   UNL     1       2.520   8.574  17.927  0.00  0.00    +0.000 OA
ATOM      9  C   UNL     1       2.569   7.425  18.730  0.00  0.00    +0.000 A 
ATOM     10  C   UNL     1       3.301   6.344  18.242  0.00  0.00    +0.000 A 
ATOM     11  C   UNL     1       3.353   5.169  18.986  0.00  0.00    +0.000 A 
ATOM     12  C   UNL     1       2.683   5.092  20.208  0.00  0.00    +0.000 A 
ATOM     13  C   UNL     1       1.959   6.189  20.686  0.00  0.00    +0.000 A 
ATOM     14  C   UNL     1       1.892   7.374  19.942  0.00  0.00    +0.000 A 
ATOM     15  C   UNL     1       0.236  10.844  20.009  0.00  0.00    +0.000 C 
ENDROOT
BRANCH  15  16
ATOM     16  C   UNL     1       0.953  12.166  19.761  0.00  0.00    +0.000 A 
ATOM     17  C   UNL     1       0.478  13.144  18.885  0.00  0.00    +0.000 A 
ATOM     18  C   UNL     1       1.162  14.352  18.774  0.00  0.00    +0.000 A 
ATOM     19  C   UNL     1       2.314  14.537  19.526  0.00  0.00    +0.000 A 
ATOM     20  N   UNL     1       2.826  13.605  20.352  0.00  0.00    +0.000 NA
ATOM     21  C   UNL     1       2.129  12.454  20.463  0.00  0.00    +0.000 A 
ENDBRANCH  15  16
BRANCH   2  22
ATOM     22  N   UNL     1      -0.669   9.279  23.372  0.00  0.00    +0.000 N 
ATOM     23  H   UNL     1       0.047   9.191  24.099  0.00  0.00    +0.000 HD
ATOM     24  H   UNL     1      -1.344   8.520  23.372  0.00  0.00    +0.000 HD
ENDBRANCH   2  22
BRANCH   1  25
ATOM     25  C   UNL     1      -0.979  11.843  22.080  0.00  0.00    +0.000 C 
ATOM     26  O   UNL     1      -0.598  12.403  23.093  0.00  0.00    +0.000 OA
BRANCH  25  28
ATOM     27  C   UNL     1      -3.193  12.625  22.135  0.00  0.00    +0.000 C 
ATOM     28  O   UNL     1      -2.085  12.163  21.363  0.00  0.00    +0.000 OA
ENDBRANCH  25  28
ENDBRANCH   1  25
TORSDOF 4
ENDMDL
MODEL 3
REMARK VINA RESULT:      -6.7      5.541      9.252
REMARK  Name = 
REMARK  5 active torsions:
REMARK  status: ('A' for Active; 'I' for Inactive)
REMARK    1  A    between atoms: C_1  and  O_2
REMARK    2  A    between atoms: O_2  and  C_3
REMARK    3  A    between atoms: C_3  and  C_5
REMARK    4  A    between atoms: C_6  and  N_7
REMARK    5  A    between atoms: C_20  and  C_21
REMARK                            x       y       z     vdW  Elec       q    Type
REMARK                         _______ _______ _______ _____ _____    ______ ____
ROOT
ATOM      1  C   UNL     1       0.181  12.660  19.740  0.00  0.00    +0.000 C 
ATOM      2  C   UNL     1      -0.755  13.445  20.318  0.00  0.00    +0.000 C 
ATOM      3  O   UNL     1      -2.106  13.249  20.072  0.00  0.00    +0.000 OA
ATOM      4  C   UNL     1      -2.530  12.199  19.283  0.00  0.00    +0.000 A 
ATOM      5  C   UNL     1      -1.687  11.383  18.634  0.00  0.00    +0.000 A 
ATOM      6  C   UNL     1      -2.217  10.310  17.759  0.00  0.00    +0.000 A 
ATOM      7  O   UNL     1      -1.489   9.625  17.052  0.00  0.00    +0.000 OA
ATOM      8  O   UNL     1      -3.588  10.104  17.760  0.00  0.00    +0.000 OA
ATOM      9  C   UNL     1      -4.464  10.990  18.406  0.00  0.00    +0.000 A 
ATOM     10  C   UNL     1      -5.829  10.771  18.227  0.00  0.00    +0.000 A 
ATOM     11  C   UNL     1      -6.739  11.643  18.819  0.00  0.00    +0.000 A 
ATOM     12  C   UNL     1      -6.275  12.713  19.586  0.00  0.00    +0.000 A 
ATOM     13  C   UNL     1      -4.902  12.914  19.761  0.00  0.00    +0.000 A 
ATOM     14  C   UNL     1      -3.977  12.048  19.163  0.00  0.00    +0.000 A 
ATOM     15  C   UNL     1      -0.184  11.582  18.728  0.00  0.00    +0.000 C 
ENDROOT
BRANCH  15  16
ATOM     16  C   UNL     1       0.571  10.275  18.939  0.00  0.00    +0.000 A 
ATOM     17  C   UNL     1       1.428   9.720  17.986  0.00  0.00    +0.000 A 
ATOM     18  C   UNL     1       2.132   8.559  18.294  0.00  0.00    +0.000 A 
ATOM     19  C   UNL     1       1.940   7.973  19.537  0.00  0.00    +0.000 A 
ATOM     20  N   UNL     1       1.095   8.454  20.468  0.00  0.00    +0.000 NA
ATOM     21  C   UNL     1       0.445   9.596  20.157  0.00  0.00    +0.000 A 
ENDBRANCH  15  16
BRANCH   2  22
ATOM     22  N   UNL     1      -0.523  14.499  21.167  0.00  0.00    +0.000 N 
ATOM     23  H   UNL     1       0.348  15.001  20.971  0.00  0.00    +0.000 HD
ATOM     24  H   UNL     1      -0.638  14.252  22.146  0.00  0.00    +0.000 HD
ENDBRANCH   2  22
BRANCH   1  25
ATOM     25  C   UNL     1       1.612  12.888  20.079  0.00  0.00    +0.000 C 
ATOM     26  O   UNL     1       2.083  12.786  21.198  0.00  0.00    +0.000 OA
BRANCH  25  28
ATOM     27  C   UNL     1       2.462  14.616  18.733  0.00  0.00    +0.000 C 
ATOM     28  O   UNL     1       2.298  13.215  18.955  0.00  0.00    +0.000 OA
ENDBRANCH  25  28
ENDBRANCH   1  25
TORSDOF 4
ENDMDL
MODEL 4
REMARK VINA RESULT:      -6.5      3.746      7.358
REMARK  Name = 
REMARK  5 active torsions:
REMARK  status: ('A' for Active; 'I' for Inactive)
REMARK    1  A    between atoms: C_1  and  O_2
REMARK    2  A    between atoms: O_2  and  C_3
REMARK    3  A    between atoms: C_3  and  C_5
REMARK    4  A    between atoms: C_6  and  N_7
REMARK    5  A    between atoms: C_20  and  C_21
REMARK                            x       y       z     vdW  Elec       q    Type
REMARK                         _______ _______ _______ _____ _____    ______ ____
ROOT
ATOM      1  C   UNL     1      -0.470  10.710  21.846  0.00  0.00    +0.000 C 
ATOM      2  C   UNL     1      -0.114   9.562  22.461  0.00  0.00    +0.000 C 
ATOM      3  O   UNL     1       0.598   8.579  21.789  0.00  0.00    +0.000 OA
ATOM      4  C   UNL     1       1.021   8.783  20.491  0.00  0.00    +0.000 A 
ATOM      5  C   UNL     1       0.693   9.870  19.776  0.00  0.00    +0.000 A 
ATOM      6  C   UNL     1       1.139   9.995  18.368  0.00  0.00    +0.000 A 
ATOM      7  O   UNL     1       0.761  10.904  17.641  0.00  0.00    +0.000 OA
ATOM      8  O   UNL     1       2.010   9.029  17.886  0.00  0.00    +0.000 OA
ATOM      9  C   UNL     1       2.310   7.874  18.625  0.00  0.00    +0.000 A 
ATOM     10  C   UNL     1       3.082   6.902  17.992  0.00  0.00    +0.000 A 
ATOM     11  C   UNL     1       3.378   5.723  18.670  0.00  0.00    +0.000 A 
ATOM     12  C   UNL     1       2.910   5.536  19.971  0.00  0.00    +0.000 A 
ATOM     13  C   UNL     1       2.142   6.525  20.594  0.00  0.00    +0.000 A 
ATOM     14  C   UNL     1       1.830   7.711  19.918  0.00  0.00    +0.000 A 
ATOM     15  C   UNL     1      -0.189  10.954  20.368  0.00  0.00    +0.000 C 
ENDROOT
BRANCH  15  16
ATOM     16  C   UNL     1       0.325  12.358  20.075  0.00  0.00    +0.000 A 
ATOM     17  C   UNL     1       1.630  12.771  20.352  0.00  0.00    +0.000 A 
ATOM     18  C   UNL     1       2.034  14.052  19.984  0.00  0.00    +0.000 A 
ATOM     19  C   UNL     1       1.113  14.891  19.371  0.00  0.00    +0.000 A 
ATOM     20  N   UNL     1      -0.164  14.545  19.121  0.00  0.00    +0.000 NA
ATOM     21  C   UNL     1      -0.523  13.288  19.462  0.00  0.00    +0.000 A 
ENDBRANCH  15  16
BRANCH   2  22
ATOM     22  N   UNL     1      -0.401   9.209  23.757  0.00  0.00    +0.000 N 
ATOM     23  H   UNL     1      -1.301   9.566  24.091  0.00  0.00    +0.000 HD
ATOM     24  H   UNL     1       0.369   9.386  24.395  0.00  0.00    +0.000 HD
ENDBRANCH   2  22
BRANCH   1  25
ATOM     25  C   UNL     1      -1.192  11.747  22.632  0.00  0.00    +0.000 C 
ATOM     26  O   UNL     1      -2.383  11.718  22.887  0.00  0.00    +0.000 OA
BRANCH  25  28
ATOM     27  C   UNL     1      -0.874  14.022  23.126  0.00  0.00    +0.000 C 
ATOM     28  O   UNL     1      -0.320  12.710  23.022  0.00  0.00    +0.000 OA
ENDBRANCH  25  28
ENDBRANCH   1  25
TORSDOF 4
ENDMDL
MODEL 5
REMARK VINA RESULT:      -6.5      9.345     12.388
REMARK  Name = 
REMARK  5 active torsions:
REMARK  status: ('A' for Active; 'I' for Inactive)
REMARK    1  A    between atoms: C_1  and  O_2
REMARK    2  A    between atoms: O_2  and  C_3
REMARK    3  A    between atoms: C_3  and  C_5
REMARK    4  A    between atoms: C_6  and  N_7
REMARK    5  A    between atoms: C_20  and  C_21
REMARK                            x       y       z     vdW  Elec       q    Type
REMARK                         _______ _______ _______ _____ _____    ______ ____
ROOT
ATOM      1  C   UNL     1      10.353  12.202  20.106  0.00  0.00    +0.000 C 
ATOM      2  C   UNL     1       9.485  11.239  20.487  0.00  0.00    +0.000 C 
ATOM      3  O   UNL     1       8.666  11.410  21.593  0.00  0.00    +0.000 OA
ATOM      4  C   UNL     1       8.668  12.601  22.290  0.00  0.00    +0.000 A 
ATOM      5  C   UNL     1       9.512  13.607  22.019  0.00  0.00    +0.000 A 
ATOM      6  C   UNL     1       9.493  14.837  22.846  0.00  0.00    +0.000 A 
ATOM      7  O   UNL     1      10.326  15.725  22.716  0.00  0.00    +0.000 OA
ATOM      8  O   UNL     1       8.489  14.952  23.796  0.00  0.00    +0.000 OA
ATOM      9  C   UNL     1       7.640  13.878  24.103  0.00  0.00    +0.000 A 
ATOM     10  C   UNL     1       6.760  14.053  25.169  0.00  0.00    +0.000 A 
ATOM     11  C   UNL     1       5.921  13.004  25.535  0.00  0.00    +0.000 A 
ATOM     12  C   UNL     1       5.966  11.802  24.828  0.00  0.00    +0.000 A 
ATOM     13  C   UNL     1       6.850  11.645  23.756  0.00  0.00    +0.000 A 
ATOM     14  C   UNL     1       7.705  12.691  23.384  0.00  0.00    +0.000 A 
ATOM     15  C   UNL     1      10.541  13.482  20.909  0.00  0.00    +0.000 C 
ENDROOT
BRANCH  15  16
ATOM     16  C   UNL     1      10.628  14.732  20.042  0.00  0.00    +0.000 A 
ATOM     17  C   UNL     1      11.821  15.413  19.793  0.00  0.00    +0.000 A 
ATOM     18  C   UNL     1      11.817  16.505  18.930  0.00  0.00    +0.000 A 
ATOM     19  C   UNL     1      10.615  16.899  18.358  0.00  0.00    +0.000 A 
ATOM     20  N   UNL     1       9.438  16.294  18.602  0.00  0.00    +0.000 NA
ATOM     21  C   UNL     1       9.472  15.221  19.420  0.00  0.00    +0.000 A 
ENDBRANCH  15  16
BRANCH   2  22
ATOM     22  N   UNL     1       9.309  10.016  19.888  0.00  0.00    +0.000 N 
ATOM     23  H   UNL     1       8.844   9.327  20.486  0.00  0.00    +0.000 HD
ATOM     24  H   UNL     1      10.154   9.666  19.447  0.00  0.00    +0.000 HD
ENDBRANCH   2  22
BRANCH   1  25
ATOM     25  C   UNL     1      11.173  11.979  18.883  0.00  0.00    +0.000 C 
ATOM     26  O   UNL     1      12.333  11.608  18.886  0.00  0.00    +0.000 OA
BRANCH  25  28
ATOM     27  C   UNL     1      11.042  13.107  16.827  0.00  0.00    +0.000 C 
ATOM     28  O   UNL     1      10.425  12.245  17.782  0.00  0.00    +0.000 OA
ENDBRANCH  25  28
ENDBRANCH   1  25
TORSDOF 4
ENDMDL
MODEL 6
REMARK VINA RESULT:      -6.4      4.368      7.699
REMARK  Name = 
REMARK  5 active torsions:
REMARK  status: ('A' for Active; 'I' for Inactive)
REMARK    1  A    between atoms: C_1  and  O_2
REMARK    2  A    between atoms: O_2  and  C_3
REMARK    3  A    between atoms: C_3  and  C_5
REMARK    4  A    between atoms: C_6  and  N_7
REMARK    5  A    between atoms: C_20  and  C_21
REMARK                            x       y       z     vdW  Elec       q    Type
REMARK                         _______ _______ _______ _____ _____    ______ ____
ROOT
ATOM      1  C   UNL     1       1.094  12.890  19.636  0.00  0.00    +0.000 C 
ATOM      2  C   UNL     1       1.674  12.247  18.599  0.00  0.00    +0.000 C 
ATOM      3  O   UNL     1       1.914  10.882  18.645  0.00  0.00    +0.000 OA
ATOM      4  C   UNL     1       1.499  10.133  19.727  0.00  0.00    +0.000 A 
ATOM      5  C   UNL     1       0.947  10.673  20.824  0.00  0.00    +0.000 A 
ATOM      6  C   UNL     1       0.577   9.811  21.971  0.00  0.00    +0.000 A 
ATOM      7  O   UNL     1       0.187  10.273  23.036  0.00  0.00    +0.000 OA
ATOM      8  O   UNL     1       0.692   8.439  21.803  0.00  0.00    +0.000 OA
ATOM      9  C   UNL     1       1.312   7.887  20.672  0.00  0.00    +0.000 A 
ATOM     10  C   UNL     1       1.502   6.506  20.667  0.00  0.00    +0.000 A 
ATOM     11  C   UNL     1       2.144   5.914  19.583  0.00  0.00    +0.000 A 
ATOM     12  C   UNL     1       2.578   6.705  18.518  0.00  0.00    +0.000 A 
ATOM     13  C   UNL     1       2.373   8.088  18.536  0.00  0.00    +0.000 A 
ATOM     14  C   UNL     1       1.736   8.696  19.625  0.00  0.00    +0.000 A 
ATOM     15  C   UNL     1       0.751  12.175  20.937  0.00  0.00    +0.000 C 
ENDROOT
BRANCH  15  16
ATOM     16  C   UNL     1      -0.618  12.551  21.490  0.00  0.00    +0.000 A 
ATOM     17  C   UNL     1      -0.797  13.266  22.676  0.00  0.00    +0.000 A 
ATOM     18  C   UNL     1      -2.084  13.628  23.067  0.00  0.00    +0.000 A 
ATOM     19  C   UNL     1      -3.155  13.243  22.274  0.00  0.00    +0.000 A 
ATOM     20  N   UNL     1      -3.028  12.520  21.145  0.00  0.00    +0.000 NA
ATOM     21  C   UNL     1      -1.769  12.206  20.772  0.00  0.00    +0.000 A 
ENDBRANCH  15  16
BRANCH   2  22
ATOM     22  N   UNL     1       2.104  12.817  17.425  0.00  0.00    +0.000 N 
ATOM     23  H   UNL     1       1.548  13.625  17.133  0.00  0.00    +0.000 HD
ATOM     24  H   UNL     1       2.251  12.136  16.686  0.00  0.00    +0.000 HD
ENDBRANCH   2  22
BRANCH   1  25
ATOM     25  C   UNL     1       0.819  14.347  19.510  0.00  0.00    +0.000 C 
ATOM     26  O   UNL     1       0.003  14.834  18.748  0.00  0.00    +0.000 OA
BRANCH  25  28
ATOM     27  C   UNL     1       2.735  15.680  19.781  0.00  0.00    +0.000 C 
ATOM     28  O   UNL     1       1.608  15.034  20.374  0.00  0.00    +0.000 OA
ENDBRANCH  25  28
ENDBRANCH   1  25
TORSDOF 4
ENDMDL
MODEL 7
REMARK VINA RESULT:      -6.4      5.676      9.118
REMARK  Name = 
REMARK  5 active torsions:
REMARK  status: ('A' for Active; 'I' for Inactive)
REMARK    1  A    between atoms: C_1  and  O_2
REMARK    2  A    between atoms: O_2  and  C_3
REMARK    3  A    between atoms: C_3  and  C_5
REMARK    4  A    between atoms: C_6  and  N_7
REMARK    5  A    between atoms: C_20  and  C_21
REMARK                            x       y       z     vdW  Elec       q    Type
REMARK                         _______ _______ _______ _____ _____    ______ ____
ROOT
ATOM      1  C   UNL     1      -1.066  14.464  20.766  0.00  0.00    +0.000 C 
ATOM      2  C   UNL     1      -0.499  14.288  19.552  0.00  0.00    +0.000 C 
ATOM      3  O   UNL     1       0.128  13.096  19.219  0.00  0.00    +0.000 OA
ATOM      4  C   UNL     1       0.125  12.033  20.099  0.00  0.00    +0.000 A 
ATOM      5  C   UNL     1      -0.378  12.110  21.340  0.00  0.00    +0.000 A 
ATOM      6  C   UNL     1      -0.296  10.942  22.248  0.00  0.00    +0.000 A 
ATOM      7  O   UNL     1      -0.627  11.005  23.425  0.00  0.00    +0.000 OA
ATOM      8  O   UNL     1       0.180   9.752  21.718  0.00  0.00    +0.000 OA
ATOM      9  C   UNL     1       0.745   9.693  20.435  0.00  0.00    +0.000 A 
ATOM     10  C   UNL     1       1.321   8.483  20.053  0.00  0.00    +0.000 A 
ATOM     11  C   UNL     1       1.925   8.383  18.803  0.00  0.00    +0.000 A 
ATOM     12  C   UNL     1       1.936   9.487  17.949  0.00  0.00    +0.000 A 
ATOM     13  C   UNL     1       1.347  10.692  18.345  0.00  0.00    +0.000 A 
ATOM     14  C   UNL     1       0.745  10.807  19.605  0.00  0.00    +0.000 A 
ATOM     15  C   UNL     1      -0.976  13.406  21.858  0.00  0.00    +0.000 C 
ENDROOT
BRANCH  15  16
ATOM     16  C   UNL     1      -2.289  13.192  22.602  0.00  0.00    +0.000 A 
ATOM     17  C   UNL     1      -2.492  13.577  23.929  0.00  0.00    +0.000 A 
ATOM     18  C   UNL     1      -3.748  13.408  24.505  0.00  0.00    +0.000 A 
ATOM     19  C   UNL     1      -4.759  12.837  23.745  0.00  0.00    +0.000 A 
ATOM     20  N   UNL     1      -4.594  12.418  22.476  0.00  0.00    +0.000 NA
ATOM     21  C   UNL     1      -3.376  12.619  21.930  0.00  0.00    +0.000 A 
ENDBRANCH  15  16
BRANCH   2  22
ATOM     22  N   UNL     1      -0.444  15.211  18.537  0.00  0.00    +0.000 N 
ATOM     23  H   UNL     1      -1.113  15.033  17.782  0.00  0.00    +0.000 HD
ATOM     24  H   UNL     1       0.501  15.384  18.209  0.00  0.00    +0.000 HD
ENDBRANCH   2  22
BRANCH   1  25
ATOM     25  C   UNL     1      -1.765  15.747  21.048  0.00  0.00    +0.000 C 
ATOM     26  O   UNL     1      -2.809  16.096  20.527  0.00  0.00    +0.000 OA
BRANCH  25  28
ATOM     27  C   UNL     1      -1.860  17.134  22.942  0.00  0.00    +0.000 C 
ATOM     28  O   UNL     1      -1.064  16.450  21.973  0.00  0.00    +0.000 OA
ENDBRANCH  25  28
ENDBRANCH   1  25
TORSDOF 4
ENDMDL
MODEL 8
REMARK VINA RESULT:      -6.3      3.964      7.528
REMARK  Name = 
REMARK  5 active torsions:
REMARK  status: ('A' for Active; 'I' for Inactive)
REMARK    1  A    between atoms: C_1  and  O_2
REMARK    2  A    between atoms: O_2  and  C_3
REMARK    3  A    between atoms: C_3  and  C_5
REMARK    4  A    between atoms: C_6  and  N_7
REMARK    5  A    between atoms: C_20  and  C_21
REMARK                            x       y       z     vdW  Elec       q    Type
REMARK                         _______ _______ _______ _____ _____    ______ ____
ROOT
ATOM      1  C   UNL     1      -0.388  11.460  21.296  0.00  0.00    +0.000 C 
ATOM      2  C   UNL     1      -0.447  10.339  22.047  0.00  0.00    +0.000 C 
ATOM      3  O   UNL     1       0.150   9.160  21.625  0.00  0.00    +0.000 OA
ATOM      4  C   UNL     1       0.882   9.124  20.455  0.00  0.00    +0.000 A 
ATOM      5  C   UNL     1       0.975  10.168  19.617  0.00  0.00    +0.000 A 
ATOM      6  C   UNL     1       1.734  10.038  18.351  0.00  0.00    +0.000 A 
ATOM      7  O   UNL     1       1.742  10.919  17.501  0.00  0.00    +0.000 OA
ATOM      8  O   UNL     1       2.445   8.864  18.149  0.00  0.00    +0.000 OA
ATOM      9  C   UNL     1       2.304   7.763  19.008  0.00  0.00    +0.000 A 
ATOM     10  C   UNL     1       2.952   6.586  18.637  0.00  0.00    +0.000 A 
ATOM     11  C   UNL     1       2.816   5.455  19.438  0.00  0.00    +0.000 A 
ATOM     12  C   UNL     1       2.044   5.518  20.599  0.00  0.00    +0.000 A 
ATOM     13  C   UNL     1       1.406   6.708  20.960  0.00  0.00    +0.000 A 
ATOM     14  C   UNL     1       1.529   7.850  20.157  0.00  0.00    +0.000 A 
ATOM     15  C   UNL     1       0.257  11.472  19.915  0.00  0.00    +0.000 C 
ENDROOT
BRANCH  15  16
ATOM     16  C   UNL     1       1.130  12.696  19.668  0.00  0.00    +0.000 A 
ATOM     17  C   UNL     1       0.806  13.698  18.751  0.00  0.00    +0.000 A 
ATOM     18  C   UNL     1       1.628  14.817  18.643  0.00  0.00    +0.000 A 
ATOM     19  C   UNL     1       2.763  14.889  19.437  0.00  0.00    +0.000 A 
ATOM     20  N   UNL     1       3.132  13.927  20.304  0.00  0.00    +0.000 NA
ATOM     21  C   UNL     1       2.304  12.866  20.411  0.00  0.00    +0.000 A 
ENDBRANCH  15  16
BRANCH   2  22
ATOM     22  N   UNL     1      -1.083  10.201  23.257  0.00  0.00    +0.000 N 
ATOM     23  H   UNL     1      -0.826   9.348  23.762  0.00  0.00    +0.000 HD
ATOM     24  H   UNL     1      -2.085  10.351  23.196  0.00  0.00    +0.000 HD
ENDBRANCH   2  22
BRANCH   1  25
ATOM     25  C   UNL     1      -1.007  12.706  21.823  0.00  0.00    +0.000 C 
ATOM     26  O   UNL     1      -1.880  13.339  21.255  0.00  0.00    +0.000 OA
BRANCH  25  28
ATOM     27  C   UNL     1      -1.159  14.003  23.776  0.00  0.00    +0.000 C 
ATOM     28  O   UNL     1      -0.458  13.012  23.025  0.00  0.00    +0.000 OA
ENDBRANCH  25  28
ENDBRANCH   1  25
TORSDOF 4
ENDMDL
MODEL 9
REMARK VINA RESULT:      -6.3      4.403      7.706
REMARK  Name = 
REMARK  5 active torsions:
REMARK  status: ('A' for Active; 'I' for Inactive)
REMARK    1  A    between atoms: C_1  and  O_2
REMARK    2  A    between atoms: O_2  and  C_3
REMARK    3  A    between atoms: C_3  and  C_5
REMARK    4  A    between atoms: C_6  and  N_7
REMARK    5  A    between atoms: C_20  and  C_21
REMARK                            x       y       z     vdW  Elec       q    Type
REMARK                         _______ _______ _______ _____ _____    ______ ____
ROOT
ATOM      1  C   UNL     1       1.153  12.966  19.648  0.00  0.00    +0.000 C 
ATOM      2  C   UNL     1       1.722  12.337  18.596  0.00  0.00    +0.000 C 
ATOM      3  O   UNL     1       1.943  10.967  18.615  0.00  0.00    +0.000 OA
ATOM      4  C   UNL     1       1.521  10.203  19.683  0.00  0.00    +0.000 A 
ATOM      5  C   UNL     1       0.979  10.729  20.792  0.00  0.00    +0.000 A 
ATOM      6  C   UNL     1       0.600   9.849  21.923  0.00  0.00    +0.000 A 
ATOM      7  O   UNL     1       0.220  10.294  22.998  0.00  0.00    +0.000 OA
ATOM      8  O   UNL     1       0.695   8.479  21.726  0.00  0.00    +0.000 OA
ATOM      9  C   UNL     1       1.305   7.941  20.583  0.00  0.00    +0.000 A 
ATOM     10  C   UNL     1       1.476   6.558  20.550  0.00  0.00    +0.000 A 
ATOM     11  C   UNL     1       2.107   5.979  19.453  0.00  0.00    +0.000 A 
ATOM     12  C   UNL     1       2.548   6.785  18.402  0.00  0.00    +0.000 A 
ATOM     13  C   UNL     1       2.362   8.170  18.448  0.00  0.00    +0.000 A 
ATOM     14  C   UNL     1       1.737   8.765  19.551  0.00  0.00    +0.000 A 
ATOM     15  C   UNL     1       0.805  12.230  20.936  0.00  0.00    +0.000 C 
ENDROOT
BRANCH  15  16
ATOM     16  C   UNL     1      -0.558  12.614  21.501  0.00  0.00    +0.000 A 
ATOM     17  C   UNL     1      -1.767  12.236  20.913  0.00  0.00    +0.000 A 
ATOM     18  C   UNL     1      -2.964  12.571  21.539  0.00  0.00    +0.000 A 
ATOM     19  C   UNL     1      -2.919  13.296  22.722  0.00  0.00    +0.000 A 
ATOM     20  N   UNL     1      -1.776  13.712  23.300  0.00  0.00    +0.000 NA
ATOM     21  C   UNL     1      -0.628  13.351  22.689  0.00  0.00    +0.000 A 
ENDBRANCH  15  16
BRANCH   2  22
ATOM     22  N   UNL     1       2.156  12.923  17.433  0.00  0.00    +0.000 N 
ATOM     23  H   UNL     1       1.453  12.932  16.689  0.00  0.00    +0.000 HD
ATOM     24  H   UNL     1       3.063  12.579  17.131  0.00  0.00    +0.000 HD
ENDBRANCH   2  22
BRANCH   1  25
ATOM     25  C   UNL     1       0.899  14.429  19.552  0.00  0.00    +0.000 C 
ATOM     26  O   UNL     1       1.504  15.280  20.180  0.00  0.00    +0.000 OA
BRANCH  25  28
ATOM     27  C   UNL     1      -0.502  16.022  18.543  0.00  0.00    +0.000 C 
ATOM     28  O   UNL     1      -0.094  14.659  18.656  0.00  0.00    +0.000 OA
ENDBRANCH  25  28
ENDBRANCH   1  25
TORSDOF 4
ENDMDL
