MODEL 1
REMARK VINA RESULT:      -6.4      0.000      0.000
REMARK  Name = 
REMARK  9 active torsions:
REMARK  status: ('A' for Active; 'I' for Inactive)
REMARK    1  A    between atoms: C_1  and  C_2
REMARK    2  A    between atoms: C_2  and  C_3
REMARK    3  A    between atoms: C_3  and  N_4
REMARK    4  A    between atoms: N_4  and  C_5
REMARK    5  A    between atoms: C_5  and  C_6
REMARK    6  A    between atoms: N_8  and  C_9
REMARK    7  A    between atoms: N_8  and  C_10
REMARK    8  A    between atoms: C_11  and  C_13
REMARK    9  A    between atoms: C_13  and  C_14
REMARK                            x       y       z     vdW  Elec       q    Type
REMARK                         _______ _______ _______ _____ _____    ______ ____
ROOT
ATOM      1  N   UNL     1       5.387   5.695  16.708  0.00  0.00    +0.000 N 
ATOM      2  C   UNL     1       5.157   4.378  16.307  0.00  0.00    +0.000 C 
ATOM      3  O   UNL     1       6.086   3.641  15.958  0.00  0.00    +0.000 OA
ENDROOT
BRANCH   1   4
ATOM      4  C   UNL     1       6.770   6.174  16.617  0.00  0.00    +0.000 C 
BRANCH   4   6
ATOM      5  C   UNL     1       7.709   5.593  18.935  0.00  0.00    +0.000 C 
ATOM      6  C   UNL     1       7.350   6.688  17.945  0.00  0.00    +0.000 C 
ENDBRANCH   4   6
ENDBRANCH   1   4
BRANCH   1   7
ATOM      7  C   UNL     1       4.334   6.694  16.974  0.00  0.00    +0.000 C 
BRANCH   7   8
ATOM      8  C   UNL     1       3.796   6.765  18.423  0.00  0.00    +0.000 C 
ATOM      9  O   UNL     1       4.255   6.051  19.316  0.00  0.00    +0.000 OA
ATOM     10  N   UNL     1       2.718   7.628  18.659  0.00  0.00    +0.000 N 
ATOM     11  C   UNL     1       2.226   8.628  17.726  0.00  0.00    +0.000 C 
ATOM     12  C   UNL     1       1.972   7.514  19.906  0.00  0.00    +0.000 C 
ENDBRANCH   7   8
ENDBRANCH   1   7
BRANCH   2  13
ATOM     13  C   UNL     1       3.737   3.834  16.253  0.00  0.00    +0.000 C 
BRANCH  13  14
ATOM     14  C   UNL     1       3.197   3.463  17.613  0.00  0.00    +0.000 A 
ATOM     15  C   UNL     1       1.873   3.764  17.961  0.00  0.00    +0.000 A 
ATOM     16  C   UNL     1       1.386   3.451  19.232  0.00  0.00    +0.000 A 
ATOM     17  C   UNL     1       2.217   2.830  20.170  0.00  0.00    +0.000 A 
ATOM     18 CL   UNL     1       1.563   2.504  21.733  0.00  0.00    +0.000 Cl
ATOM     19  C   UNL     1       3.532   2.506  19.823  0.00  0.00    +0.000 A 
ATOM     20 CL   UNL     1       4.623   1.743  20.925  0.00  0.00    +0.000 Cl
ATOM     21  C   UNL     1       4.015   2.812  18.547  0.00  0.00    +0.000 A 
ENDBRANCH  13  14
ENDBRANCH   2  13
TORSDOF 6
ENDMDL
MODEL 2
REMARK VINA RESULT:      -6.4      2.931      5.812
REMARK  Name = 
REMARK  9 active torsions:
REMARK  status: ('A' for Active; 'I' for Inactive)
REMARK    1  A    between atoms: C_1  and  C_2
REMARK    2  A    between atoms: C_2  and  C_3
REMARK    3  A    between atoms: C_3  and  N_4
REMARK    4  A    between atoms: N_4  and  C_5
REMARK    5  A    between atoms: C_5  and  C_6
REMARK    6  A    between atoms: N_8  and  C_9
REMARK    7  A    between atoms: N_8  and  C_10
REMARK    8  A    between atoms: C_11  and  C_13
REMARK    9  A    between atoms: C_13  and  C_14
REMARK                            x       y       z     vdW  Elec       q    Type
REMARK                         _______ _______ _______ _____ _____    ______ ____
ROOT
ATOM      1  N   UNL     1       2.833   3.919  18.388  0.00  0.00    +0.000 N 
ATOM      2  C   UNL     1       2.279   5.138  17.995  0.00  0.00    +0.000 C 
ATOM      3  O   UNL     1       1.138   5.203  17.522  0.00  0.00    +0.000 OA
ENDROOT
BRANCH   1   4
ATOM      4  C   UNL     1       2.024   2.722  18.137  0.00  0.00    +0.000 C 
BRANCH   4   6
ATOM      5  C   UNL     1       1.215   2.888  20.568  0.00  0.00    +0.000 C 
ATOM      6  C   UNL     1       0.873   2.515  19.136  0.00  0.00    +0.000 C 
ENDBRANCH   4   6
ENDBRANCH   1   4
BRANCH   1   7
ATOM      7  C   UNL     1       4.236   3.722  18.800  0.00  0.00    +0.000 C 
BRANCH   7   8
ATOM      8  C   UNL     1       5.315   3.940  17.713  0.00  0.00    +0.000 C 
ATOM      9  O   UNL     1       5.195   3.465  16.583  0.00  0.00    +0.000 OA
ATOM     10  N   UNL     1       6.467   4.642  18.093  0.00  0.00    +0.000 N 
ATOM     11  C   UNL     1       6.625   5.382  19.333  0.00  0.00    +0.000 C 
ATOM     12  C   UNL     1       7.639   4.612  17.227  0.00  0.00    +0.000 C 
ENDBRANCH   7   8
ENDBRANCH   1   7
BRANCH   2  13
ATOM     13  C   UNL     1       3.093   6.419  18.106  0.00  0.00    +0.000 C 
BRANCH  13  14
ATOM     14  C   UNL     1       2.287   7.587  18.619  0.00  0.00    +0.000 A 
ATOM     15  C   UNL     1       1.866   8.601  17.748  0.00  0.00    +0.000 A 
ATOM     16  C   UNL     1       1.149   9.698  18.231  0.00  0.00    +0.000 A 
ATOM     17  C   UNL     1       0.843   9.793  19.592  0.00  0.00    +0.000 A 
ATOM     18 CL   UNL     1      -0.014  11.192  20.128  0.00  0.00    +0.000 Cl
ATOM     19  C   UNL     1       1.239   8.775  20.465  0.00  0.00    +0.000 A 
ATOM     20 CL   UNL     1       0.904   8.820  22.160  0.00  0.00    +0.000 Cl
ATOM     21  C   UNL     1       1.948   7.673  19.977  0.00  0.00    +0.000 A 
ENDBRANCH  13  14
ENDBRANCH   2  13
TORSDOF 6
ENDMDL
MODEL 3
REMARK VINA RESULT:      -6.3      2.913      4.818
REMARK  Name = 
REMARK  9 active torsions:
REMARK  status: ('A' for Active; 'I' for Inactive)
REMARK    1  A    between atoms: C_1  and  C_2
REMARK    2  A    between atoms: C_2  and  C_3
REMARK    3  A    between atoms: C_3  and  N_4
REMARK    4  A    between atoms: N_4  and  C_5
REMARK    5  A    between atoms: C_5  and  C_6
REMARK    6  A    between atoms: N_8  and  C_9
REMARK    7  A    between atoms: N_8  and  C_10
REMARK    8  A    between atoms: C_11  and  C_13
REMARK    9  A    between atoms: C_13  and  C_14
REMARK                            x       y       z     vdW  Elec       q    Type
REMARK                         _______ _______ _______ _____ _____    ______ ____
ROOT
ATOM      1  N   UNL     1       5.820   3.905  16.733  0.00  0.00    +0.000 N 
ATOM      2  C   UNL     1       4.593   4.087  17.372  0.00  0.00    +0.000 C 
ATOM      3  O   UNL     1       3.535   3.713  16.851  0.00  0.00    +0.000 OA
ENDROOT
BRANCH   1   4
ATOM      4  C   UNL     1       5.777   3.323  15.387  0.00  0.00    +0.000 C 
BRANCH   4   6
ATOM      5  C   UNL     1       5.752   3.755  12.857  0.00  0.00    +0.000 C 
ATOM      6  C   UNL     1       5.735   4.358  14.251  0.00  0.00    +0.000 C 
ENDBRANCH   4   6
ENDBRANCH   1   4
BRANCH   1   7
ATOM      7  C   UNL     1       7.105   4.466  17.194  0.00  0.00    +0.000 C 
BRANCH   7   8
ATOM      8  C   UNL     1       7.223   6.009  17.208  0.00  0.00    +0.000 C 
ATOM      9  O   UNL     1       6.899   6.688  16.233  0.00  0.00    +0.000 OA
ATOM     10  N   UNL     1       7.779   6.592  18.354  0.00  0.00    +0.000 N 
ATOM     11  C   UNL     1       8.027   5.903  19.609  0.00  0.00    +0.000 C 
ATOM     12  C   UNL     1       8.202   7.986  18.311  0.00  0.00    +0.000 C 
ENDBRANCH   7   8
ENDBRANCH   1   7
BRANCH   2  13
ATOM     13  C   UNL     1       4.531   4.793  18.719  0.00  0.00    +0.000 C 
BRANCH  13  14
ATOM     14  C   UNL     1       3.660   6.026  18.698  0.00  0.00    +0.000 A 
ATOM     15  C   UNL     1       3.686   6.899  17.601  0.00  0.00    +0.000 A 
ATOM     16  C   UNL     1       2.905   8.057  17.599  0.00  0.00    +0.000 A 
ATOM     17  C   UNL     1       2.087   8.355  18.693  0.00  0.00    +0.000 A 
ATOM     18 CL   UNL     1       1.176   9.820  18.642  0.00  0.00    +0.000 Cl
ATOM     19  C   UNL     1       2.039   7.478  19.782  0.00  0.00    +0.000 A 
ATOM     20 CL   UNL     1       1.058   7.777  21.173  0.00  0.00    +0.000 Cl
ATOM     21  C   UNL     1       2.814   6.315  19.778  0.00  0.00    +0.000 A 
ENDBRANCH  13  14
ENDBRANCH   2  13
TORSDOF 6
ENDMDL
MODEL 4
REMARK VINA RESULT:      -6.3      2.945      5.843
REMARK  Name = 
REMARK  9 active torsions:
REMARK  status: ('A' for Active; 'I' for Inactive)
REMARK    1  A    between atoms: C_1  and  C_2
REMARK    2  A    between atoms: C_2  and  C_3
REMARK    3  A    between atoms: C_3  and  N_4
REMARK    4  A    between atoms: N_4  and  C_5
REMARK    5  A    between atoms: C_5  and  C_6
REMARK    6  A    between atoms: N_8  and  C_9
REMARK    7  A    between atoms: N_8  and  C_10
REMARK    8  A    between atoms: C_11  and  C_13
REMARK    9  A    between atoms: C_13  and  C_14
REMARK                            x       y       z     vdW  Elec       q    Type
REMARK                         _______ _______ _______ _____ _____    ______ ____
ROOT
ATOM      1  N   UNL     1       3.620   4.102  19.256  0.00  0.00    +0.000 N 
ATOM      2  C   UNL     1       2.706   5.114  18.960  0.00  0.00    +0.000 C 
ATOM      3  O   UNL     1       1.489   4.945  19.105  0.00  0.00    +0.000 OA
ENDROOT
BRANCH   1   4
ATOM      4  C   UNL     1       3.055   2.812  19.668  0.00  0.00    +0.000 C 
BRANCH   4   6
ATOM      5  C   UNL     1       1.404   2.690  21.630  0.00  0.00    +0.000 C 
ATOM      6  C   UNL     1       2.856   2.664  21.185  0.00  0.00    +0.000 C 
ENDBRANCH   4   6
ENDBRANCH   1   4
BRANCH   1   7
ATOM      7  C   UNL     1       5.064   4.152  18.956  0.00  0.00    +0.000 C 
BRANCH   7   8
ATOM      8  C   UNL     1       5.460   4.219  17.462  0.00  0.00    +0.000 C 
ATOM      9  O   UNL     1       4.789   3.659  16.593  0.00  0.00    +0.000 OA
ATOM     10  N   UNL     1       6.652   4.884  17.150  0.00  0.00    +0.000 N 
ATOM     11  C   UNL     1       7.412   5.715  18.068  0.00  0.00    +0.000 C 
ATOM     12  C   UNL     1       7.237   4.718  15.825  0.00  0.00    +0.000 C 
ENDBRANCH   7   8
ENDBRANCH   1   7
BRANCH   2  13
ATOM     13  C   UNL     1       3.194   6.447  18.411  0.00  0.00    +0.000 C 
BRANCH  13  14
ATOM     14  C   UNL     1       2.307   7.605  18.801  0.00  0.00    +0.000 A 
ATOM     15  C   UNL     1       1.852   8.512  17.834  0.00  0.00    +0.000 A 
ATOM     16  C   UNL     1       1.059   9.601  18.203  0.00  0.00    +0.000 A 
ATOM     17  C   UNL     1       0.712   9.796  19.543  0.00  0.00    +0.000 A 
ATOM     18 CL   UNL     1      -0.239  11.182  19.935  0.00  0.00    +0.000 Cl
ATOM     19  C   UNL     1       1.143   8.884  20.511  0.00  0.00    +0.000 A 
ATOM     20 CL   UNL     1       0.760   9.056  22.188  0.00  0.00    +0.000 Cl
ATOM     21  C   UNL     1       1.928   7.788  20.139  0.00  0.00    +0.000 A 
ENDBRANCH  13  14
ENDBRANCH   2  13
TORSDOF 6
ENDMDL
MODEL 5
REMARK VINA RESULT:      -6.3      3.170      5.617
REMARK  Name = 
REMARK  9 active torsions:
REMARK  status: ('A' for Active; 'I' for Inactive)
REMARK    1  A    between atoms: C_1  and  C_2
REMARK    2  A    between atoms: C_2  and  C_3
REMARK    3  A    between atoms: C_3  and  N_4
REMARK    4  A    between atoms: N_4  and  C_5
REMARK    5  A    between atoms: C_5  and  C_6
REMARK    6  A    between atoms: N_8  and  C_9
REMARK    7  A    between atoms: N_8  and  C_10
REMARK    8  A    between atoms: C_11  and  C_13
REMARK    9  A    between atoms: C_13  and  C_14
REMARK                            x       y       z     vdW  Elec       q    Type
REMARK                         _______ _______ _______ _____ _____    ______ ____
ROOT
ATOM      1  N   UNL     1       3.526   4.353  17.518  0.00  0.00    +0.000 N 
ATOM      2  C   UNL     1       2.633   5.388  17.800  0.00  0.00    +0.000 C 
ATOM      3  O   UNL     1       1.425   5.173  17.948  0.00  0.00    +0.000 OA
ENDROOT
BRANCH   1   4
ATOM      4  C   UNL     1       2.942   3.021  17.330  0.00  0.00    +0.000 C 
BRANCH   4   6
ATOM      5  C   UNL     1       1.569   1.937  19.210  0.00  0.00    +0.000 C 
ATOM      6  C   UNL     1       2.942   2.146  18.595  0.00  0.00    +0.000 C 
ENDBRANCH   4   6
ENDBRANCH   1   4
BRANCH   1   7
ATOM      7  C   UNL     1       4.946   4.535  17.159  0.00  0.00    +0.000 C 
BRANCH   7   8
ATOM      8  C   UNL     1       5.956   4.584  18.330  0.00  0.00    +0.000 C 
ATOM      9  O   UNL     1       5.828   3.863  19.321  0.00  0.00    +0.000 OA
ATOM     10  N   UNL     1       6.982   5.534  18.243  0.00  0.00    +0.000 N 
ATOM     11  C   UNL     1       7.317   6.298  17.054  0.00  0.00    +0.000 C 
ATOM     12  C   UNL     1       7.769   5.844  19.430  0.00  0.00    +0.000 C 
ENDBRANCH   7   8
ENDBRANCH   1   7
BRANCH   2  13
ATOM     13  C   UNL     1       3.133   6.823  17.893  0.00  0.00    +0.000 C 
BRANCH  13  14
ATOM     14  C   UNL     1       2.316   7.671  18.836  0.00  0.00    +0.000 A 
ATOM     15  C   UNL     1       2.107   7.266  20.162  0.00  0.00    +0.000 A 
ATOM     16  C   UNL     1       1.323   8.036  21.023  0.00  0.00    +0.000 A 
ATOM     17  C   UNL     1       0.738   9.222  20.569  0.00  0.00    +0.000 A 
ATOM     18 CL   UNL     1      -0.249  10.107  21.675  0.00  0.00    +0.000 Cl
ATOM     19  C   UNL     1       0.959   9.646  19.255  0.00  0.00    +0.000 A 
ATOM     20 CL   UNL     1       0.269  11.097  18.617  0.00  0.00    +0.000 Cl
ATOM     21  C   UNL     1       1.753   8.879  18.398  0.00  0.00    +0.000 A 
ENDBRANCH  13  14
ENDBRANCH   2  13
TORSDOF 6
ENDMDL
MODEL 6
REMARK VINA RESULT:      -6.2      2.963      5.567
REMARK  Name = 
REMARK  9 active torsions:
REMARK  status: ('A' for Active; 'I' for Inactive)
REMARK    1  A    between atoms: C_1  and  C_2
REMARK    2  A    between atoms: C_2  and  C_3
REMARK    3  A    between atoms: C_3  and  N_4
REMARK    4  A    between atoms: N_4  and  C_5
REMARK    5  A    between atoms: C_5  and  C_6
REMARK    6  A    between atoms: N_8  and  C_9
REMARK    7  A    between atoms: N_8  and  C_10
REMARK    8  A    between atoms: C_11  and  C_13
REMARK    9  A    between atoms: C_13  and  C_14
REMARK                            x       y       z     vdW  Elec       q    Type
REMARK                         _______ _______ _______ _____ _____    ______ ____
ROOT
ATOM      1  N   UNL     1       4.052   4.263  19.050  0.00  0.00    +0.000 N 
ATOM      2  C   UNL     1       3.065   5.249  19.043  0.00  0.00    +0.000 C 
ATOM      3  O   UNL     1       1.991   5.090  19.636  0.00  0.00    +0.000 OA
ENDROOT
BRANCH   1   4
ATOM      4  C   UNL     1       3.715   3.007  19.728  0.00  0.00    +0.000 C 
BRANCH   4   6
ATOM      5  C   UNL     1       2.430   2.053  17.721  0.00  0.00    +0.000 C 
ATOM      6  C   UNL     1       3.492   1.816  18.781  0.00  0.00    +0.000 C 
ENDBRANCH   4   6
ENDBRANCH   1   4
BRANCH   1   7
ATOM      7  C   UNL     1       5.283   4.292  18.237  0.00  0.00    +0.000 C 
BRANCH   7   8
ATOM      8  C   UNL     1       6.427   5.203  18.744  0.00  0.00    +0.000 C 
ATOM      9  O   UNL     1       6.724   5.259  19.938  0.00  0.00    +0.000 OA
ATOM     10  N   UNL     1       7.063   6.011  17.793  0.00  0.00    +0.000 N 
ATOM     11  C   UNL     1       6.908   5.891  16.353  0.00  0.00    +0.000 C 
ATOM     12  C   UNL     1       7.919   7.102  18.242  0.00  0.00    +0.000 C 
ENDBRANCH   7   8
ENDBRANCH   1   7
BRANCH   2  13
ATOM     13  C   UNL     1       3.279   6.538  18.263  0.00  0.00    +0.000 C 
BRANCH  13  14
ATOM     14  C   UNL     1       2.357   7.650  18.698  0.00  0.00    +0.000 A 
ATOM     15  C   UNL     1       1.844   8.560  17.763  0.00  0.00    +0.000 A 
ATOM     16  C   UNL     1       1.018   9.609  18.173  0.00  0.00    +0.000 A 
ATOM     17  C   UNL     1       0.692   9.759  19.524  0.00  0.00    +0.000 A 
ATOM     18 CL   UNL     1      -0.304  11.097  19.968  0.00  0.00    +0.000 Cl
ATOM     19  C   UNL     1       1.180   8.843  20.461  0.00  0.00    +0.000 A 
ATOM     20 CL   UNL     1       0.828   8.962  22.149  0.00  0.00    +0.000 Cl
ATOM     21  C   UNL     1       1.999   7.789  20.047  0.00  0.00    +0.000 A 
ENDBRANCH  13  14
ENDBRANCH   2  13
TORSDOF 6
ENDMDL
MODEL 7
REMARK VINA RESULT:      -6.2      3.414      5.942
REMARK  Name = 
REMARK  9 active torsions:
REMARK  status: ('A' for Active; 'I' for Inactive)
REMARK    1  A    between atoms: C_1  and  C_2
REMARK    2  A    between atoms: C_2  and  C_3
REMARK    3  A    between atoms: C_3  and  N_4
REMARK    4  A    between atoms: N_4  and  C_5
REMARK    5  A    between atoms: C_5  and  C_6
REMARK    6  A    between atoms: N_8  and  C_9
REMARK    7  A    between atoms: N_8  and  C_10
REMARK    8  A    between atoms: C_11  and  C_13
REMARK    9  A    between atoms: C_13  and  C_14
REMARK                            x       y       z     vdW  Elec       q    Type
REMARK                         _______ _______ _______ _____ _____    ______ ____
ROOT
ATOM      1  N   UNL     1       4.096   5.536  18.377  0.00  0.00    +0.000 N 
ATOM      2  C   UNL     1       2.793   6.031  18.293  0.00  0.00    +0.000 C 
ATOM      3  O   UNL     1       1.815   5.308  18.517  0.00  0.00    +0.000 OA
ENDROOT
BRANCH   1   4
ATOM      4  C   UNL     1       4.233   4.105  18.666  0.00  0.00    +0.000 C 
BRANCH   4   6
ATOM      5  C   UNL     1       2.981   2.056  17.759  0.00  0.00    +0.000 C 
ATOM      6  C   UNL     1       3.952   3.187  17.466  0.00  0.00    +0.000 C 
ENDBRANCH   4   6
ENDBRANCH   1   4
BRANCH   1   7
ATOM      7  C   UNL     1       5.307   6.271  17.964  0.00  0.00    +0.000 C 
BRANCH   7   8
ATOM      8  C   UNL     1       5.744   6.114  16.488  0.00  0.00    +0.000 C 
ATOM      9  O   UNL     1       5.185   6.735  15.583  0.00  0.00    +0.000 OA
ATOM     10  N   UNL     1       6.756   5.183  16.221  0.00  0.00    +0.000 N 
ATOM     11  C   UNL     1       7.587   4.538  17.223  0.00  0.00    +0.000 C 
ATOM     12  C   UNL     1       6.994   4.764  14.845  0.00  0.00    +0.000 C 
ENDBRANCH   7   8
ENDBRANCH   1   7
BRANCH   2  13
ATOM     13  C   UNL     1       2.550   7.475  17.879  0.00  0.00    +0.000 C 
BRANCH  13  14
ATOM     14  C   UNL     1       1.855   8.284  18.947  0.00  0.00    +0.000 A 
ATOM     15  C   UNL     1       1.858   7.858  20.282  0.00  0.00    +0.000 A 
ATOM     16  C   UNL     1       1.185   8.590  21.262  0.00  0.00    +0.000 A 
ATOM     17  C   UNL     1       0.500   9.760  20.918  0.00  0.00    +0.000 A 
ATOM     18 CL   UNL     1      -0.341  10.597  22.171  0.00  0.00    +0.000 Cl
ATOM     19  C   UNL     1       0.510  10.205  19.593  0.00  0.00    +0.000 A 
ATOM     20 CL   UNL     1      -0.315  11.637  19.087  0.00  0.00    +0.000 Cl
ATOM     21  C   UNL     1       1.193   9.475  18.615  0.00  0.00    +0.000 A 
ENDBRANCH  13  14
ENDBRANCH   2  13
TORSDOF 6
ENDMDL
MODEL 8
REMARK VINA RESULT:      -6.2      3.217      5.964
REMARK  Name = 
REMARK  9 active torsions:
REMARK  status: ('A' for Active; 'I' for Inactive)
REMARK    1  A    between atoms: C_1  and  C_2
REMARK    2  A    between atoms: C_2  and  C_3
REMARK    3  A    between atoms: C_3  and  N_4
REMARK    4  A    between atoms: N_4  and  C_5
REMARK    5  A    between atoms: C_5  and  C_6
REMARK    6  A    between atoms: N_8  and  C_9
REMARK    7  A    between atoms: N_8  and  C_10
REMARK    8  A    between atoms: C_11  and  C_13
REMARK    9  A    between atoms: C_13  and  C_14
REMARK                            x       y       z     vdW  Elec       q    Type
REMARK                         _______ _______ _______ _____ _____    ______ ____
ROOT
ATOM      1  N   UNL     1       2.575   4.679  18.427  0.00  0.00    +0.000 N 
ATOM      2  C   UNL     1       2.059   5.153  19.634  0.00  0.00    +0.000 C 
ATOM      3  O   UNL     1       1.074   4.626  20.163  0.00  0.00    +0.000 OA
ENDROOT
BRANCH   1   4
ATOM      4  C   UNL     1       1.841   3.581  17.789  0.00  0.00    +0.000 C 
BRANCH   4   6
ATOM      5  C   UNL     1       3.345   1.721  18.722  0.00  0.00    +0.000 C 
ATOM      6  C   UNL     1       2.694   2.337  17.495  0.00  0.00    +0.000 C 
ENDBRANCH   4   6
ENDBRANCH   1   4
BRANCH   1   7
ATOM      7  C   UNL     1       3.632   5.344  17.641  0.00  0.00    +0.000 C 
BRANCH   7   8
ATOM      8  C   UNL     1       5.093   4.974  17.990  0.00  0.00    +0.000 C 
ATOM      9  O   UNL     1       5.530   5.091  19.136  0.00  0.00    +0.000 OA
ATOM     10  N   UNL     1       5.915   4.566  16.932  0.00  0.00    +0.000 N 
ATOM     11  C   UNL     1       5.455   4.231  15.595  0.00  0.00    +0.000 C 
ATOM     12  C   UNL     1       7.358   4.505  17.131  0.00  0.00    +0.000 C 
ENDBRANCH   7   8
ENDBRANCH   1   7
BRANCH   2  13
ATOM     13  C   UNL     1       2.684   6.366  20.308  0.00  0.00    +0.000 C 
BRANCH  13  14
ATOM     14  C   UNL     1       1.886   7.630  20.101  0.00  0.00    +0.000 A 
ATOM     15  C   UNL     1       1.920   8.304  18.872  0.00  0.00    +0.000 A 
ATOM     16  C   UNL     1       1.207   9.492  18.695  0.00  0.00    +0.000 A 
ATOM     17  C   UNL     1       0.449  10.020  19.744  0.00  0.00    +0.000 A 
ATOM     18 CL   UNL     1      -0.378  11.510  19.470  0.00  0.00    +0.000 Cl
ATOM     19  C   UNL     1       0.391   9.343  20.967  0.00  0.00    +0.000 A 
ATOM     20 CL   UNL     1      -0.519   9.932  22.313  0.00  0.00    +0.000 Cl
ATOM     21  C   UNL     1       1.098   8.149  21.139  0.00  0.00    +0.000 A 
ENDBRANCH  13  14
ENDBRANCH   2  13
TORSDOF 6
ENDMDL
MODEL 9
REMARK VINA RESULT:      -6.2      3.120      4.813
REMARK  Name = 
REMARK  9 active torsions:
REMARK  status: ('A' for Active; 'I' for Inactive)
REMARK    1  A    between atoms: C_1  and  C_2
REMARK    2  A    between atoms: C_2  and  C_3
REMARK    3  A    between atoms: C_3  and  N_4
REMARK    4  A    between atoms: N_4  and  C_5
REMARK    5  A    between atoms: C_5  and  C_6
REMARK    6  A    between atoms: N_8  and  C_9
REMARK    7  A    between atoms: N_8  and  C_10
REMARK    8  A    between atoms: C_11  and  C_13
REMARK    9  A    between atoms: C_13  and  C_14
REMARK                            x       y       z     vdW  Elec       q    Type
REMARK                         _______ _______ _______ _____ _____    ______ ____
ROOT
ATOM      1  N   UNL     1       5.222   4.656  18.143  0.00  0.00    +0.000 N 
ATOM      2  C   UNL     1       4.397   5.565  17.481  0.00  0.00    +0.000 C 
ATOM      3  O   UNL     1       4.863   6.424  16.723  0.00  0.00    +0.000 OA
ENDROOT
BRANCH   1   4
ATOM      4  C   UNL     1       6.667   4.826  17.952  0.00  0.00    +0.000 C 
BRANCH   4   6
ATOM      5  C   UNL     1       7.996   6.958  18.480  0.00  0.00    +0.000 C 
ATOM      6  C   UNL     1       7.349   5.694  19.021  0.00  0.00    +0.000 C 
ENDBRANCH   4   6
ENDBRANCH   1   4
BRANCH   1   7
ATOM      7  C   UNL     1       4.777   3.715  19.189  0.00  0.00    +0.000 C 
BRANCH   7   8
ATOM      8  C   UNL     1       3.674   2.706  18.791  0.00  0.00    +0.000 C 
ATOM      9  O   UNL     1       3.717   2.094  17.723  0.00  0.00    +0.000 OA
ATOM     10  N   UNL     1       2.589   2.573  19.667  0.00  0.00    +0.000 N 
ATOM     11  C   UNL     1       2.530   3.111  21.016  0.00  0.00    +0.000 C 
ATOM     12  C   UNL     1       1.385   1.888  19.213  0.00  0.00    +0.000 C 
ENDBRANCH   7   8
ENDBRANCH   1   7
BRANCH   2  13
ATOM     13  C   UNL     1       2.893   5.542  17.714  0.00  0.00    +0.000 C 
BRANCH  13  14
ATOM     14  C   UNL     1       2.414   6.677  18.586  0.00  0.00    +0.000 A 
ATOM     15  C   UNL     1       2.163   6.473  19.950  0.00  0.00    +0.000 A 
ATOM     16  C   UNL     1       1.688   7.517  20.747  0.00  0.00    +0.000 A 
ATOM     17  C   UNL     1       1.460   8.778  20.189  0.00  0.00    +0.000 A 
ATOM     18 CL   UNL     1       0.838  10.014  21.222  0.00  0.00    +0.000 Cl
ATOM     19  C   UNL     1       1.729   8.997  18.835  0.00  0.00    +0.000 A 
ATOM     20 CL   UNL     1       1.470  10.525  18.070  0.00  0.00    +0.000 Cl
ATOM     21  C   UNL     1       2.214   7.953  18.041  0.00  0.00    +0.000 A 
ENDBRANCH  13  14
ENDBRANCH   2  13
TORSDOF 6
ENDMDL
