MODEL 1
REMARK VINA RESULT:      -7.6      0.000      0.000
REMARK  Name = 
REMARK  8 active torsions:
REMARK  status: ('A' for Active; 'I' for Inactive)
REMARK    1  A    between atoms: C_1  and  C_2
REMARK    2  A    between atoms: C_2  and  C_3
REMARK    3  A    between atoms: C_3  and  C_4
REMARK    4  A    between atoms: C_4  and  C_5
REMARK    5  A    between atoms: C_4  and  C_6
REMARK    6  A    between atoms: N_7  and  N_8
REMARK    7  A    between atoms: N_14  and  C_15
REMARK    8  A    between atoms: C_15  and  C_16
REMARK                            x       y       z     vdW  Elec       q    Type
REMARK                         _______ _______ _______ _____ _____    ______ ____
ROOT
ATOM      1  N   UNL     1       4.917   3.675  18.225  0.00  0.00    +0.000 NA
ATOM      2  C   UNL     1       3.673   3.553  18.548  0.00  0.00    +0.000 C 
ATOM      3  S   UNL     1       2.835   2.200  17.804  0.00  0.00    +0.000 S 
ATOM      4  C   UNL     1       1.327   2.503  18.719  0.00  0.00    +0.000 C 
ATOM      5  C   UNL     1       1.562   3.755  19.515  0.00  0.00    +0.000 C 
ATOM      6  O   UNL     1       0.687   4.227  20.242  0.00  0.00    +0.000 OA
ATOM      7  N   UNL     1       2.837   4.266  19.368  0.00  0.00    +0.000 N 
ENDROOT
BRANCH   1  10
ATOM      8  C   UNL     1       7.339   6.386  18.332  0.00  0.00    +0.000 C 
ATOM      9  C   UNL     1       6.577   5.153  17.906  0.00  0.00    +0.000 C 
ATOM     10  N   UNL     1       5.621   4.758  18.695  0.00  0.00    +0.000 NA
BRANCH   9  11
ATOM     11  C   UNL     1       7.015   4.447  16.623  0.00  0.00    +0.000 C 
BRANCH  11  12
ATOM     12  C   UNL     1       6.515   5.027  15.288  0.00  0.00    +0.000 C 
ATOM     13  C   UNL     1       6.212   3.993  14.206  0.00  0.00    +0.000 C 
ATOM     14  C   UNL     1       5.316   5.957  15.469  0.00  0.00    +0.000 C 
ENDBRANCH  11  12
ENDBRANCH   9  11
ENDBRANCH   1  10
BRANCH   7  15
ATOM     15  C   UNL     1       3.198   5.464  20.120  0.00  0.00    +0.000 C 
BRANCH  15  16
ATOM     16  C   UNL     1       2.640   6.735  19.512  0.00  0.00    +0.000 A 
ATOM     17  C   UNL     1       2.912   7.074  18.178  0.00  0.00    +0.000 A 
ATOM     18  C   UNL     1       2.440   8.271  17.635  0.00  0.00    +0.000 A 
ATOM     19  C   UNL     1       1.680   9.139  18.411  0.00  0.00    +0.000 A 
ATOM     20  C   UNL     1       1.366   8.798  19.727  0.00  0.00    +0.000 A 
ATOM     21  C   UNL     1       1.834   7.600  20.263  0.00  0.00    +0.000 A 
ENDBRANCH  15  16
ENDBRANCH   7  15
TORSDOF 5
ENDMDL
MODEL 2
REMARK VINA RESULT:      -7.6      0.069      1.053
REMARK  Name = 
REMARK  8 active torsions:
REMARK  status: ('A' for Active; 'I' for Inactive)
REMARK    1  A    between atoms: C_1  and  C_2
REMARK    2  A    between atoms: C_2  and  C_3
REMARK    3  A    between atoms: C_3  and  C_4
REMARK    4  A    between atoms: C_4  and  C_5
REMARK    5  A    between atoms: C_4  and  C_6
REMARK    6  A    between atoms: N_7  and  N_8
REMARK    7  A    between atoms: N_14  and  C_15
REMARK    8  A    between atoms: C_15  and  C_16
REMARK                            x       y       z     vdW  Elec       q    Type
REMARK                         _______ _______ _______ _____ _____    ______ ____
ROOT
ATOM      1  N   UNL     1       4.876   3.626  18.240  0.00  0.00    +0.000 NA
ATOM      2  C   UNL     1       3.629   3.532  18.563  0.00  0.00    +0.000 C 
ATOM      3  S   UNL     1       2.762   2.196  17.820  0.00  0.00    +0.000 S 
ATOM      4  C   UNL     1       1.261   2.533  18.735  0.00  0.00    +0.000 C 
ATOM      5  C   UNL     1       1.523   3.780  19.529  0.00  0.00    +0.000 C 
ATOM      6  O   UNL     1       0.658   4.272  20.255  0.00  0.00    +0.000 OA
ATOM      7  N   UNL     1       2.809   4.264  19.381  0.00  0.00    +0.000 N 
ENDROOT
BRANCH   1  10
ATOM      8  C   UNL     1       7.335   6.304  18.332  0.00  0.00    +0.000 C 
ATOM      9  C   UNL     1       6.548   5.087  17.906  0.00  0.00    +0.000 C 
ATOM     10  N   UNL     1       5.603   4.694  18.709  0.00  0.00    +0.000 NA
BRANCH   9  11
ATOM     11  C   UNL     1       6.952   4.391  16.607  0.00  0.00    +0.000 C 
BRANCH  11  12
ATOM     12  C   UNL     1       6.518   5.050  15.285  0.00  0.00    +0.000 C 
ATOM     13  C   UNL     1       6.297   4.083  14.123  0.00  0.00    +0.000 C 
ATOM     14  C   UNL     1       5.293   5.947  15.455  0.00  0.00    +0.000 C 
ENDBRANCH  11  12
ENDBRANCH   9  11
ENDBRANCH   1  10
BRANCH   7  15
ATOM     15  C   UNL     1       3.195   5.454  20.133  0.00  0.00    +0.000 C 
BRANCH  15  16
ATOM     16  C   UNL     1       2.677   6.737  19.515  0.00  0.00    +0.000 A 
ATOM     17  C   UNL     1       1.872   7.618  20.254  0.00  0.00    +0.000 A 
ATOM     18  C   UNL     1       1.354   8.775  19.668  0.00  0.00    +0.000 A 
ATOM     19  C   UNL     1       1.640   9.074  18.341  0.00  0.00    +0.000 A 
ATOM     20  C   UNL     1       2.471   8.231  17.604  0.00  0.00    +0.000 A 
ATOM     21  C   UNL     1       2.991   7.081  18.195  0.00  0.00    +0.000 A 
ENDBRANCH  15  16
ENDBRANCH   7  15
TORSDOF 5
ENDMDL
MODEL 3
REMARK VINA RESULT:      -7.0      0.763      1.532
REMARK  Name = 
REMARK  8 active torsions:
REMARK  status: ('A' for Active; 'I' for Inactive)
REMARK    1  A    between atoms: C_1  and  C_2
REMARK    2  A    between atoms: C_2  and  C_3
REMARK    3  A    between atoms: C_3  and  C_4
REMARK    4  A    between atoms: C_4  and  C_5
REMARK    5  A    between atoms: C_4  and  C_6
REMARK    6  A    between atoms: N_7  and  N_8
REMARK    7  A    between atoms: N_14  and  C_15
REMARK    8  A    between atoms: C_15  and  C_16
REMARK                            x       y       z     vdW  Elec       q    Type
REMARK                         _______ _______ _______ _____ _____    ______ ____
ROOT
ATOM      1  N   UNL     1       4.512   4.129  17.664  0.00  0.00    +0.000 NA
ATOM      2  C   UNL     1       3.361   3.954  18.223  0.00  0.00    +0.000 C 
ATOM      3  S   UNL     1       2.422   2.606  17.599  0.00  0.00    +0.000 S 
ATOM      4  C   UNL     1       1.123   2.823  18.810  0.00  0.00    +0.000 C 
ATOM      5  C   UNL     1       1.484   4.047  19.601  0.00  0.00    +0.000 C 
ATOM      6  O   UNL     1       0.763   4.461  20.510  0.00  0.00    +0.000 OA
ATOM      7  N   UNL     1       2.691   4.605  19.226  0.00  0.00    +0.000 N 
ENDROOT
BRANCH   1  10
ATOM      8  C   UNL     1       6.306   7.283  17.419  0.00  0.00    +0.000 C 
ATOM      9  C   UNL     1       5.538   6.033  17.060  0.00  0.00    +0.000 C 
ATOM     10  N   UNL     1       5.271   5.214  18.035  0.00  0.00    +0.000 NA
BRANCH   9  11
ATOM     11  C   UNL     1       5.183   5.806  15.591  0.00  0.00    +0.000 C 
BRANCH  11  12
ATOM     12  C   UNL     1       6.222   5.085  14.714  0.00  0.00    +0.000 C 
ATOM     13  C   UNL     1       7.436   4.540  15.464  0.00  0.00    +0.000 C 
ATOM     14  C   UNL     1       5.599   3.981  13.861  0.00  0.00    +0.000 C 
ENDBRANCH  11  12
ENDBRANCH   9  11
ENDBRANCH   1  10
BRANCH   7  15
ATOM     15  C   UNL     1       3.168   5.781  19.947  0.00  0.00    +0.000 C 
BRANCH  15  16
ATOM     16  C   UNL     1       2.486   7.061  19.508  0.00  0.00    +0.000 A 
ATOM     17  C   UNL     1       1.750   7.835  20.419  0.00  0.00    +0.000 A 
ATOM     18  C   UNL     1       1.080   8.987  20.001  0.00  0.00    +0.000 A 
ATOM     19  C   UNL     1       1.145   9.388  18.671  0.00  0.00    +0.000 A 
ATOM     20  C   UNL     1       1.904   8.654  17.761  0.00  0.00    +0.000 A 
ATOM     21  C   UNL     1       2.576   7.509  18.184  0.00  0.00    +0.000 A 
ENDBRANCH  15  16
ENDBRANCH   7  15
TORSDOF 5
ENDMDL
MODEL 4
REMARK VINA RESULT:      -6.9      0.818      1.179
REMARK  Name = 
REMARK  8 active torsions:
REMARK  status: ('A' for Active; 'I' for Inactive)
REMARK    1  A    between atoms: C_1  and  C_2
REMARK    2  A    between atoms: C_2  and  C_3
REMARK    3  A    between atoms: C_3  and  C_4
REMARK    4  A    between atoms: C_4  and  C_5
REMARK    5  A    between atoms: C_4  and  C_6
REMARK    6  A    between atoms: N_7  and  N_8
REMARK    7  A    between atoms: N_14  and  C_15
REMARK    8  A    between atoms: C_15  and  C_16
REMARK                            x       y       z     vdW  Elec       q    Type
REMARK                         _______ _______ _______ _____ _____    ______ ____
ROOT
ATOM      1  N   UNL     1       4.419   4.261  17.561  0.00  0.00    +0.000 NA
ATOM      2  C   UNL     1       3.302   4.024  18.163  0.00  0.00    +0.000 C 
ATOM      3  S   UNL     1       2.390   2.657  17.539  0.00  0.00    +0.000 S 
ATOM      4  C   UNL     1       1.137   2.785  18.811  0.00  0.00    +0.000 C 
ATOM      5  C   UNL     1       1.485   4.001  19.623  0.00  0.00    +0.000 C 
ATOM      6  O   UNL     1       0.788   4.358  20.574  0.00  0.00    +0.000 OA
ATOM      7  N   UNL     1       2.651   4.618  19.213  0.00  0.00    +0.000 N 
ENDROOT
BRANCH   1  10
ATOM      8  C   UNL     1       6.249   7.392  17.287  0.00  0.00    +0.000 C 
ATOM      9  C   UNL     1       5.506   6.123  16.937  0.00  0.00    +0.000 C 
ATOM     10  N   UNL     1       5.150   5.364  17.932  0.00  0.00    +0.000 NA
BRANCH   9  11
ATOM     11  C   UNL     1       5.280   5.810  15.459  0.00  0.00    +0.000 C 
BRANCH  11  12
ATOM     12  C   UNL     1       6.370   5.006  14.729  0.00  0.00    +0.000 C 
ATOM     13  C   UNL     1       7.360   4.283  15.641  0.00  0.00    +0.000 C 
ATOM     14  C   UNL     1       5.790   4.027  13.710  0.00  0.00    +0.000 C 
ENDBRANCH  11  12
ENDBRANCH   9  11
ENDBRANCH   1  10
BRANCH   7  15
ATOM     15  C   UNL     1       3.112   5.791  19.949  0.00  0.00    +0.000 C 
BRANCH  15  16
ATOM     16  C   UNL     1       2.412   7.067  19.526  0.00  0.00    +0.000 A 
ATOM     17  C   UNL     1       2.451   7.501  18.192  0.00  0.00    +0.000 A 
ATOM     18  C   UNL     1       1.849   8.703  17.814  0.00  0.00    +0.000 A 
ATOM     19  C   UNL     1       1.190   9.482  18.759  0.00  0.00    +0.000 A 
ATOM     20  C   UNL     1       1.108   9.046  20.081  0.00  0.00    +0.000 A 
ATOM     21  C   UNL     1       1.704   7.843  20.452  0.00  0.00    +0.000 A 
ENDBRANCH  15  16
ENDBRANCH   7  15
TORSDOF 5
ENDMDL
MODEL 5
REMARK VINA RESULT:      -6.8      1.195      1.738
REMARK  Name = 
REMARK  8 active torsions:
REMARK  status: ('A' for Active; 'I' for Inactive)
REMARK    1  A    between atoms: C_1  and  C_2
REMARK    2  A    between atoms: C_2  and  C_3
REMARK    3  A    between atoms: C_3  and  C_4
REMARK    4  A    between atoms: C_4  and  C_5
REMARK    5  A    between atoms: C_4  and  C_6
REMARK    6  A    between atoms: N_7  and  N_8
REMARK    7  A    between atoms: N_14  and  C_15
REMARK    8  A    between atoms: C_15  and  C_16
REMARK                            x       y       z     vdW  Elec       q    Type
REMARK                         _______ _______ _______ _____ _____    ______ ____
ROOT
ATOM      1  N   UNL     1       5.436   4.311  19.022  0.00  0.00    +0.000 NA
ATOM      2  C   UNL     1       4.252   3.969  18.637  0.00  0.00    +0.000 C 
ATOM      3  S   UNL     1       3.821   2.292  18.941  0.00  0.00    +0.000 S 
ATOM      4  C   UNL     1       2.145   2.514  18.354  0.00  0.00    +0.000 C 
ATOM      5  C   UNL     1       2.058   3.927  17.853  0.00  0.00    +0.000 C 
ATOM      6  O   UNL     1       1.017   4.374  17.369  0.00  0.00    +0.000 OA
ATOM      7  N   UNL     1       3.226   4.644  18.029  0.00  0.00    +0.000 N 
ENDROOT
BRANCH   1  10
ATOM      8  C   UNL     1       7.172   7.024  17.332  0.00  0.00    +0.000 C 
ATOM      9  C   UNL     1       6.703   5.646  17.735  0.00  0.00    +0.000 C 
ATOM     10  N   UNL     1       5.883   5.581  18.742  0.00  0.00    +0.000 NA
BRANCH   9  11
ATOM     11  C   UNL     1       7.263   4.447  16.971  0.00  0.00    +0.000 C 
BRANCH  11  12
ATOM     12  C   UNL     1       6.765   4.228  15.531  0.00  0.00    +0.000 C 
ATOM     13  C   UNL     1       5.277   4.497  15.314  0.00  0.00    +0.000 C 
ATOM     14  C   UNL     1       7.589   5.004  14.504  0.00  0.00    +0.000 C 
ENDBRANCH  11  12
ENDBRANCH   9  11
ENDBRANCH   1  10
BRANCH   7  15
ATOM     15  C   UNL     1       3.254   6.043  17.612  0.00  0.00    +0.000 C 
BRANCH  15  16
ATOM     16  C   UNL     1       2.554   6.965  18.591  0.00  0.00    +0.000 A 
ATOM     17  C   UNL     1       2.318   6.565  19.915  0.00  0.00    +0.000 A 
ATOM     18  C   UNL     1       1.628   7.396  20.800  0.00  0.00    +0.000 A 
ATOM     19  C   UNL     1       1.176   8.642  20.380  0.00  0.00    +0.000 A 
ATOM     20  C   UNL     1       1.438   9.072  19.080  0.00  0.00    +0.000 A 
ATOM     21  C   UNL     1       2.132   8.242  18.202  0.00  0.00    +0.000 A 
ENDBRANCH  15  16
ENDBRANCH   7  15
TORSDOF 5
ENDMDL
MODEL 6
REMARK VINA RESULT:      -6.8      1.245      1.607
REMARK  Name = 
REMARK  8 active torsions:
REMARK  status: ('A' for Active; 'I' for Inactive)
REMARK    1  A    between atoms: C_1  and  C_2
REMARK    2  A    between atoms: C_2  and  C_3
REMARK    3  A    between atoms: C_3  and  C_4
REMARK    4  A    between atoms: C_4  and  C_5
REMARK    5  A    between atoms: C_4  and  C_6
REMARK    6  A    between atoms: N_7  and  N_8
REMARK    7  A    between atoms: N_14  and  C_15
REMARK    8  A    between atoms: C_15  and  C_16
REMARK                            x       y       z     vdW  Elec       q    Type
REMARK                         _______ _______ _______ _____ _____    ______ ____
ROOT
ATOM      1  N   UNL     1       5.607   4.448  19.241  0.00  0.00    +0.000 NA
ATOM      2  C   UNL     1       4.447   4.114  18.784  0.00  0.00    +0.000 C 
ATOM      3  S   UNL     1       3.984   2.442  19.062  0.00  0.00    +0.000 S 
ATOM      4  C   UNL     1       2.350   2.675  18.370  0.00  0.00    +0.000 C 
ATOM      5  C   UNL     1       2.306   4.088  17.863  0.00  0.00    +0.000 C 
ATOM      6  O   UNL     1       1.301   4.542  17.314  0.00  0.00    +0.000 OA
ATOM      7  N   UNL     1       3.466   4.796  18.111  0.00  0.00    +0.000 N 
ENDROOT
BRANCH   1  10
ATOM      8  C   UNL     1       7.218   7.206  17.502  0.00  0.00    +0.000 C 
ATOM      9  C   UNL     1       6.736   5.822  17.871  0.00  0.00    +0.000 C 
ATOM     10  N   UNL     1       6.080   5.714  18.989  0.00  0.00    +0.000 NA
BRANCH   9  11
ATOM     11  C   UNL     1       7.097   4.666  16.940  0.00  0.00    +0.000 C 
BRANCH  11  12
ATOM     12  C   UNL     1       6.389   4.607  15.575  0.00  0.00    +0.000 C 
ATOM     13  C   UNL     1       7.297   4.826  14.366  0.00  0.00    +0.000 C 
ATOM     14  C   UNL     1       5.580   3.324  15.391  0.00  0.00    +0.000 C 
ENDBRANCH  11  12
ENDBRANCH   9  11
ENDBRANCH   1  10
BRANCH   7  15
ATOM     15  C   UNL     1       3.530   6.194  17.696  0.00  0.00    +0.000 C 
BRANCH  15  16
ATOM     16  C   UNL     1       2.673   7.105  18.550  0.00  0.00    +0.000 A 
ATOM     17  C   UNL     1       2.140   8.293  18.025  0.00  0.00    +0.000 A 
ATOM     18  C   UNL     1       1.392   9.157  18.828  0.00  0.00    +0.000 A 
ATOM     19  C   UNL     1       1.156   8.842  20.162  0.00  0.00    +0.000 A 
ATOM     20  C   UNL     1       1.644   7.647  20.689  0.00  0.00    +0.000 A 
ATOM     21  C   UNL     1       2.384   6.785  19.882  0.00  0.00    +0.000 A 
ENDBRANCH  15  16
ENDBRANCH   7  15
TORSDOF 5
ENDMDL
MODEL 7
REMARK VINA RESULT:      -6.5      3.118      6.325
REMARK  Name = 
REMARK  8 active torsions:
REMARK  status: ('A' for Active; 'I' for Inactive)
REMARK    1  A    between atoms: C_1  and  C_2
REMARK    2  A    between atoms: C_2  and  C_3
REMARK    3  A    between atoms: C_3  and  C_4
REMARK    4  A    between atoms: C_4  and  C_5
REMARK    5  A    between atoms: C_4  and  C_6
REMARK    6  A    between atoms: N_7  and  N_8
REMARK    7  A    between atoms: N_14  and  C_15
REMARK    8  A    between atoms: C_15  and  C_16
REMARK                            x       y       z     vdW  Elec       q    Type
REMARK                         _______ _______ _______ _____ _____    ______ ____
ROOT
ATOM      1  N   UNL     1       5.662   3.992  18.708  0.00  0.00    +0.000 NA
ATOM      2  C   UNL     1       6.324   5.081  18.499  0.00  0.00    +0.000 C 
ATOM      3  S   UNL     1       7.586   5.428  19.672  0.00  0.00    +0.000 S 
ATOM      4  C   UNL     1       8.156   6.870  18.778  0.00  0.00    +0.000 C 
ATOM      5  C   UNL     1       7.220   7.043  17.616  0.00  0.00    +0.000 C 
ATOM      6  O   UNL     1       7.352   7.972  16.818  0.00  0.00    +0.000 OA
ATOM      7  N   UNL     1       6.259   6.053  17.535  0.00  0.00    +0.000 N 
ENDROOT
BRANCH   1  10
ATOM      8  C   UNL     1       2.374   2.844  17.662  0.00  0.00    +0.000 C 
ATOM      9  C   UNL     1       3.599   3.130  18.497  0.00  0.00    +0.000 C 
ATOM     10  N   UNL     1       4.601   3.693  17.887  0.00  0.00    +0.000 NA
BRANCH   9  11
ATOM     11  C   UNL     1       3.586   2.695  19.962  0.00  0.00    +0.000 C 
BRANCH  11  12
ATOM     12  C   UNL     1       2.667   3.469  20.923  0.00  0.00    +0.000 C 
ATOM     13  C   UNL     1       2.447   4.937  20.565  0.00  0.00    +0.000 C 
ATOM     14  C   UNL     1       1.321   2.776  21.129  0.00  0.00    +0.000 C 
ENDBRANCH  11  12
ENDBRANCH   9  11
ENDBRANCH   1  10
BRANCH   7  15
ATOM     15  C   UNL     1       5.312   6.093  16.425  0.00  0.00    +0.000 C 
BRANCH  15  16
ATOM     16  C   UNL     1       5.780   5.304  15.219  0.00  0.00    +0.000 A 
ATOM     17  C   UNL     1       7.089   5.440  14.733  0.00  0.00    +0.000 A 
ATOM     18  C   UNL     1       7.503   4.751  13.591  0.00  0.00    +0.000 A 
ATOM     19  C   UNL     1       6.619   3.908  12.925  0.00  0.00    +0.000 A 
ATOM     20  C   UNL     1       5.327   3.729  13.418  0.00  0.00    +0.000 A 
ATOM     21  C   UNL     1       4.921   4.414  14.561  0.00  0.00    +0.000 A 
ENDBRANCH  15  16
ENDBRANCH   7  15
TORSDOF 5
ENDMDL
MODEL 8
REMARK VINA RESULT:      -6.5      1.947      5.769
REMARK  Name = 
REMARK  8 active torsions:
REMARK  status: ('A' for Active; 'I' for Inactive)
REMARK    1  A    between atoms: C_1  and  C_2
REMARK    2  A    between atoms: C_2  and  C_3
REMARK    3  A    between atoms: C_3  and  C_4
REMARK    4  A    between atoms: C_4  and  C_5
REMARK    5  A    between atoms: C_4  and  C_6
REMARK    6  A    between atoms: N_7  and  N_8
REMARK    7  A    between atoms: N_14  and  C_15
REMARK    8  A    between atoms: C_15  and  C_16
REMARK                            x       y       z     vdW  Elec       q    Type
REMARK                         _______ _______ _______ _____ _____    ______ ____
ROOT
ATOM      1  N   UNL     1       2.216   6.117  19.975  0.00  0.00    +0.000 NA
ATOM      2  C   UNL     1       2.385   4.840  19.890  0.00  0.00    +0.000 C 
ATOM      3  S   UNL     1       2.105   3.945  21.376  0.00  0.00    +0.000 S 
ATOM      4  C   UNL     1       2.345   2.359  20.583  0.00  0.00    +0.000 C 
ATOM      5  C   UNL     1       2.735   2.653  19.162  0.00  0.00    +0.000 C 
ATOM      6  O   UNL     1       2.982   1.748  18.364  0.00  0.00    +0.000 OA
ATOM      7  N   UNL     1       2.744   4.002  18.865  0.00  0.00    +0.000 N 
ENDROOT
BRANCH   1  10
ATOM      8  C   UNL     1       2.398   9.046  17.828  0.00  0.00    +0.000 C 
ATOM      9  C   UNL     1       2.054   8.117  18.969  0.00  0.00    +0.000 C 
ATOM     10  N   UNL     1       2.499   6.898  18.881  0.00  0.00    +0.000 NA
BRANCH   9  11
ATOM     11  C   UNL     1       1.177   8.660  20.096  0.00  0.00    +0.000 C 
BRANCH  11  12
ATOM     12  C   UNL     1       0.613  10.083  19.934  0.00  0.00    +0.000 C 
ATOM     13  C   UNL     1      -0.781  10.158  19.314  0.00  0.00    +0.000 C 
ATOM     14  C   UNL     1       0.646  10.876  21.239  0.00  0.00    +0.000 C 
ENDBRANCH  11  12
ENDBRANCH   9  11
ENDBRANCH   1  10
BRANCH   7  15
ATOM     15  C   UNL     1       3.074   4.413  17.504  0.00  0.00    +0.000 C 
BRANCH  15  16
ATOM     16  C   UNL     1       4.566   4.448  17.242  0.00  0.00    +0.000 A 
ATOM     17  C   UNL     1       5.470   4.752  18.271  0.00  0.00    +0.000 A 
ATOM     18  C   UNL     1       6.841   4.835  18.016  0.00  0.00    +0.000 A 
ATOM     19  C   UNL     1       7.328   4.603  16.735  0.00  0.00    +0.000 A 
ATOM     20  C   UNL     1       6.448   4.260  15.709  0.00  0.00    +0.000 A 
ATOM     21  C   UNL     1       5.082   4.172  15.969  0.00  0.00    +0.000 A 
ENDBRANCH  15  16
ENDBRANCH   7  15
TORSDOF 5
ENDMDL
MODEL 9
REMARK VINA RESULT:      -6.4      2.397      4.416
REMARK  Name = 
REMARK  8 active torsions:
REMARK  status: ('A' for Active; 'I' for Inactive)
REMARK    1  A    between atoms: C_1  and  C_2
REMARK    2  A    between atoms: C_2  and  C_3
REMARK    3  A    between atoms: C_3  and  C_4
REMARK    4  A    between atoms: C_4  and  C_5
REMARK    5  A    between atoms: C_4  and  C_6
REMARK    6  A    between atoms: N_7  and  N_8
REMARK    7  A    between atoms: N_14  and  C_15
REMARK    8  A    between atoms: C_15  and  C_16
REMARK                            x       y       z     vdW  Elec       q    Type
REMARK                         _______ _______ _______ _____ _____    ______ ____
ROOT
ATOM      1  N   UNL     1       5.478   3.400  16.048  0.00  0.00    +0.000 NA
ATOM      2  C   UNL     1       4.572   4.046  16.703  0.00  0.00    +0.000 C 
ATOM      3  S   UNL     1       3.351   3.046  17.476  0.00  0.00    +0.000 S 
ATOM      4  C   UNL     1       2.563   4.446  18.265  0.00  0.00    +0.000 C 
ATOM      5  C   UNL     1       3.287   5.668  17.776  0.00  0.00    +0.000 C 
ATOM      6  O   UNL     1       2.958   6.798  18.138  0.00  0.00    +0.000 OA
ATOM      7  N   UNL     1       4.346   5.377  16.936  0.00  0.00    +0.000 N 
ENDROOT
BRANCH   1  10
ATOM      8  C   UNL     1       7.208   4.908  13.227  0.00  0.00    +0.000 C 
ATOM      9  C   UNL     1       6.249   4.084  14.053  0.00  0.00    +0.000 C 
ATOM     10  N   UNL     1       6.420   4.111  15.343  0.00  0.00    +0.000 NA
BRANCH   9  11
ATOM     11  C   UNL     1       5.198   3.254  13.317  0.00  0.00    +0.000 C 
BRANCH  11  12
ATOM     12  C   UNL     1       5.370   3.080  11.797  0.00  0.00    +0.000 C 
ATOM     13  C   UNL     1       5.962   1.740  11.362  0.00  0.00    +0.000 C 
ATOM     14  C   UNL     1       4.077   3.352  11.029  0.00  0.00    +0.000 C 
ENDBRANCH  11  12
ENDBRANCH   9  11
ENDBRANCH   1  10
BRANCH   7  15
ATOM     15  C   UNL     1       5.150   6.482  16.423  0.00  0.00    +0.000 C 
BRANCH  15  16
ATOM     16  C   UNL     1       6.360   6.784  17.284  0.00  0.00    +0.000 A 
ATOM     17  C   UNL     1       6.808   5.863  18.243  0.00  0.00    +0.000 A 
ATOM     18  C   UNL     1       7.892   6.164  19.071  0.00  0.00    +0.000 A 
ATOM     19  C   UNL     1       8.550   7.383  18.945  0.00  0.00    +0.000 A 
ATOM     20  C   UNL     1       8.143   8.292  17.969  0.00  0.00    +0.000 A 
ATOM     21  C   UNL     1       7.065   7.985  17.141  0.00  0.00    +0.000 A 
ENDBRANCH  15  16
ENDBRANCH   7  15
TORSDOF 5
ENDMDL
