MODEL 1
REMARK VINA RESULT:      -8.6      0.000      0.000
REMARK  Name = 
REMARK  6 active torsions:
REMARK  status: ('A' for Active; 'I' for Inactive)
REMARK    1  A    between atoms: C_1  and  C_2
REMARK    2  A    between atoms: C_4  and  C_5
REMARK    3  A    between atoms: C_7  and  N_8
REMARK    4  A    between atoms: N_11  and  C_12
REMARK    5  A    between atoms: N_19  and  C_20
REMARK    6  A    between atoms: C_20  and  C_21
REMARK                            x       y       z     vdW  Elec       q    Type
REMARK                         _______ _______ _______ _____ _____    ______ ____
ROOT
ATOM      1  C   UNL     1       2.839   7.689  17.864  0.00  0.00    +0.000 A 
ATOM      2  C   UNL     1       4.238   7.536  17.823  0.00  0.00    +0.000 A 
ATOM      3  C   UNL     1       4.422   6.177  17.832  0.00  0.00    +0.000 A 
ATOM      4  N   UNL     1       3.182   5.605  17.768  0.00  0.00    +0.000 N 
ATOM      5  N   UNL     1       2.197   6.517  17.903  0.00  0.00    +0.000 NA
ENDROOT
BRANCH   3   6
ATOM      6  N   UNL     1       5.635   5.541  17.886  0.00  0.00    +0.000 N 
ATOM      7  C   UNL     1       6.278   4.925  16.779  0.00  0.00    +0.000 C 
ATOM      8  O   UNL     1       7.304   4.336  17.051  0.00  0.00    +0.000 OA
ATOM      9  N   UNL     1       5.692   5.148  15.558  0.00  0.00    +0.000 N 
ATOM     10  H   UNL     1       6.090   5.409  18.785  0.00  0.00    +0.000 HD
ATOM     11  H   UNL     1       4.905   5.779  15.506  0.00  0.00    +0.000 HD
BRANCH   9  12
ATOM     12  C   UNL     1       6.215   4.707  14.321  0.00  0.00    +0.000 A 
ATOM     13  C   UNL     1       7.380   5.240  13.757  0.00  0.00    +0.000 A 
ATOM     14  C   UNL     1       7.806   4.843  12.486  0.00  0.00    +0.000 A 
ATOM     15  C   UNL     1       7.074   3.904  11.770  0.00  0.00    +0.000 A 
ATOM     16  C   UNL     1       5.945   3.339  12.351  0.00  0.00    +0.000 A 
ATOM     17  F   UNL     1       5.240   2.431  11.665  0.00  0.00    +0.000 F 
ATOM     18  C   UNL     1       5.518   3.717  13.623  0.00  0.00    +0.000 A 
ENDBRANCH   9  12
ENDBRANCH   3   6
BRANCH   1  22
ATOM     19  C   UNL     1       1.167  10.728  19.618  0.00  0.00    +0.000 C 
ATOM     20  C   UNL     1       1.214   9.351  19.050  0.00  0.00    +0.000 C 
ATOM     21  C   UNL     1       0.638   9.072  17.700  0.00  0.00    +0.000 C 
ATOM     22  C   UNL     1       2.143   9.040  17.890  0.00  0.00    +0.000 C 
ENDBRANCH   1  22
BRANCH   4  23
ATOM     23  C   UNL     1       2.864   4.187  17.695  0.00  0.00    +0.000 C 
BRANCH  23  24
ATOM     24  C   UNL     1       2.438   3.631  19.032  0.00  0.00    +0.000 A 
ATOM     25  C   UNL     1       3.390   3.274  19.999  0.00  0.00    +0.000 A 
ATOM     26  C   UNL     1       2.984   2.808  21.252  0.00  0.00    +0.000 A 
ATOM     27  C   UNL     1       1.628   2.692  21.552  0.00  0.00    +0.000 A 
ATOM     28  C   UNL     1       0.673   3.044  20.601  0.00  0.00    +0.000 A 
ATOM     29  C   UNL     1       1.075   3.513  19.350  0.00  0.00    +0.000 A 
ENDBRANCH  23  24
ENDBRANCH   4  23
TORSDOF 5
ENDMDL
MODEL 2
REMARK VINA RESULT:      -8.4      0.992      4.278
REMARK  Name = 
REMARK  6 active torsions:
REMARK  status: ('A' for Active; 'I' for Inactive)
REMARK    1  A    between atoms: C_1  and  C_2
REMARK    2  A    between atoms: C_4  and  C_5
REMARK    3  A    between atoms: C_7  and  N_8
REMARK    4  A    between atoms: N_11  and  C_12
REMARK    5  A    between atoms: N_19  and  C_20
REMARK    6  A    between atoms: C_20  and  C_21
REMARK                            x       y       z     vdW  Elec       q    Type
REMARK                         _______ _______ _______ _____ _____    ______ ____
ROOT
ATOM      1  C   UNL     1       3.065   4.538  18.909  0.00  0.00    +0.000 A 
ATOM      2  C   UNL     1       4.460   4.678  18.786  0.00  0.00    +0.000 A 
ATOM      3  C   UNL     1       4.618   5.902  18.187  0.00  0.00    +0.000 A 
ATOM      4  N   UNL     1       3.373   6.461  18.087  0.00  0.00    +0.000 N 
ATOM      5  N   UNL     1       2.400   5.589  18.420  0.00  0.00    +0.000 NA
ENDROOT
BRANCH   3   6
ATOM      6  N   UNL     1       5.811   6.441  17.786  0.00  0.00    +0.000 N 
ATOM      7  C   UNL     1       6.516   6.067  16.610  0.00  0.00    +0.000 C 
ATOM      8  O   UNL     1       7.600   6.598  16.477  0.00  0.00    +0.000 OA
ATOM      9  N   UNL     1       5.842   5.225  15.762  0.00  0.00    +0.000 N 
ATOM     10  H   UNL     1       6.294   7.096  18.394  0.00  0.00    +0.000 HD
ATOM     11  H   UNL     1       4.884   4.986  15.976  0.00  0.00    +0.000 HD
BRANCH   9  12
ATOM     12  C   UNL     1       6.318   4.803  14.499  0.00  0.00    +0.000 A 
ATOM     13  C   UNL     1       7.435   5.374  13.879  0.00  0.00    +0.000 A 
ATOM     14  C   UNL     1       7.810   4.992  12.588  0.00  0.00    +0.000 A 
ATOM     15  C   UNL     1       7.075   4.029  11.908  0.00  0.00    +0.000 A 
ATOM     16  C   UNL     1       5.997   3.426  12.543  0.00  0.00    +0.000 A 
ATOM     17  F   UNL     1       5.290   2.494  11.891  0.00  0.00    +0.000 F 
ATOM     18  C   UNL     1       5.621   3.789  13.835  0.00  0.00    +0.000 A 
ENDBRANCH   9  12
ENDBRANCH   3   6
BRANCH   1  22
ATOM     19  C   UNL     1       1.331   2.539  21.757  0.00  0.00    +0.000 C 
ATOM     20  C   UNL     1       2.494   3.095  21.007  0.00  0.00    +0.000 C 
ATOM     21  C   UNL     1       3.281   2.223  20.084  0.00  0.00    +0.000 C 
ATOM     22  C   UNL     1       2.394   3.312  19.507  0.00  0.00    +0.000 C 
ENDBRANCH   1  22
BRANCH   4  23
ATOM     23  C   UNL     1       3.035   7.779  17.572  0.00  0.00    +0.000 C 
BRANCH  23  24
ATOM     24  C   UNL     1       2.004   8.474  18.426  0.00  0.00    +0.000 A 
ATOM     25  C   UNL     1       1.919   8.217  19.803  0.00  0.00    +0.000 A 
ATOM     26  C   UNL     1       0.993   8.903  20.594  0.00  0.00    +0.000 A 
ATOM     27  C   UNL     1       0.145   9.848  20.021  0.00  0.00    +0.000 A 
ATOM     28  C   UNL     1       0.220  10.113  18.657  0.00  0.00    +0.000 A 
ATOM     29  C   UNL     1       1.144   9.434  17.864  0.00  0.00    +0.000 A 
ENDBRANCH  23  24
ENDBRANCH   4  23
TORSDOF 5
ENDMDL
MODEL 3
REMARK VINA RESULT:      -8.2      0.950      1.373
REMARK  Name = 
REMARK  6 active torsions:
REMARK  status: ('A' for Active; 'I' for Inactive)
REMARK    1  A    between atoms: C_1  and  C_2
REMARK    2  A    between atoms: C_4  and  C_5
REMARK    3  A    between atoms: C_7  and  N_8
REMARK    4  A    between atoms: N_11  and  C_12
REMARK    5  A    between atoms: N_19  and  C_20
REMARK    6  A    between atoms: C_20  and  C_21
REMARK                            x       y       z     vdW  Elec       q    Type
REMARK                         _______ _______ _______ _____ _____    ______ ____
ROOT
ATOM      1  C   UNL     1       3.410   7.555  17.874  0.00  0.00    +0.000 A 
ATOM      2  C   UNL     1       4.681   7.274  17.338  0.00  0.00    +0.000 A 
ATOM      3  C   UNL     1       5.114   6.193  18.062  0.00  0.00    +0.000 A 
ATOM      4  N   UNL     1       4.085   5.825  18.884  0.00  0.00    +0.000 N 
ATOM      5  N   UNL     1       3.076   6.720  18.863  0.00  0.00    +0.000 NA
ENDROOT
BRANCH   3   6
ATOM      6  N   UNL     1       6.349   5.609  17.954  0.00  0.00    +0.000 N 
ATOM      7  C   UNL     1       6.859   5.005  16.774  0.00  0.00    +0.000 C 
ATOM      8  O   UNL     1       7.938   4.462  16.908  0.00  0.00    +0.000 OA
ATOM      9  N   UNL     1       6.103   5.185  15.644  0.00  0.00    +0.000 N 
ATOM     10  H   UNL     1       6.928   5.509  18.782  0.00  0.00    +0.000 HD
ATOM     11  H   UNL     1       5.290   5.782  15.695  0.00  0.00    +0.000 HD
BRANCH   9  12
ATOM     12  C   UNL     1       6.469   4.749  14.351  0.00  0.00    +0.000 A 
ATOM     13  C   UNL     1       7.524   5.320  13.627  0.00  0.00    +0.000 A 
ATOM     14  C   UNL     1       7.788   4.923  12.313  0.00  0.00    +0.000 A 
ATOM     15  C   UNL     1       7.004   3.945  11.713  0.00  0.00    +0.000 A 
ATOM     16  C   UNL     1       5.990   3.344  12.447  0.00  0.00    +0.000 A 
ATOM     17  F   UNL     1       5.236   2.399  11.872  0.00  0.00    +0.000 F 
ATOM     18  C   UNL     1       5.725   3.722  13.762  0.00  0.00    +0.000 A 
ENDBRANCH   9  12
ENDBRANCH   3   6
BRANCH   1  22
ATOM     19  C   UNL     1       2.120  11.221  17.910  0.00  0.00    +0.000 C 
ATOM     20  C   UNL     1       2.196   9.809  18.380  0.00  0.00    +0.000 C 
ATOM     21  C   UNL     1       1.140   8.827  17.988  0.00  0.00    +0.000 C 
ATOM     22  C   UNL     1       2.532   8.701  17.397  0.00  0.00    +0.000 C 
ENDBRANCH   1  22
BRANCH   4  23
ATOM     23  C   UNL     1       4.047   4.695  19.801  0.00  0.00    +0.000 C 
BRANCH  23  24
ATOM     24  C   UNL     1       2.881   3.779  19.524  0.00  0.00    +0.000 A 
ATOM     25  C   UNL     1       1.753   3.776  20.359  0.00  0.00    +0.000 A 
ATOM     26  C   UNL     1       0.658   2.959  20.065  0.00  0.00    +0.000 A 
ATOM     27  C   UNL     1       0.677   2.139  18.939  0.00  0.00    +0.000 A 
ATOM     28  C   UNL     1       1.789   2.133  18.102  0.00  0.00    +0.000 A 
ATOM     29  C   UNL     1       2.883   2.949  18.389  0.00  0.00    +0.000 A 
ENDBRANCH  23  24
ENDBRANCH   4  23
TORSDOF 5
ENDMDL
MODEL 4
REMARK VINA RESULT:      -8.0      1.071      1.663
REMARK  Name = 
REMARK  6 active torsions:
REMARK  status: ('A' for Active; 'I' for Inactive)
REMARK    1  A    between atoms: C_1  and  C_2
REMARK    2  A    between atoms: C_4  and  C_5
REMARK    3  A    between atoms: C_7  and  N_8
REMARK    4  A    between atoms: N_11  and  C_12
REMARK    5  A    between atoms: N_19  and  C_20
REMARK    6  A    between atoms: C_20  and  C_21
REMARK                            x       y       z     vdW  Elec       q    Type
REMARK                         _______ _______ _______ _____ _____    ______ ____
ROOT
ATOM      1  C   UNL     1       2.410   7.898  17.857  0.00  0.00    +0.000 A 
ATOM      2  C   UNL     1       3.801   7.680  17.863  0.00  0.00    +0.000 A 
ATOM      3  C   UNL     1       3.921   6.315  17.912  0.00  0.00    +0.000 A 
ATOM      4  N   UNL     1       2.658   5.799  17.824  0.00  0.00    +0.000 N 
ATOM      5  N   UNL     1       1.714   6.759  17.905  0.00  0.00    +0.000 NA
ENDROOT
BRANCH   3   6
ATOM      6  N   UNL     1       5.100   5.625  18.019  0.00  0.00    +0.000 N 
ATOM      7  C   UNL     1       5.789   5.022  16.933  0.00  0.00    +0.000 C 
ATOM      8  O   UNL     1       6.771   4.379  17.248  0.00  0.00    +0.000 OA
ATOM      9  N   UNL     1       5.295   5.313  15.687  0.00  0.00    +0.000 N 
ATOM     10  H   UNL     1       5.489   5.442  18.939  0.00  0.00    +0.000 HD
ATOM     11  H   UNL     1       4.540   5.979  15.608  0.00  0.00    +0.000 HD
BRANCH   9  12
ATOM     12  C   UNL     1       5.880   4.895  14.470  0.00  0.00    +0.000 A 
ATOM     13  C   UNL     1       5.333   3.882  13.672  0.00  0.00    +0.000 A 
ATOM     14  C   UNL     1       5.998   3.435  12.527  0.00  0.00    +0.000 A 
ATOM     15  C   UNL     1       7.213   4.002  12.165  0.00  0.00    +0.000 A 
ATOM     16  C   UNL     1       7.731   5.041  12.928  0.00  0.00    +0.000 A 
ATOM     17  F   UNL     1       8.901   5.591  12.578  0.00  0.00    +0.000 F 
ATOM     18  C   UNL     1       7.071   5.504  14.064  0.00  0.00    +0.000 A 
ENDBRANCH   9  12
ENDBRANCH   3   6
BRANCH   1  22
ATOM     19  C   UNL     1       1.118  11.188  19.475  0.00  0.00    +0.000 C 
ATOM     20  C   UNL     1       1.032   9.758  19.061  0.00  0.00    +0.000 C 
ATOM     21  C   UNL     1       0.264   9.373  17.838  0.00  0.00    +0.000 C 
ATOM     22  C   UNL     1       1.778   9.281  17.827  0.00  0.00    +0.000 C 
ENDBRANCH   1  22
BRANCH   4  23
ATOM     23  C   UNL     1       2.277   4.395  17.776  0.00  0.00    +0.000 C 
BRANCH  23  24
ATOM     24  C   UNL     1       2.258   3.766  19.147  0.00  0.00    +0.000 A 
ATOM     25  C   UNL     1       1.108   3.824  19.950  0.00  0.00    +0.000 A 
ATOM     26  C   UNL     1       1.084   3.196  21.198  0.00  0.00    +0.000 A 
ATOM     27  C   UNL     1       2.204   2.505  21.656  0.00  0.00    +0.000 A 
ATOM     28  C   UNL     1       3.351   2.439  20.869  0.00  0.00    +0.000 A 
ATOM     29  C   UNL     1       3.378   3.062  19.622  0.00  0.00    +0.000 A 
ENDBRANCH  23  24
ENDBRANCH   4  23
TORSDOF 5
ENDMDL
MODEL 5
REMARK VINA RESULT:      -7.9      3.978      8.100
REMARK  Name = 
REMARK  6 active torsions:
REMARK  status: ('A' for Active; 'I' for Inactive)
REMARK    1  A    between atoms: C_1  and  C_2
REMARK    2  A    between atoms: C_4  and  C_5
REMARK    3  A    between atoms: C_7  and  N_8
REMARK    4  A    between atoms: N_11  and  C_12
REMARK    5  A    between atoms: N_19  and  C_20
REMARK    6  A    between atoms: C_20  and  C_21
REMARK                            x       y       z     vdW  Elec       q    Type
REMARK                         _______ _______ _______ _____ _____    ______ ____
ROOT
ATOM      1  C   UNL     1       2.335   4.509  18.695  0.00  0.00    +0.000 A 
ATOM      2  C   UNL     1       1.925   5.851  18.596  0.00  0.00    +0.000 A 
ATOM      3  C   UNL     1       2.903   6.442  17.838  0.00  0.00    +0.000 A 
ATOM      4  N   UNL     1       3.756   5.448  17.443  0.00  0.00    +0.000 N 
ATOM      5  N   UNL     1       3.485   4.277  18.055  0.00  0.00    +0.000 NA
ENDROOT
BRANCH   3   6
ATOM      6  N   UNL     1       2.980   7.777  17.541  0.00  0.00    +0.000 N 
ATOM      7  C   UNL     1       2.261   8.800  18.215  0.00  0.00    +0.000 C 
ATOM      8  O   UNL     1       2.397   9.912  17.744  0.00  0.00    +0.000 OA
ATOM      9  N   UNL     1       1.581   8.402  19.338  0.00  0.00    +0.000 N 
ATOM     10  H   UNL     1       3.514   8.079  16.732  0.00  0.00    +0.000 HD
ATOM     11  H   UNL     1       1.688   7.450  19.657  0.00  0.00    +0.000 HD
BRANCH   9  12
ATOM     12  C   UNL     1       0.879   9.270  20.206  0.00  0.00    +0.000 A 
ATOM     13  C   UNL     1       0.323  10.482  19.780  0.00  0.00    +0.000 A 
ATOM     14  C   UNL     1      -0.277  11.354  20.694  0.00  0.00    +0.000 A 
ATOM     15  C   UNL     1      -0.333  11.018  22.041  0.00  0.00    +0.000 A 
ATOM     16  C   UNL     1       0.174   9.792  22.454  0.00  0.00    +0.000 A 
ATOM     17  F   UNL     1       0.117   9.464  23.751  0.00  0.00    +0.000 F 
ATOM     18  C   UNL     1       0.763   8.909  21.551  0.00  0.00    +0.000 A 
ENDBRANCH   9  12
ENDBRANCH   3   6
BRANCH   1  22
ATOM     19  C   UNL     1       1.417   2.489  21.887  0.00  0.00    +0.000 C 
ATOM     20  C   UNL     1       2.230   2.820  20.682  0.00  0.00    +0.000 C 
ATOM     21  C   UNL     1       2.078   2.022  19.428  0.00  0.00    +0.000 C 
ATOM     22  C   UNL     1       1.567   3.451  19.470  0.00  0.00    +0.000 C 
ENDBRANCH   1  22
BRANCH   4  23
ATOM     23  C   UNL     1       4.917   5.574  16.575  0.00  0.00    +0.000 C 
BRANCH  23  24
ATOM     24  C   UNL     1       6.121   6.107  17.313  0.00  0.00    +0.000 A 
ATOM     25  C   UNL     1       6.640   7.378  17.019  0.00  0.00    +0.000 A 
ATOM     26  C   UNL     1       7.724   7.883  17.742  0.00  0.00    +0.000 A 
ATOM     27  C   UNL     1       8.300   7.128  18.762  0.00  0.00    +0.000 A 
ATOM     28  C   UNL     1       7.794   5.866  19.063  0.00  0.00    +0.000 A 
ATOM     29  C   UNL     1       6.710   5.360  18.347  0.00  0.00    +0.000 A 
ENDBRANCH  23  24
ENDBRANCH   4  23
TORSDOF 5
ENDMDL
MODEL 6
REMARK VINA RESULT:      -7.8      1.415      4.520
REMARK  Name = 
REMARK  6 active torsions:
REMARK  status: ('A' for Active; 'I' for Inactive)
REMARK    1  A    between atoms: C_1  and  C_2
REMARK    2  A    between atoms: C_4  and  C_5
REMARK    3  A    between atoms: C_7  and  N_8
REMARK    4  A    between atoms: N_11  and  C_12
REMARK    5  A    between atoms: N_19  and  C_20
REMARK    6  A    between atoms: C_20  and  C_21
REMARK                            x       y       z     vdW  Elec       q    Type
REMARK                         _______ _______ _______ _____ _____    ______ ____
ROOT
ATOM      1  C   UNL     1       3.223   4.262  19.228  0.00  0.00    +0.000 A 
ATOM      2  C   UNL     1       4.613   4.469  19.132  0.00  0.00    +0.000 A 
ATOM      3  C   UNL     1       4.725   5.646  18.439  0.00  0.00    +0.000 A 
ATOM      4  N   UNL     1       3.457   6.126  18.257  0.00  0.00    +0.000 N 
ATOM      5  N   UNL     1       2.521   5.231  18.634  0.00  0.00    +0.000 NA
ENDROOT
BRANCH   3   6
ATOM      6  N   UNL     1       5.901   6.216  18.027  0.00  0.00    +0.000 N 
ATOM      7  C   UNL     1       6.549   5.938  16.794  0.00  0.00    +0.000 C 
ATOM      8  O   UNL     1       7.628   6.477  16.654  0.00  0.00    +0.000 OA
ATOM      9  N   UNL     1       5.834   5.167  15.912  0.00  0.00    +0.000 N 
ATOM     10  H   UNL     1       6.414   6.818  18.664  0.00  0.00    +0.000 HD
ATOM     11  H   UNL     1       4.886   4.912  16.150  0.00  0.00    +0.000 HD
BRANCH   9  12
ATOM     12  C   UNL     1       6.249   4.848  14.599  0.00  0.00    +0.000 A 
ATOM     13  C   UNL     1       5.645   3.842  13.835  0.00  0.00    +0.000 A 
ATOM     14  C   UNL     1       6.152   3.495  12.580  0.00  0.00    +0.000 A 
ATOM     15  C   UNL     1       7.264   4.157  12.073  0.00  0.00    +0.000 A 
ATOM     16  C   UNL     1       7.832   5.189  12.809  0.00  0.00    +0.000 A 
ATOM     17  F   UNL     1       8.900   5.831  12.320  0.00  0.00    +0.000 F 
ATOM     18  C   UNL     1       7.327   5.552  14.056  0.00  0.00    +0.000 A 
ENDBRANCH   9  12
ENDBRANCH   3   6
BRANCH   1  22
ATOM     19  C   UNL     1       1.208   2.481  22.034  0.00  0.00    +0.000 C 
ATOM     20  C   UNL     1       2.422   3.086  21.415  0.00  0.00    +0.000 C 
ATOM     21  C   UNL     1       3.477   2.214  20.816  0.00  0.00    +0.000 C 
ATOM     22  C   UNL     1       2.599   3.054  19.907  0.00  0.00    +0.000 C 
ENDBRANCH   1  22
BRANCH   4  23
ATOM     23  C   UNL     1       3.067   7.377  17.624  0.00  0.00    +0.000 C 
BRANCH  23  24
ATOM     24  C   UNL     1       2.159   8.199  18.506  0.00  0.00    +0.000 A 
ATOM     25  C   UNL     1       1.414   9.264  17.977  0.00  0.00    +0.000 A 
ATOM     26  C   UNL     1       0.538   9.987  18.791  0.00  0.00    +0.000 A 
ATOM     27  C   UNL     1       0.398   9.657  20.138  0.00  0.00    +0.000 A 
ATOM     28  C   UNL     1       1.131   8.602  20.674  0.00  0.00    +0.000 A 
ATOM     29  C   UNL     1       2.004   7.875  19.865  0.00  0.00    +0.000 A 
ENDBRANCH  23  24
ENDBRANCH   4  23
TORSDOF 5
ENDMDL
MODEL 7
REMARK VINA RESULT:      -7.8      5.547      8.566
REMARK  Name = 
REMARK  6 active torsions:
REMARK  status: ('A' for Active; 'I' for Inactive)
REMARK    1  A    between atoms: C_1  and  C_2
REMARK    2  A    between atoms: C_4  and  C_5
REMARK    3  A    between atoms: C_7  and  N_8
REMARK    4  A    between atoms: N_11  and  C_12
REMARK    5  A    between atoms: N_19  and  C_20
REMARK    6  A    between atoms: C_20  and  C_21
REMARK                            x       y       z     vdW  Elec       q    Type
REMARK                         _______ _______ _______ _____ _____    ______ ____
ROOT
ATOM      1  C   UNL     1      -1.426  10.018  17.585  0.00  0.00    +0.000 A 
ATOM      2  C   UNL     1      -1.317  10.923  18.658  0.00  0.00    +0.000 A 
ATOM      3  C   UNL     1      -0.034  10.749  19.109  0.00  0.00    +0.000 A 
ATOM      4  N   UNL     1       0.573   9.870  18.254  0.00  0.00    +0.000 N 
ATOM      5  N   UNL     1      -0.301   9.326  17.384  0.00  0.00    +0.000 NA
ENDROOT
BRANCH   3   6
ATOM      6  N   UNL     1       0.512  11.361  20.206  0.00  0.00    +0.000 N 
ATOM      7  C   UNL     1       1.376  12.487  20.160  0.00  0.00    +0.000 C 
ATOM      8  O   UNL     1       1.826  12.826  21.237  0.00  0.00    +0.000 OA
ATOM      9  N   UNL     1       1.518  13.073  18.928  0.00  0.00    +0.000 N 
ATOM     10  H   UNL     1       0.377  10.951  21.126  0.00  0.00    +0.000 HD
ATOM     11  H   UNL     1       0.958  12.728  18.161  0.00  0.00    +0.000 HD
BRANCH   9  12
ATOM     12  C   UNL     1       2.254  14.253  18.675  0.00  0.00    +0.000 A 
ATOM     13  C   UNL     1       1.703  15.533  18.804  0.00  0.00    +0.000 A 
ATOM     14  C   UNL     1       2.438  16.668  18.450  0.00  0.00    +0.000 A 
ATOM     15  C   UNL     1       3.735  16.533  17.970  0.00  0.00    +0.000 A 
ATOM     16  C   UNL     1       4.299  15.265  17.889  0.00  0.00    +0.000 A 
ATOM     17  F   UNL     1       5.550  15.133  17.430  0.00  0.00    +0.000 F 
ATOM     18  C   UNL     1       3.580  14.128  18.251  0.00  0.00    +0.000 A 
ENDBRANCH   9  12
ENDBRANCH   3   6
BRANCH   1  22
ATOM     19  C   UNL     1      -3.527  10.116  14.316  0.00  0.00    +0.000 C 
ATOM     20  C   UNL     1      -2.890  10.695  15.534  0.00  0.00    +0.000 C 
ATOM     21  C   UNL     1      -3.706  10.965  16.756  0.00  0.00    +0.000 C 
ATOM     22  C   UNL     1      -2.695   9.833  16.769  0.00  0.00    +0.000 C 
ENDBRANCH   1  22
BRANCH   4  23
ATOM     23  C   UNL     1       1.957   9.419  18.287  0.00  0.00    +0.000 C 
BRANCH  23  24
ATOM     24  C   UNL     1       2.083   8.018  18.834  0.00  0.00    +0.000 A 
ATOM     25  C   UNL     1       1.773   7.738  20.174  0.00  0.00    +0.000 A 
ATOM     26  C   UNL     1       1.846   6.429  20.657  0.00  0.00    +0.000 A 
ATOM     27  C   UNL     1       2.228   5.389  19.812  0.00  0.00    +0.000 A 
ATOM     28  C   UNL     1       2.537   5.654  18.481  0.00  0.00    +0.000 A 
ATOM     29  C   UNL     1       2.463   6.958  17.993  0.00  0.00    +0.000 A 
ENDBRANCH  23  24
ENDBRANCH   4  23
TORSDOF 5
ENDMDL
MODEL 8
REMARK VINA RESULT:      -7.7      1.372      4.518
REMARK  Name = 
REMARK  6 active torsions:
REMARK  status: ('A' for Active; 'I' for Inactive)
REMARK    1  A    between atoms: C_1  and  C_2
REMARK    2  A    between atoms: C_4  and  C_5
REMARK    3  A    between atoms: C_7  and  N_8
REMARK    4  A    between atoms: N_11  and  C_12
REMARK    5  A    between atoms: N_19  and  C_20
REMARK    6  A    between atoms: C_20  and  C_21
REMARK                            x       y       z     vdW  Elec       q    Type
REMARK                         _______ _______ _______ _____ _____    ______ ____
ROOT
ATOM      1  C   UNL     1       2.804   4.648  18.967  0.00  0.00    +0.000 A 
ATOM      2  C   UNL     1       4.207   4.681  18.864  0.00  0.00    +0.000 A 
ATOM      3  C   UNL     1       4.470   5.908  18.311  0.00  0.00    +0.000 A 
ATOM      4  N   UNL     1       3.275   6.567  18.216  0.00  0.00    +0.000 N 
ATOM      5  N   UNL     1       2.231   5.765  18.508  0.00  0.00    +0.000 NA
ENDROOT
BRANCH   3   6
ATOM      6  N   UNL     1       5.708   6.364  17.941  0.00  0.00    +0.000 N 
ATOM      7  C   UNL     1       6.384   5.998  16.747  0.00  0.00    +0.000 C 
ATOM      8  O   UNL     1       7.510   6.439  16.645  0.00  0.00    +0.000 OA
ATOM      9  N   UNL     1       5.645   5.266  15.851  0.00  0.00    +0.000 N 
ATOM     10  H   UNL     1       6.242   6.939  18.587  0.00  0.00    +0.000 HD
ATOM     11  H   UNL     1       4.669   5.099  16.051  0.00  0.00    +0.000 HD
BRANCH   9  12
ATOM     12  C   UNL     1       6.089   4.876  14.567  0.00  0.00    +0.000 A 
ATOM     13  C   UNL     1       5.463   3.872  13.820  0.00  0.00    +0.000 A 
ATOM     14  C   UNL     1       5.996   3.452  12.597  0.00  0.00    +0.000 A 
ATOM     15  C   UNL     1       7.156   4.039  12.107  0.00  0.00    +0.000 A 
ATOM     16  C   UNL     1       7.748   5.070  12.825  0.00  0.00    +0.000 A 
ATOM     17  F   UNL     1       8.864   5.640  12.353  0.00  0.00    +0.000 F 
ATOM     18  C   UNL     1       7.219   5.506  14.039  0.00  0.00    +0.000 A 
ENDBRANCH   9  12
ENDBRANCH   3   6
BRANCH   1  22
ATOM     19  C   UNL     1       1.320   2.450  21.809  0.00  0.00    +0.000 C 
ATOM     20  C   UNL     1       2.392   2.938  20.894  0.00  0.00    +0.000 C 
ATOM     21  C   UNL     1       2.768   2.145  19.685  0.00  0.00    +0.000 C 
ATOM     22  C   UNL     1       2.030   3.460  19.515  0.00  0.00    +0.000 C 
ENDBRANCH   1  22
BRANCH   4  23
ATOM     23  C   UNL     1       3.050   7.925  17.744  0.00  0.00    +0.000 C 
BRANCH  23  24
ATOM     24  C   UNL     1       1.931   8.607  18.492  0.00  0.00    +0.000 A 
ATOM     25  C   UNL     1       1.788   8.445  19.879  0.00  0.00    +0.000 A 
ATOM     26  C   UNL     1       0.779   9.120  20.570  0.00  0.00    +0.000 A 
ATOM     27  C   UNL     1      -0.097   9.962  19.887  0.00  0.00    +0.000 A 
ATOM     28  C   UNL     1       0.034  10.132  18.512  0.00  0.00    +0.000 A 
ATOM     29  C   UNL     1       1.042   9.463  17.818  0.00  0.00    +0.000 A 
ENDBRANCH  23  24
ENDBRANCH   4  23
TORSDOF 5
ENDMDL
MODEL 9
REMARK VINA RESULT:      -7.6      3.921      8.077
REMARK  Name = 
REMARK  6 active torsions:
REMARK  status: ('A' for Active; 'I' for Inactive)
REMARK    1  A    between atoms: C_1  and  C_2
REMARK    2  A    between atoms: C_4  and  C_5
REMARK    3  A    between atoms: C_7  and  N_8
REMARK    4  A    between atoms: N_11  and  C_12
REMARK    5  A    between atoms: N_19  and  C_20
REMARK    6  A    between atoms: C_20  and  C_21
REMARK                            x       y       z     vdW  Elec       q    Type
REMARK                         _______ _______ _______ _____ _____    ______ ____
ROOT
ATOM      1  C   UNL     1       2.277   4.556  18.759  0.00  0.00    +0.000 A 
ATOM      2  C   UNL     1       1.877   5.901  18.646  0.00  0.00    +0.000 A 
ATOM      3  C   UNL     1       2.851   6.471  17.867  0.00  0.00    +0.000 A 
ATOM      4  N   UNL     1       3.690   5.464  17.476  0.00  0.00    +0.000 N 
ATOM      5  N   UNL     1       3.416   4.304  18.108  0.00  0.00    +0.000 NA
ENDROOT
BRANCH   3   6
ATOM      6  N   UNL     1       2.937   7.801  17.550  0.00  0.00    +0.000 N 
ATOM      7  C   UNL     1       2.226   8.839  18.209  0.00  0.00    +0.000 C 
ATOM      8  O   UNL     1       2.370   9.942  17.721  0.00  0.00    +0.000 OA
ATOM      9  N   UNL     1       1.546   8.463  19.340  0.00  0.00    +0.000 N 
ATOM     10  H   UNL     1       3.472   8.087  16.735  0.00  0.00    +0.000 HD
ATOM     11  H   UNL     1       1.648   7.515  19.674  0.00  0.00    +0.000 HD
BRANCH   9  12
ATOM     12  C   UNL     1       0.853   9.349  20.196  0.00  0.00    +0.000 A 
ATOM     13  C   UNL     1       0.993   9.325  21.589  0.00  0.00    +0.000 A 
ATOM     14  C   UNL     1       0.213  10.153  22.401  0.00  0.00    +0.000 A 
ATOM     15  C   UNL     1      -0.709  11.020  21.827  0.00  0.00    +0.000 A 
ATOM     16  C   UNL     1      -0.812  11.079  20.443  0.00  0.00    +0.000 A 
ATOM     17  F   UNL     1      -1.697  11.917  19.887  0.00  0.00    +0.000 F 
ATOM     18  C   UNL     1      -0.031  10.267  19.622  0.00  0.00    +0.000 A 
ENDBRANCH   9  12
ENDBRANCH   3   6
BRANCH   1  22
ATOM     19  C   UNL     1       1.493   2.475  21.947  0.00  0.00    +0.000 C 
ATOM     20  C   UNL     1       2.226   2.802  20.691  0.00  0.00    +0.000 C 
ATOM     21  C   UNL     1       1.925   2.063  19.428  0.00  0.00    +0.000 C 
ATOM     22  C   UNL     1       1.508   3.517  19.560  0.00  0.00    +0.000 C 
ENDBRANCH   1  22
BRANCH   4  23
ATOM     23  C   UNL     1       4.841   5.565  16.592  0.00  0.00    +0.000 C 
BRANCH  23  24
ATOM     24  C   UNL     1       6.061   6.092  17.307  0.00  0.00    +0.000 A 
ATOM     25  C   UNL     1       6.610   7.339  16.970  0.00  0.00    +0.000 A 
ATOM     26  C   UNL     1       7.709   7.840  17.673  0.00  0.00    +0.000 A 
ATOM     27  C   UNL     1       8.270   7.104  18.715  0.00  0.00    +0.000 A 
ATOM     28  C   UNL     1       7.734   5.867  19.060  0.00  0.00    +0.000 A 
ATOM     29  C   UNL     1       6.635   5.364  18.363  0.00  0.00    +0.000 A 
ENDBRANCH  23  24
ENDBRANCH   4  23
TORSDOF 5
ENDMDL
