MODEL 1
REMARK VINA RESULT:      -8.0      0.000      0.000
REMARK  Name = 
REMARK  8 active torsions:
REMARK  status: ('A' for Active; 'I' for Inactive)
REMARK    1  A    between atoms: C_1  and  O_2
REMARK    2  A    between atoms: O_2  and  C_3
REMARK    3  A    between atoms: C_6  and  C_7
REMARK    4  A    between atoms: N_9  and  C_10
REMARK    5  A    between atoms: C_12  and  C_13
REMARK    6  A    between atoms: C_12  and  C_14
REMARK    7  A    between atoms: N_20  and  C_21
REMARK    8  A    between atoms: C_26  and  C_27
REMARK                            x       y       z     vdW  Elec       q    Type
REMARK                         _______ _______ _______ _____ _____    ______ ____
ROOT
ATOM      1  C   UNL     1       5.068   4.460  17.567  0.00  0.00    +0.000 C 
ATOM      2  C   UNL     1       4.172   3.332  18.119  0.00  0.00    +0.000 C 
ATOM      3  C   UNL     1       2.685   3.626  18.530  0.00  0.00    +0.000 C 
ATOM      4  C   UNL     1       1.723   2.963  17.521  0.00  0.00    +0.000 C 
ATOM      5  C   UNL     1       2.451   2.941  19.903  0.00  0.00    +0.000 C 
ATOM      6  C   UNL     1       2.255   5.110  18.692  0.00  0.00    +0.000 C 
ATOM      7  C   UNL     1       3.280   6.102  18.304  0.00  0.00    +0.000 A 
ATOM      8  C   UNL     1       4.524   5.815  17.797  0.00  0.00    +0.000 A 
ATOM      9  C   UNL     1       5.105   7.070  17.567  0.00  0.00    +0.000 A 
ATOM     10  N   UNL     1       4.269   8.072  17.829  0.00  0.00    +0.000 NA
ATOM     11  N   UNL     1       3.127   7.487  18.282  0.00  0.00    +0.000 N 
ENDROOT
BRANCH  11  12
ATOM     12  C   UNL     1       1.982   8.279  18.629  0.00  0.00    +0.000 A 
ATOM     13  C   UNL     1       1.358   9.066  17.645  0.00  0.00    +0.000 A 
ATOM     14  C   UNL     1       0.301   9.924  17.954  0.00  0.00    +0.000 A 
ATOM     15  C   UNL     1      -0.180   9.980  19.252  0.00  0.00    +0.000 A 
ATOM     16  C   UNL     1       0.388   9.168  20.234  0.00  0.00    +0.000 A 
ATOM     17  C   UNL     1       1.471   8.313  19.948  0.00  0.00    +0.000 A 
ATOM     18  C   UNL     1       2.054   7.531  21.097  0.00  0.00    +0.000 C 
ENDBRANCH  11  12
BRANCH   1  21
ATOM     19  C   UNL     1       6.552   4.475  15.590  0.00  0.00    +0.000 C 
ATOM     20  O   UNL     1       7.531   4.808  16.253  0.00  0.00    +0.000 OA
ATOM     21  N   UNL     1       5.302   4.301  16.148  0.00  0.00    +0.000 N 
ATOM     22  H   UNL     1       4.563   3.957  15.545  0.00  0.00    +0.000 HD
BRANCH  19  26
ATOM     23  C   UNL     1       5.954   3.340  12.263  0.00  0.00    +0.000 A 
ATOM     24  C   UNL     1       7.028   4.153  11.957  0.00  0.00    +0.000 A 
ATOM     25  C   UNL     1       7.443   4.731  13.185  0.00  0.00    +0.000 A 
ATOM     26  C   UNL     1       6.604   4.233  14.165  0.00  0.00    +0.000 A 
ATOM     27  O   UNL     1       5.697   3.379  13.596  0.00  0.00    +0.000 OA
BRANCH  23  29
ATOM     28  C   UNL     1       3.944   3.159  11.110  0.00  0.00    +0.000 C 
ATOM     29  O   UNL     1       5.128   2.543  11.596  0.00  0.00    +0.000 OA
ENDBRANCH  23  29
ENDBRANCH  19  26
ENDBRANCH   1  21
TORSDOF 4
ENDMDL
MODEL 2
REMARK VINA RESULT:      -7.9      6.851     11.522
REMARK  Name = 
REMARK  8 active torsions:
REMARK  status: ('A' for Active; 'I' for Inactive)
REMARK    1  A    between atoms: C_1  and  O_2
REMARK    2  A    between atoms: O_2  and  C_3
REMARK    3  A    between atoms: C_6  and  C_7
REMARK    4  A    between atoms: N_9  and  C_10
REMARK    5  A    between atoms: C_12  and  C_13
REMARK    6  A    between atoms: C_12  and  C_14
REMARK    7  A    between atoms: N_20  and  C_21
REMARK    8  A    between atoms: C_26  and  C_27
REMARK                            x       y       z     vdW  Elec       q    Type
REMARK                         _______ _______ _______ _____ _____    ______ ____
ROOT
ATOM      1  C   UNL     1      -2.189  12.381  19.383  0.00  0.00    +0.000 C 
ATOM      2  C   UNL     1      -3.005  11.847  18.188  0.00  0.00    +0.000 C 
ATOM      3  C   UNL     1      -2.626  10.483  17.511  0.00  0.00    +0.000 C 
ATOM      4  C   UNL     1      -3.699   9.421  17.837  0.00  0.00    +0.000 C 
ATOM      5  C   UNL     1      -2.662  10.712  15.977  0.00  0.00    +0.000 C 
ATOM      6  C   UNL     1      -1.237   9.869  17.838  0.00  0.00    +0.000 C 
ATOM      7  C   UNL     1      -0.466  10.589  18.874  0.00  0.00    +0.000 A 
ATOM      8  C   UNL     1      -0.891  11.697  19.566  0.00  0.00    +0.000 A 
ATOM      9  C   UNL     1       0.166  11.989  20.440  0.00  0.00    +0.000 A 
ATOM     10  N   UNL     1       1.147  11.093  20.368  0.00  0.00    +0.000 NA
ATOM     11  N   UNL     1       0.766  10.211  19.404  0.00  0.00    +0.000 N 
ENDROOT
BRANCH  11  12
ATOM     12  C   UNL     1       1.582   9.075  19.081  0.00  0.00    +0.000 A 
ATOM     13  C   UNL     1       2.238   9.023  17.839  0.00  0.00    +0.000 A 
ATOM     14  C   UNL     1       2.965   7.898  17.441  0.00  0.00    +0.000 A 
ATOM     15  C   UNL     1       3.084   6.819  18.301  0.00  0.00    +0.000 A 
ATOM     16  C   UNL     1       2.486   6.871  19.560  0.00  0.00    +0.000 A 
ATOM     17  C   UNL     1       1.728   7.986  19.971  0.00  0.00    +0.000 A 
ATOM     18  C   UNL     1       1.068   7.910  21.324  0.00  0.00    +0.000 C 
ENDBRANCH  11  12
BRANCH   1  21
ATOM     19  C   UNL     1      -3.096  13.353  21.468  0.00  0.00    +0.000 C 
ATOM     20  O   UNL     1      -2.591  14.451  21.245  0.00  0.00    +0.000 OA
ATOM     21  N   UNL     1      -2.934  12.277  20.620  0.00  0.00    +0.000 N 
ATOM     22  H   UNL     1      -3.440  11.426  20.840  0.00  0.00    +0.000 HD
BRANCH  19  26
ATOM     23  C   UNL     1      -5.770  12.965  23.794  0.00  0.00    +0.000 A 
ATOM     24  C   UNL     1      -4.774  12.494  24.626  0.00  0.00    +0.000 A 
ATOM     25  C   UNL     1      -3.571  12.560  23.874  0.00  0.00    +0.000 A 
ATOM     26  C   UNL     1      -3.905  13.073  22.633  0.00  0.00    +0.000 A 
ATOM     27  O   UNL     1      -5.251  13.323  22.591  0.00  0.00    +0.000 OA
BRANCH  23  29
ATOM     28  C   UNL     1      -7.868  12.361  22.998  0.00  0.00    +0.000 C 
ATOM     29  O   UNL     1      -7.081  13.156  23.873  0.00  0.00    +0.000 OA
ENDBRANCH  23  29
ENDBRANCH  19  26
ENDBRANCH   1  21
TORSDOF 4
ENDMDL
MODEL 3
REMARK VINA RESULT:      -7.2      6.583     11.433
REMARK  Name = 
REMARK  8 active torsions:
REMARK  status: ('A' for Active; 'I' for Inactive)
REMARK    1  A    between atoms: C_1  and  O_2
REMARK    2  A    between atoms: O_2  and  C_3
REMARK    3  A    between atoms: C_6  and  C_7
REMARK    4  A    between atoms: N_9  and  C_10
REMARK    5  A    between atoms: C_12  and  C_13
REMARK    6  A    between atoms: C_12  and  C_14
REMARK    7  A    between atoms: N_20  and  C_21
REMARK    8  A    between atoms: C_26  and  C_27
REMARK                            x       y       z     vdW  Elec       q    Type
REMARK                         _______ _______ _______ _____ _____    ______ ____
ROOT
ATOM      1  C   UNL     1      -1.890  12.452  18.874  0.00  0.00    +0.000 C 
ATOM      2  C   UNL     1      -2.785  11.777  17.814  0.00  0.00    +0.000 C 
ATOM      3  C   UNL     1      -2.498  10.305  17.350  0.00  0.00    +0.000 C 
ATOM      4  C   UNL     1      -3.598   9.363  17.885  0.00  0.00    +0.000 C 
ATOM      5  C   UNL     1      -2.596  10.290  15.801  0.00  0.00    +0.000 C 
ATOM      6  C   UNL     1      -1.122   9.682  17.716  0.00  0.00    +0.000 C 
ATOM      7  C   UNL     1      -0.273  10.517  18.591  0.00  0.00    +0.000 A 
ATOM      8  C   UNL     1      -0.616  11.742  19.113  0.00  0.00    +0.000 A 
ATOM      9  C   UNL     1       0.492  12.115  19.885  0.00  0.00    +0.000 A 
ATOM     10  N   UNL     1       1.430  11.171  19.919  0.00  0.00    +0.000 NA
ATOM     11  N   UNL     1       0.966  10.167  19.125  0.00  0.00    +0.000 N 
ENDROOT
BRANCH  11  12
ATOM     12  C   UNL     1       1.716   8.955  18.957  0.00  0.00    +0.000 A 
ATOM     13  C   UNL     1       2.438   8.745  17.768  0.00  0.00    +0.000 A 
ATOM     14  C   UNL     1       3.104   7.543  17.519  0.00  0.00    +0.000 A 
ATOM     15  C   UNL     1       3.095   6.542  18.476  0.00  0.00    +0.000 A 
ATOM     16  C   UNL     1       2.431   6.750  19.686  0.00  0.00    +0.000 A 
ATOM     17  C   UNL     1       1.732   7.946  19.947  0.00  0.00    +0.000 A 
ATOM     18  C   UNL     1       0.991   8.038  21.257  0.00  0.00    +0.000 C 
ENDBRANCH  11  12
BRANCH   1  21
ATOM     19  C   UNL     1      -2.582  13.764  20.852  0.00  0.00    +0.000 C 
ATOM     20  O   UNL     1      -1.974  14.763  20.475  0.00  0.00    +0.000 OA
ATOM     21  N   UNL     1      -2.580  12.582  20.140  0.00  0.00    +0.000 N 
ATOM     22  H   UNL     1      -3.164  11.827  20.483  0.00  0.00    +0.000 HD
BRANCH  19  26
ATOM     23  C   UNL     1      -3.890  14.301  24.125  0.00  0.00    +0.000 A 
ATOM     24  C   UNL     1      -4.817  13.351  23.743  0.00  0.00    +0.000 A 
ATOM     25  C   UNL     1      -4.475  12.982  22.416  0.00  0.00    +0.000 A 
ATOM     26  C   UNL     1      -3.358  13.721  22.072  0.00  0.00    +0.000 A 
ATOM     27  O   UNL     1      -3.001  14.524  23.123  0.00  0.00    +0.000 OA
BRANCH  23  29
ATOM     28  C   UNL     1      -2.280  15.301  25.470  0.00  0.00    +0.000 C 
ATOM     29  O   UNL     1      -3.649  15.033  25.206  0.00  0.00    +0.000 OA
ENDBRANCH  23  29
ENDBRANCH  19  26
ENDBRANCH   1  21
TORSDOF 4
ENDMDL
MODEL 4
REMARK VINA RESULT:      -7.1      7.058     11.754
REMARK  Name = 
REMARK  8 active torsions:
REMARK  status: ('A' for Active; 'I' for Inactive)
REMARK    1  A    between atoms: C_1  and  O_2
REMARK    2  A    between atoms: O_2  and  C_3
REMARK    3  A    between atoms: C_6  and  C_7
REMARK    4  A    between atoms: N_9  and  C_10
REMARK    5  A    between atoms: C_12  and  C_13
REMARK    6  A    between atoms: C_12  and  C_14
REMARK    7  A    between atoms: N_20  and  C_21
REMARK    8  A    between atoms: C_26  and  C_27
REMARK                            x       y       z     vdW  Elec       q    Type
REMARK                         _______ _______ _______ _____ _____    ______ ____
ROOT
ATOM      1  C   UNL     1      -2.997  12.476  18.921  0.00  0.00    +0.000 C 
ATOM      2  C   UNL     1      -3.689  11.740  17.754  0.00  0.00    +0.000 C 
ATOM      3  C   UNL     1      -3.155  10.349  17.262  0.00  0.00    +0.000 C 
ATOM      4  C   UNL     1      -4.152   9.237  17.652  0.00  0.00    +0.000 C 
ATOM      5  C   UNL     1      -3.114  10.402  15.711  0.00  0.00    +0.000 C 
ATOM      6  C   UNL     1      -1.742   9.905  17.731  0.00  0.00    +0.000 C 
ATOM      7  C   UNL     1      -1.101  10.802  18.715  0.00  0.00    +0.000 A 
ATOM      8  C   UNL     1      -1.661  11.937  19.250  0.00  0.00    +0.000 A 
ATOM      9  C   UNL     1      -0.689  12.419  20.138  0.00  0.00    +0.000 A 
ATOM     10  N   UNL     1       0.367  11.614  20.223  0.00  0.00    +0.000 NA
ATOM     11  N   UNL     1       0.123  10.599  19.349  0.00  0.00    +0.000 N 
ENDROOT
BRANCH  11  12
ATOM     12  C   UNL     1       1.050   9.514  19.205  0.00  0.00    +0.000 A 
ATOM     13  C   UNL     1       1.808   9.400  18.026  0.00  0.00    +0.000 A 
ATOM     14  C   UNL     1       2.652   8.311  17.799  0.00  0.00    +0.000 A 
ATOM     15  C   UNL     1       2.786   7.333  18.771  0.00  0.00    +0.000 A 
ATOM     16  C   UNL     1       2.085   7.452  19.971  0.00  0.00    +0.000 A 
ATOM     17  C   UNL     1       1.209   8.531  20.210  0.00  0.00    +0.000 A 
ATOM     18  C   UNL     1       0.449   8.526  21.512  0.00  0.00    +0.000 C 
ENDBRANCH  11  12
BRANCH   1  21
ATOM     19  C   UNL     1      -5.088  12.954  20.151  0.00  0.00    +0.000 C 
ATOM     20  O   UNL     1      -5.605  13.499  19.178  0.00  0.00    +0.000 OA
ATOM     21  N   UNL     1      -3.807  12.442  20.120  0.00  0.00    +0.000 N 
ATOM     22  H   UNL     1      -3.480  11.946  20.942  0.00  0.00    +0.000 HD
BRANCH  19  26
ATOM     23  C   UNL     1      -5.889  12.386  23.578  0.00  0.00    +0.000 A 
ATOM     24  C   UNL     1      -7.177  12.660  23.163  0.00  0.00    +0.000 A 
ATOM     25  C   UNL     1      -7.091  12.928  21.772  0.00  0.00    +0.000 A 
ATOM     26  C   UNL     1      -5.760  12.794  21.421  0.00  0.00    +0.000 A 
ATOM     27  O   UNL     1      -5.029  12.458  22.530  0.00  0.00    +0.000 OA
BRANCH  23  29
ATOM     28  C   UNL     1      -4.052  12.722  24.961  0.00  0.00    +0.000 C 
ATOM     29  O   UNL     1      -5.291  12.071  24.721  0.00  0.00    +0.000 OA
ENDBRANCH  23  29
ENDBRANCH  19  26
ENDBRANCH   1  21
TORSDOF 4
ENDMDL
MODEL 5
REMARK VINA RESULT:      -7.1      0.990      1.246
REMARK  Name = 
REMARK  8 active torsions:
REMARK  status: ('A' for Active; 'I' for Inactive)
REMARK    1  A    between atoms: C_1  and  O_2
REMARK    2  A    between atoms: O_2  and  C_3
REMARK    3  A    between atoms: C_6  and  C_7
REMARK    4  A    between atoms: N_9  and  C_10
REMARK    5  A    between atoms: C_12  and  C_13
REMARK    6  A    between atoms: C_12  and  C_14
REMARK    7  A    between atoms: N_20  and  C_21
REMARK    8  A    between atoms: C_26  and  C_27
REMARK                            x       y       z     vdW  Elec       q    Type
REMARK                         _______ _______ _______ _____ _____    ______ ____
ROOT
ATOM      1  C   UNL     1       4.530   4.682  17.722  0.00  0.00    +0.000 C 
ATOM      2  C   UNL     1       3.734   3.609  18.493  0.00  0.00    +0.000 C 
ATOM      3  C   UNL     1       2.301   3.928  19.050  0.00  0.00    +0.000 C 
ATOM      4  C   UNL     1       1.240   3.153  18.241  0.00  0.00    +0.000 C 
ATOM      5  C   UNL     1       2.250   3.389  20.504  0.00  0.00    +0.000 C 
ATOM      6  C   UNL     1       1.859   5.416  19.110  0.00  0.00    +0.000 C 
ATOM      7  C   UNL     1       2.805   6.373  18.499  0.00  0.00    +0.000 A 
ATOM      8  C   UNL     1       3.986   6.048  17.876  0.00  0.00    +0.000 A 
ATOM      9  C   UNL     1       4.504   7.278  17.448  0.00  0.00    +0.000 A 
ATOM     10  N   UNL     1       3.683   8.293  17.706  0.00  0.00    +0.000 NA
ATOM     11  N   UNL     1       2.619   7.746  18.353  0.00  0.00    +0.000 N 
ENDROOT
BRANCH  11  12
ATOM     12  C   UNL     1       1.505   8.558  18.755  0.00  0.00    +0.000 A 
ATOM     13  C   UNL     1       0.770   9.258  17.782  0.00  0.00    +0.000 A 
ATOM     14  C   UNL     1      -0.261  10.133  18.132  0.00  0.00    +0.000 A 
ATOM     15  C   UNL     1      -0.603  10.292  19.464  0.00  0.00    +0.000 A 
ATOM     16  C   UNL     1       0.077   9.567  20.443  0.00  0.00    +0.000 A 
ATOM     17  C   UNL     1       1.136   8.697  20.113  0.00  0.00    +0.000 A 
ATOM     18  C   UNL     1       1.848   8.015  21.254  0.00  0.00    +0.000 C 
ENDBRANCH  11  12
BRANCH   1  21
ATOM     19  C   UNL     1       5.784   4.396  15.611  0.00  0.00    +0.000 C 
ATOM     20  O   UNL     1       6.852   4.704  16.135  0.00  0.00    +0.000 OA
ATOM     21  N   UNL     1       4.594   4.378  16.308  0.00  0.00    +0.000 N 
ATOM     22  H   UNL     1       3.770   4.044  15.820  0.00  0.00    +0.000 HD
BRANCH  19  26
ATOM     23  C   UNL     1       6.391   3.338  12.260  0.00  0.00    +0.000 A 
ATOM     24  C   UNL     1       5.029   3.522  12.118  0.00  0.00    +0.000 A 
ATOM     25  C   UNL     1       4.560   3.960  13.385  0.00  0.00    +0.000 A 
ATOM     26  C   UNL     1       5.662   4.023  14.219  0.00  0.00    +0.000 A 
ATOM     27  O   UNL     1       6.781   3.645  13.524  0.00  0.00    +0.000 OA
BRANCH  23  29
ATOM     28  C   UNL     1       7.285   1.634  10.957  0.00  0.00    +0.000 C 
ATOM     29  O   UNL     1       7.396   2.947  11.486  0.00  0.00    +0.000 OA
ENDBRANCH  23  29
ENDBRANCH  19  26
ENDBRANCH   1  21
TORSDOF 4
ENDMDL
MODEL 6
REMARK VINA RESULT:      -7.0      7.111     11.900
REMARK  Name = 
REMARK  8 active torsions:
REMARK  status: ('A' for Active; 'I' for Inactive)
REMARK    1  A    between atoms: C_1  and  O_2
REMARK    2  A    between atoms: O_2  and  C_3
REMARK    3  A    between atoms: C_6  and  C_7
REMARK    4  A    between atoms: N_9  and  C_10
REMARK    5  A    between atoms: C_12  and  C_13
REMARK    6  A    between atoms: C_12  and  C_14
REMARK    7  A    between atoms: N_20  and  C_21
REMARK    8  A    between atoms: C_26  and  C_27
REMARK                            x       y       z     vdW  Elec       q    Type
REMARK                         _______ _______ _______ _____ _____    ______ ____
ROOT
ATOM      1  C   UNL     1      -2.019  12.346  20.058  0.00  0.00    +0.000 C 
ATOM      2  C   UNL     1      -2.771  11.994  18.757  0.00  0.00    +0.000 C 
ATOM      3  C   UNL     1      -2.487  10.639  18.016  0.00  0.00    +0.000 C 
ATOM      4  C   UNL     1      -3.702   9.698  18.163  0.00  0.00    +0.000 C 
ATOM      5  C   UNL     1      -2.345  10.969  16.507  0.00  0.00    +0.000 C 
ATOM      6  C   UNL     1      -1.217   9.841  18.420  0.00  0.00    +0.000 C 
ATOM      7  C   UNL     1      -0.474  10.393  19.572  0.00  0.00    +0.000 A 
ATOM      8  C   UNL     1      -0.834  11.499  20.305  0.00  0.00    +0.000 A 
ATOM      9  C   UNL     1       0.159  11.602  21.289  0.00  0.00    +0.000 A 
ATOM     10  N   UNL     1       1.032  10.600  21.239  0.00  0.00    +0.000 NA
ATOM     11  N   UNL     1       0.649   9.835  20.181  0.00  0.00    +0.000 N 
ENDROOT
BRANCH  11  12
ATOM     12  C   UNL     1       1.355   8.631  19.849  0.00  0.00    +0.000 A 
ATOM     13  C   UNL     1       1.294   7.528  20.720  0.00  0.00    +0.000 A 
ATOM     14  C   UNL     1       2.039   6.369  20.488  0.00  0.00    +0.000 A 
ATOM     15  C   UNL     1       2.828   6.276  19.354  0.00  0.00    +0.000 A 
ATOM     16  C   UNL     1       2.862   7.336  18.448  0.00  0.00    +0.000 A 
ATOM     17  C   UNL     1       2.137   8.524  18.675  0.00  0.00    +0.000 A 
ATOM     18  C   UNL     1       2.299   9.634  17.668  0.00  0.00    +0.000 C 
ENDBRANCH  11  12
BRANCH   1  21
ATOM     19  C   UNL     1      -3.513  13.364  21.745  0.00  0.00    +0.000 C 
ATOM     20  O   UNL     1      -3.342  14.496  21.299  0.00  0.00    +0.000 OA
ATOM     21  N   UNL     1      -2.889  12.255  21.211  0.00  0.00    +0.000 N 
ATOM     22  H   UNL     1      -3.138  11.348  21.591  0.00  0.00    +0.000 HD
BRANCH  19  26
ATOM     23  C   UNL     1      -6.279  13.048  23.973  0.00  0.00    +0.000 A 
ATOM     24  C   UNL     1      -5.351  12.434  24.792  0.00  0.00    +0.000 A 
ATOM     25  C   UNL     1      -4.126  12.448  24.075  0.00  0.00    +0.000 A 
ATOM     26  C   UNL     1      -4.377  13.075  22.868  0.00  0.00    +0.000 A 
ATOM     27  O   UNL     1      -5.696  13.444  22.812  0.00  0.00    +0.000 OA
BRANCH  23  29
ATOM     28  C   UNL     1      -7.912  14.665  23.629  0.00  0.00    +0.000 C 
ATOM     29  O   UNL     1      -7.570  13.348  24.035  0.00  0.00    +0.000 OA
ENDBRANCH  23  29
ENDBRANCH  19  26
ENDBRANCH   1  21
TORSDOF 4
ENDMDL
MODEL 7
REMARK VINA RESULT:      -6.9      2.396      4.115
REMARK  Name = 
REMARK  8 active torsions:
REMARK  status: ('A' for Active; 'I' for Inactive)
REMARK    1  A    between atoms: C_1  and  O_2
REMARK    2  A    between atoms: O_2  and  C_3
REMARK    3  A    between atoms: C_6  and  C_7
REMARK    4  A    between atoms: N_9  and  C_10
REMARK    5  A    between atoms: C_12  and  C_13
REMARK    6  A    between atoms: C_12  and  C_14
REMARK    7  A    between atoms: N_20  and  C_21
REMARK    8  A    between atoms: C_26  and  C_27
REMARK                            x       y       z     vdW  Elec       q    Type
REMARK                         _______ _______ _______ _____ _____    ______ ____
ROOT
ATOM      1  C   UNL     1       6.196   6.766  16.745  0.00  0.00    +0.000 C 
ATOM      2  C   UNL     1       7.440   6.509  17.620  0.00  0.00    +0.000 C 
ATOM      3  C   UNL     1       7.384   5.474  18.800  0.00  0.00    +0.000 C 
ATOM      4  C   UNL     1       8.224   4.229  18.444  0.00  0.00    +0.000 C 
ATOM      5  C   UNL     1       8.060   6.146  20.025  0.00  0.00    +0.000 C 
ATOM      6  C   UNL     1       5.988   4.985  19.273  0.00  0.00    +0.000 C 
ATOM      7  C   UNL     1       4.851   5.459  18.455  0.00  0.00    +0.000 A 
ATOM      8  C   UNL     1       4.943   6.241  17.329  0.00  0.00    +0.000 A 
ATOM      9  C   UNL     1       3.617   6.398  16.905  0.00  0.00    +0.000 A 
ATOM     10  N   UNL     1       2.759   5.706  17.651  0.00  0.00    +0.000 NA
ATOM     11  N   UNL     1       3.512   5.111  18.615  0.00  0.00    +0.000 N 
ENDROOT
BRANCH  11  12
ATOM     12  C   UNL     1       2.910   4.245  19.589  0.00  0.00    +0.000 A 
ATOM     13  C   UNL     1       2.608   4.744  20.869  0.00  0.00    +0.000 A 
ATOM     14  C   UNL     1       2.110   3.917  21.878  0.00  0.00    +0.000 A 
ATOM     15  C   UNL     1       1.865   2.580  21.612  0.00  0.00    +0.000 A 
ATOM     16  C   UNL     1       2.106   2.076  20.334  0.00  0.00    +0.000 A 
ATOM     17  C   UNL     1       2.631   2.887  19.308  0.00  0.00    +0.000 A 
ATOM     18  C   UNL     1       2.918   2.225  17.984  0.00  0.00    +0.000 C 
ENDBRANCH  11  12
BRANCH   1  21
ATOM     19  C   UNL     1       6.403   4.833  15.219  0.00  0.00    +0.000 C 
ATOM     20  O   UNL     1       6.354   4.024  16.142  0.00  0.00    +0.000 OA
ATOM     21  N   UNL     1       6.353   6.196  15.424  0.00  0.00    +0.000 N 
ATOM     22  H   UNL     1       6.329   6.794  14.605  0.00  0.00    +0.000 HD
BRANCH  19  26
ATOM     23  C   UNL     1       5.935   3.389  11.992  0.00  0.00    +0.000 A 
ATOM     24  C   UNL     1       7.056   4.129  11.668  0.00  0.00    +0.000 A 
ATOM     25  C   UNL     1       7.429   4.814  12.854  0.00  0.00    +0.000 A 
ATOM     26  C   UNL     1       6.520   4.446  13.830  0.00  0.00    +0.000 A 
ATOM     27  O   UNL     1       5.610   3.571  13.298  0.00  0.00    +0.000 OA
BRANCH  23  29
ATOM     28  C   UNL     1       3.837   3.089  11.040  0.00  0.00    +0.000 C 
ATOM     29  O   UNL     1       5.114   2.559  11.362  0.00  0.00    +0.000 OA
ENDBRANCH  23  29
ENDBRANCH  19  26
ENDBRANCH   1  21
TORSDOF 4
ENDMDL
MODEL 8
REMARK VINA RESULT:      -6.9      4.988      8.591
REMARK  Name = 
REMARK  8 active torsions:
REMARK  status: ('A' for Active; 'I' for Inactive)
REMARK    1  A    between atoms: C_1  and  O_2
REMARK    2  A    between atoms: O_2  and  C_3
REMARK    3  A    between atoms: C_6  and  C_7
REMARK    4  A    between atoms: N_9  and  C_10
REMARK    5  A    between atoms: C_12  and  C_13
REMARK    6  A    between atoms: C_12  and  C_14
REMARK    7  A    between atoms: N_20  and  C_21
REMARK    8  A    between atoms: C_26  and  C_27
REMARK                            x       y       z     vdW  Elec       q    Type
REMARK                         _______ _______ _______ _____ _____    ______ ____
ROOT
ATOM      1  C   UNL     1       0.881  10.399  19.159  0.00  0.00    +0.000 C 
ATOM      2  C   UNL     1       0.260  10.118  20.544  0.00  0.00    +0.000 C 
ATOM      3  C   UNL     1       0.716   8.872  21.382  0.00  0.00    +0.000 C 
ATOM      4  C   UNL     1       1.537   9.335  22.605  0.00  0.00    +0.000 C 
ATOM      5  C   UNL     1      -0.571   8.196  21.926  0.00  0.00    +0.000 C 
ATOM      6  C   UNL     1       1.529   7.764  20.656  0.00  0.00    +0.000 C 
ATOM      7  C   UNL     1       1.903   8.078  19.261  0.00  0.00    +0.000 A 
ATOM      8  C   UNL     1       1.624   9.250  18.599  0.00  0.00    +0.000 A 
ATOM      9  C   UNL     1       2.197   9.079  17.332  0.00  0.00    +0.000 A 
ATOM     10  N   UNL     1       2.857   7.928  17.223  0.00  0.00    +0.000 NA
ATOM     11  N   UNL     1       2.689   7.297  18.417  0.00  0.00    +0.000 N 
ENDROOT
BRANCH  11  12
ATOM     12  C   UNL     1       3.305   6.026  18.670  0.00  0.00    +0.000 A 
ATOM     13  C   UNL     1       4.587   5.979  19.247  0.00  0.00    +0.000 A 
ATOM     14  C   UNL     1       5.266   4.772  19.426  0.00  0.00    +0.000 A 
ATOM     15  C   UNL     1       4.655   3.581  19.068  0.00  0.00    +0.000 A 
ATOM     16  C   UNL     1       3.362   3.600  18.545  0.00  0.00    +0.000 A 
ATOM     17  C   UNL     1       2.669   4.809  18.333  0.00  0.00    +0.000 A 
ATOM     18  C   UNL     1       1.305   4.719  17.698  0.00  0.00    +0.000 C 
ENDBRANCH  11  12
BRANCH   1  21
ATOM     19  C   UNL     1       1.386  12.785  18.758  0.00  0.00    +0.000 C 
ATOM     20  O   UNL     1       0.279  12.998  18.270  0.00  0.00    +0.000 OA
ATOM     21  N   UNL     1       1.773  11.537  19.202  0.00  0.00    +0.000 N 
ATOM     22  H   UNL     1       2.677  11.460  19.656  0.00  0.00    +0.000 HD
BRANCH  19  26
ATOM     23  C   UNL     1       4.283  14.844  18.472  0.00  0.00    +0.000 A 
ATOM     24  C   UNL     1       3.677  15.571  19.478  0.00  0.00    +0.000 A 
ATOM     25  C   UNL     1       2.456  14.905  19.761  0.00  0.00    +0.000 A 
ATOM     26  C   UNL     1       2.394  13.810  18.918  0.00  0.00    +0.000 A 
ATOM     27  O   UNL     1       3.517  13.775  18.134  0.00  0.00    +0.000 OA
BRANCH  23  29
ATOM     28  C   UNL     1       6.511  15.504  18.446  0.00  0.00    +0.000 C 
ATOM     29  O   UNL     1       5.406  14.922  17.770  0.00  0.00    +0.000 OA
ENDBRANCH  23  29
ENDBRANCH  19  26
ENDBRANCH   1  21
TORSDOF 4
ENDMDL
MODEL 9
REMARK VINA RESULT:      -6.8      5.156      8.902
REMARK  Name = 
REMARK  8 active torsions:
REMARK  status: ('A' for Active; 'I' for Inactive)
REMARK    1  A    between atoms: C_1  and  O_2
REMARK    2  A    between atoms: O_2  and  C_3
REMARK    3  A    between atoms: C_6  and  C_7
REMARK    4  A    between atoms: N_9  and  C_10
REMARK    5  A    between atoms: C_12  and  C_13
REMARK    6  A    between atoms: C_12  and  C_14
REMARK    7  A    between atoms: N_20  and  C_21
REMARK    8  A    between atoms: C_26  and  C_27
REMARK                            x       y       z     vdW  Elec       q    Type
REMARK                         _______ _______ _______ _____ _____    ______ ____
ROOT
ATOM      1  C   UNL     1       0.747  10.451  19.228  0.00  0.00    +0.000 C 
ATOM      2  C   UNL     1       0.160  10.133  20.619  0.00  0.00    +0.000 C 
ATOM      3  C   UNL     1       0.676   8.898  21.438  0.00  0.00    +0.000 C 
ATOM      4  C   UNL     1       1.497   9.381  22.653  0.00  0.00    +0.000 C 
ATOM      5  C   UNL     1      -0.576   8.168  21.994  0.00  0.00    +0.000 C 
ATOM      6  C   UNL     1       1.520   7.830  20.689  0.00  0.00    +0.000 C 
ATOM      7  C   UNL     1       1.860   8.171  19.292  0.00  0.00    +0.000 A 
ATOM      8  C   UNL     1       1.525   9.337  18.646  0.00  0.00    +0.000 A 
ATOM      9  C   UNL     1       2.085   9.201  17.369  0.00  0.00    +0.000 A 
ATOM     10  N   UNL     1       2.787   8.078  17.238  0.00  0.00    +0.000 NA
ATOM     11  N   UNL     1       2.663   7.429  18.428  0.00  0.00    +0.000 N 
ENDROOT
BRANCH  11  12
ATOM     12  C   UNL     1       3.331   6.181  18.660  0.00  0.00    +0.000 A 
ATOM     13  C   UNL     1       4.633   6.179  19.192  0.00  0.00    +0.000 A 
ATOM     14  C   UNL     1       5.360   4.997  19.347  0.00  0.00    +0.000 A 
ATOM     15  C   UNL     1       4.779   3.785  19.010  0.00  0.00    +0.000 A 
ATOM     16  C   UNL     1       3.469   3.758  18.531  0.00  0.00    +0.000 A 
ATOM     17  C   UNL     1       2.727   4.942  18.344  0.00  0.00    +0.000 A 
ATOM     18  C   UNL     1       1.346   4.804  17.756  0.00  0.00    +0.000 C 
ENDBRANCH  11  12
BRANCH   1  21
ATOM     19  C   UNL     1       1.158  12.856  18.831  0.00  0.00    +0.000 C 
ATOM     20  O   UNL     1       0.041  13.028  18.350  0.00  0.00    +0.000 OA
ATOM     21  N   UNL     1       1.595  11.623  19.269  0.00  0.00    +0.000 N 
ATOM     22  H   UNL     1       2.504  11.580  19.718  0.00  0.00    +0.000 HD
BRANCH  19  26
ATOM     23  C   UNL     1       2.930  15.948  18.719  0.00  0.00    +0.000 A 
ATOM     24  C   UNL     1       3.858  15.268  19.482  0.00  0.00    +0.000 A 
ATOM     25  C   UNL     1       3.336  13.959  19.659  0.00  0.00    +0.000 A 
ATOM     26  C   UNL     1       2.127  13.919  18.988  0.00  0.00    +0.000 A 
ATOM     27  O   UNL     1       1.885  15.138  18.411  0.00  0.00    +0.000 OA
BRANCH  23  29
ATOM     28  C   UNL     1       2.642  17.237  16.807  0.00  0.00    +0.000 C 
ATOM     29  O   UNL     1       2.807  17.170  18.216  0.00  0.00    +0.000 OA
ENDBRANCH  23  29
ENDBRANCH  19  26
ENDBRANCH   1  21
TORSDOF 4
ENDMDL
