MODEL 1
REMARK VINA RESULT:      -7.9      0.000      0.000
REMARK  Name = 
REMARK  4 active torsions:
REMARK  status: ('A' for Active; 'I' for Inactive)
REMARK    1  A    between atoms: C_2  and  C_3
REMARK    2  A    between atoms: C_3  and  S_4
REMARK    3  A    between atoms: S_4  and  C_5
REMARK    4  A    between atoms: C_11  and  C_12
REMARK                            x       y       z     vdW  Elec       q    Type
REMARK                         _______ _______ _______ _____ _____    ______ ____
ROOT
ATOM      1  C   UNL     1       3.997   5.551  17.858  0.00  0.00    +0.000 A 
ATOM      2  C   UNL     1       4.502   5.609  19.255  0.00  0.00    +0.000 A 
ATOM      3  C   UNL     1       5.787   5.284  19.449  0.00  0.00    +0.000 A 
ATOM      4  C   UNL     1       6.573   4.907  18.342  0.00  0.00    +0.000 A 
ATOM      5  N   UNL     1       7.814   4.489  18.241  0.00  0.00    +0.000 NA
ATOM      6  N   UNL     1       8.067   4.257  16.910  0.00  0.00    +0.000 NA
ATOM      7  C   UNL     1       6.988   4.572  16.209  0.00  0.00    +0.000 A 
ATOM      8  N   UNL     1       5.991   4.958  17.088  0.00  0.00    +0.000 N 
ATOM      9  N   UNL     1       4.689   5.291  16.796  0.00  0.00    +0.000 NA
ENDROOT
BRANCH   7  10
ATOM     10  C   UNL     1       6.867   4.501  14.753  0.00  0.00    +0.000 A 
ATOM     11  C   UNL     1       5.923   3.638  14.178  0.00  0.00    +0.000 A 
ATOM     12  C   UNL     1       5.810   3.528  12.792  0.00  0.00    +0.000 A 
ATOM     13  C   UNL     1       6.645   4.270  11.960  0.00  0.00    +0.000 A 
ATOM     14  C   UNL     1       7.593   5.126  12.516  0.00  0.00    +0.000 A 
ATOM     15  C   UNL     1       7.703   5.240  13.903  0.00  0.00    +0.000 A 
ENDBRANCH   7  10
BRANCH   1  16
ATOM     16  S   UNL     1       2.292   5.920  17.727  0.00  0.00    +0.000 S 
BRANCH  16  17
ATOM     17  C   UNL     1       1.645   4.324  17.136  0.00  0.00    +0.000 C 
BRANCH  17  19
ATOM     18  O   UNL     1       2.976   2.313  17.369  0.00  0.00    +0.000 OA
ATOM     19  C   UNL     1       2.191   3.110  17.890  0.00  0.00    +0.000 C 
ATOM     20  N   UNL     1       1.771   2.954  19.213  0.00  0.00    +0.000 N 
ATOM     21  C   UNL     1       0.903   3.867  19.960  0.00  0.00    +0.000 C 
ATOM     22  C   UNL     1       1.634   4.413  21.188  0.00  0.00    +0.000 C 
ATOM     23  C   UNL     1       2.220   3.288  22.045  0.00  0.00    +0.000 C 
ATOM     24  C   UNL     1       3.053   2.319  21.205  0.00  0.00    +0.000 C 
ATOM     25  C   UNL     1       2.271   1.823  19.992  0.00  0.00    +0.000 C 
ENDBRANCH  17  19
ENDBRANCH  16  17
ENDBRANCH   1  16
TORSDOF 4
ENDMDL
MODEL 2
REMARK VINA RESULT:      -7.8      1.739      2.342
REMARK  Name = 
REMARK  4 active torsions:
REMARK  status: ('A' for Active; 'I' for Inactive)
REMARK    1  A    between atoms: C_2  and  C_3
REMARK    2  A    between atoms: C_3  and  S_4
REMARK    3  A    between atoms: S_4  and  C_5
REMARK    4  A    between atoms: C_11  and  C_12
REMARK                            x       y       z     vdW  Elec       q    Type
REMARK                         _______ _______ _______ _____ _____    ______ ____
ROOT
ATOM      1  C   UNL     1       4.809   3.106  18.017  0.00  0.00    +0.000 A 
ATOM      2  C   UNL     1       4.952   3.867  19.286  0.00  0.00    +0.000 A 
ATOM      3  C   UNL     1       5.690   4.983  19.244  0.00  0.00    +0.000 A 
ATOM      4  C   UNL     1       6.284   5.366  18.024  0.00  0.00    +0.000 A 
ATOM      5  N   UNL     1       7.089   6.353  17.706  0.00  0.00    +0.000 NA
ATOM      6  N   UNL     1       7.363   6.249  16.363  0.00  0.00    +0.000 NA
ATOM      7  C   UNL     1       6.692   5.219  15.869  0.00  0.00    +0.000 A 
ATOM      8  N   UNL     1       6.015   4.599  16.905  0.00  0.00    +0.000 N 
ATOM      9  N   UNL     1       5.261   3.449  16.855  0.00  0.00    +0.000 NA
ENDROOT
BRANCH   7  10
ATOM     10  C   UNL     1       6.687   4.796  14.468  0.00  0.00    +0.000 A 
ATOM     11  C   UNL     1       5.721   3.882  14.024  0.00  0.00    +0.000 A 
ATOM     12  C   UNL     1       5.715   3.439  12.702  0.00  0.00    +0.000 A 
ATOM     13  C   UNL     1       6.681   3.894  11.806  0.00  0.00    +0.000 A 
ATOM     14  C   UNL     1       7.652   4.796  12.235  0.00  0.00    +0.000 A 
ATOM     15  C   UNL     1       7.655   5.243  13.557  0.00  0.00    +0.000 A 
ENDBRANCH   7  10
BRANCH   1  16
ATOM     16  S   UNL     1       3.890   1.628  18.200  0.00  0.00    +0.000 S 
BRANCH  16  17
ATOM     17  C   UNL     1       2.191   2.266  18.063  0.00  0.00    +0.000 C 
BRANCH  17  19
ATOM     18  O   UNL     1       1.549   2.422  20.394  0.00  0.00    +0.000 OA
ATOM     19  C   UNL     1       1.695   2.997  19.312  0.00  0.00    +0.000 C 
ATOM     20  N   UNL     1       1.429   4.361  19.174  0.00  0.00    +0.000 N 
ATOM     21  C   UNL     1       1.630   5.166  17.967  0.00  0.00    +0.000 C 
ATOM     22  C   UNL     1       2.630   6.291  18.237  0.00  0.00    +0.000 C 
ATOM     23  C   UNL     1       2.237   7.118  19.464  0.00  0.00    +0.000 C 
ATOM     24  C   UNL     1       1.962   6.226  20.676  0.00  0.00    +0.000 C 
ATOM     25  C   UNL     1       0.968   5.119  20.336  0.00  0.00    +0.000 C 
ENDBRANCH  17  19
ENDBRANCH  16  17
ENDBRANCH   1  16
TORSDOF 4
ENDMDL
MODEL 3
REMARK VINA RESULT:      -7.7      3.436      4.327
REMARK  Name = 
REMARK  4 active torsions:
REMARK  status: ('A' for Active; 'I' for Inactive)
REMARK    1  A    between atoms: C_2  and  C_3
REMARK    2  A    between atoms: C_3  and  S_4
REMARK    3  A    between atoms: S_4  and  C_5
REMARK    4  A    between atoms: C_11  and  C_12
REMARK                            x       y       z     vdW  Elec       q    Type
REMARK                         _______ _______ _______ _____ _____    ______ ____
ROOT
ATOM      1  C   UNL     1       4.070   5.501  17.928  0.00  0.00    +0.000 A 
ATOM      2  C   UNL     1       4.612   5.599  19.309  0.00  0.00    +0.000 A 
ATOM      3  C   UNL     1       5.905   5.295  19.475  0.00  0.00    +0.000 A 
ATOM      4  C   UNL     1       6.666   4.901  18.357  0.00  0.00    +0.000 A 
ATOM      5  N   UNL     1       7.909   4.497  18.232  0.00  0.00    +0.000 NA
ATOM      6  N   UNL     1       8.130   4.236  16.900  0.00  0.00    +0.000 NA
ATOM      7  C   UNL     1       7.028   4.520  16.221  0.00  0.00    +0.000 A 
ATOM      8  N   UNL     1       6.050   4.915  17.118  0.00  0.00    +0.000 N 
ATOM      9  N   UNL     1       4.735   5.223  16.854  0.00  0.00    +0.000 NA
ENDROOT
BRANCH   7  10
ATOM     10  C   UNL     1       6.868   4.412  14.771  0.00  0.00    +0.000 A 
ATOM     11  C   UNL     1       7.681   5.180  13.926  0.00  0.00    +0.000 A 
ATOM     12  C   UNL     1       7.526   5.120  12.541  0.00  0.00    +0.000 A 
ATOM     13  C   UNL     1       6.550   4.299  11.980  0.00  0.00    +0.000 A 
ATOM     14  C   UNL     1       5.729   3.536  12.808  0.00  0.00    +0.000 A 
ATOM     15  C   UNL     1       5.887   3.593  14.194  0.00  0.00    +0.000 A 
ENDBRANCH   7  10
BRANCH   1  16
ATOM     16  S   UNL     1       2.357   5.844  17.835  0.00  0.00    +0.000 S 
BRANCH  16  17
ATOM     17  C   UNL     1       2.215   7.192  19.050  0.00  0.00    +0.000 C 
BRANCH  17  19
ATOM     18  O   UNL     1       2.238   8.812  17.250  0.00  0.00    +0.000 OA
ATOM     19  C   UNL     1       1.976   8.570  18.432  0.00  0.00    +0.000 C 
ATOM     20  N   UNL     1       1.425   9.544  19.267  0.00  0.00    +0.000 N 
ATOM     21  C   UNL     1       1.008   9.358  20.658  0.00  0.00    +0.000 C 
ATOM     22  C   UNL     1      -0.486   9.647  20.810  0.00  0.00    +0.000 C 
ATOM     23  C   UNL     1      -0.859  11.018  20.239  0.00  0.00    +0.000 C 
ATOM     24  C   UNL     1      -0.334  11.193  18.813  0.00  0.00    +0.000 C 
ATOM     25  C   UNL     1       1.157  10.877  18.729  0.00  0.00    +0.000 C 
ENDBRANCH  17  19
ENDBRANCH  16  17
ENDBRANCH   1  16
TORSDOF 4
ENDMDL
MODEL 4
REMARK VINA RESULT:      -7.6      4.630      5.940
REMARK  Name = 
REMARK  4 active torsions:
REMARK  status: ('A' for Active; 'I' for Inactive)
REMARK    1  A    between atoms: C_2  and  C_3
REMARK    2  A    between atoms: C_3  and  S_4
REMARK    3  A    between atoms: S_4  and  C_5
REMARK    4  A    between atoms: C_11  and  C_12
REMARK                            x       y       z     vdW  Elec       q    Type
REMARK                         _______ _______ _______ _____ _____    ______ ____
ROOT
ATOM      1  C   UNL     1       2.341   6.283  19.737  0.00  0.00    +0.000 A 
ATOM      2  C   UNL     1       1.537   5.520  20.727  0.00  0.00    +0.000 A 
ATOM      3  C   UNL     1       1.711   4.192  20.754  0.00  0.00    +0.000 A 
ATOM      4  C   UNL     1       2.623   3.602  19.857  0.00  0.00    +0.000 A 
ATOM      5  N   UNL     1       2.946   2.351  19.620  0.00  0.00    +0.000 NA
ATOM      6  N   UNL     1       3.897   2.348  18.629  0.00  0.00    +0.000 NA
ATOM      7  C   UNL     1       4.173   3.601  18.297  0.00  0.00    +0.000 A 
ATOM      8  N   UNL     1       3.352   4.440  19.031  0.00  0.00    +0.000 N 
ATOM      9  N   UNL     1       3.248   5.809  18.946  0.00  0.00    +0.000 NA
ENDROOT
BRANCH   7  10
ATOM     10  C   UNL     1       5.160   4.023  17.304  0.00  0.00    +0.000 A 
ATOM     11  C   UNL     1       4.845   3.950  15.939  0.00  0.00    +0.000 A 
ATOM     12  C   UNL     1       5.781   4.316  14.972  0.00  0.00    +0.000 A 
ATOM     13  C   UNL     1       7.050   4.750  15.353  0.00  0.00    +0.000 A 
ATOM     14  C   UNL     1       7.380   4.820  16.704  0.00  0.00    +0.000 A 
ATOM     15  C   UNL     1       6.441   4.458  17.673  0.00  0.00    +0.000 A 
ENDBRANCH   7  10
BRANCH   1  16
ATOM     16  S   UNL     1       1.982   7.996  19.733  0.00  0.00    +0.000 S 
BRANCH  16  17
ATOM     17  C   UNL     1       0.844   8.107  21.150  0.00  0.00    +0.000 C 
BRANCH  17  19
ATOM     18  O   UNL     1       1.371   9.783  22.817  0.00  0.00    +0.000 OA
ATOM     19  C   UNL     1       0.764   9.498  21.781  0.00  0.00    +0.000 C 
ATOM     20  N   UNL     1      -0.019  10.443  21.116  0.00  0.00    +0.000 N 
ATOM     21  C   UNL     1      -0.726  10.245  19.849  0.00  0.00    +0.000 C 
ATOM     22  C   UNL     1      -0.216  11.229  18.795  0.00  0.00    +0.000 C 
ATOM     23  C   UNL     1      -0.259  12.674  19.300  0.00  0.00    +0.000 C 
ATOM     24  C   UNL     1       0.423  12.812  20.662  0.00  0.00    +0.000 C 
ATOM     25  C   UNL     1      -0.122  11.795  21.661  0.00  0.00    +0.000 C 
ENDBRANCH  17  19
ENDBRANCH  16  17
ENDBRANCH   1  16
TORSDOF 4
ENDMDL
MODEL 5
REMARK VINA RESULT:      -7.6      4.831      6.072
REMARK  Name = 
REMARK  4 active torsions:
REMARK  status: ('A' for Active; 'I' for Inactive)
REMARK    1  A    between atoms: C_2  and  C_3
REMARK    2  A    between atoms: C_3  and  S_4
REMARK    3  A    between atoms: S_4  and  C_5
REMARK    4  A    between atoms: C_11  and  C_12
REMARK                            x       y       z     vdW  Elec       q    Type
REMARK                         _______ _______ _______ _____ _____    ______ ____
ROOT
ATOM      1  C   UNL     1       2.391   6.819  19.464  0.00  0.00    +0.000 A 
ATOM      2  C   UNL     1       1.679   6.244  20.635  0.00  0.00    +0.000 A 
ATOM      3  C   UNL     1       1.942   4.966  20.937  0.00  0.00    +0.000 A 
ATOM      4  C   UNL     1       2.857   4.248  20.142  0.00  0.00    +0.000 A 
ATOM      5  N   UNL     1       3.255   2.997  20.164  0.00  0.00    +0.000 NA
ATOM      6  N   UNL     1       4.167   2.833  19.148  0.00  0.00    +0.000 NA
ATOM      7  C   UNL     1       4.344   3.998  18.541  0.00  0.00    +0.000 A 
ATOM      8  N   UNL     1       3.497   4.927  19.120  0.00  0.00    +0.000 N 
ATOM      9  N   UNL     1       3.298   6.236  18.748  0.00  0.00    +0.000 NA
ENDROOT
BRANCH   7  10
ATOM     10  C   UNL     1       5.264   4.250  17.432  0.00  0.00    +0.000 A 
ATOM     11  C   UNL     1       4.809   4.118  16.112  0.00  0.00    +0.000 A 
ATOM     12  C   UNL     1       5.674   4.321  15.037  0.00  0.00    +0.000 A 
ATOM     13  C   UNL     1       7.009   4.649  15.264  0.00  0.00    +0.000 A 
ATOM     14  C   UNL     1       7.477   4.776  16.570  0.00  0.00    +0.000 A 
ATOM     15  C   UNL     1       6.610   4.577  17.647  0.00  0.00    +0.000 A 
ENDBRANCH   7  10
BRANCH   1  16
ATOM     16  S   UNL     1       1.918   8.466  19.111  0.00  0.00    +0.000 S 
BRANCH  16  17
ATOM     17  C   UNL     1       1.027   8.897  20.639  0.00  0.00    +0.000 C 
BRANCH  17  19
ATOM     18  O   UNL     1       1.313  11.185  21.382  0.00  0.00    +0.000 OA
ATOM     19  C   UNL     1       0.639  10.373  20.742  0.00  0.00    +0.000 C 
ATOM     20  N   UNL     1      -0.513  10.767  20.057  0.00  0.00    +0.000 N 
ATOM     21  C   UNL     1      -1.352   9.915  19.211  0.00  0.00    +0.000 C 
ATOM     22  C   UNL     1      -1.386  10.455  17.781  0.00  0.00    +0.000 C 
ATOM     23  C   UNL     1      -1.782  11.934  17.742  0.00  0.00    +0.000 C 
ATOM     24  C   UNL     1      -0.929  12.767  18.700  0.00  0.00    +0.000 C 
ATOM     25  C   UNL     1      -0.927  12.168  20.104  0.00  0.00    +0.000 C 
ENDBRANCH  17  19
ENDBRANCH  16  17
ENDBRANCH   1  16
TORSDOF 4
ENDMDL
MODEL 6
REMARK VINA RESULT:      -7.4      5.063      6.209
REMARK  Name = 
REMARK  4 active torsions:
REMARK  status: ('A' for Active; 'I' for Inactive)
REMARK    1  A    between atoms: C_2  and  C_3
REMARK    2  A    between atoms: C_3  and  S_4
REMARK    3  A    between atoms: S_4  and  C_5
REMARK    4  A    between atoms: C_11  and  C_12
REMARK                            x       y       z     vdW  Elec       q    Type
REMARK                         _______ _______ _______ _____ _____    ______ ____
ROOT
ATOM      1  C   UNL     1       2.385   7.214  19.111  0.00  0.00    +0.000 A 
ATOM      2  C   UNL     1       1.648   6.816  20.339  0.00  0.00    +0.000 A 
ATOM      3  C   UNL     1       1.869   5.580  20.805  0.00  0.00    +0.000 A 
ATOM      4  C   UNL     1       2.766   4.739  20.117  0.00  0.00    +0.000 A 
ATOM      5  N   UNL     1       3.123   3.489  20.303  0.00  0.00    +0.000 NA
ATOM      6  N   UNL     1       4.036   3.168  19.326  0.00  0.00    +0.000 NA
ATOM      7  C   UNL     1       4.253   4.239  18.577  0.00  0.00    +0.000 A 
ATOM      8  N   UNL     1       3.432   5.260  19.023  0.00  0.00    +0.000 N 
ATOM      9  N   UNL     1       3.277   6.517  18.484  0.00  0.00    +0.000 NA
ENDROOT
BRANCH   7  10
ATOM     10  C   UNL     1       5.186   4.318  17.453  0.00  0.00    +0.000 A 
ATOM     11  C   UNL     1       6.535   4.615  17.693  0.00  0.00    +0.000 A 
ATOM     12  C   UNL     1       7.439   4.729  16.637  0.00  0.00    +0.000 A 
ATOM     13  C   UNL     1       7.006   4.557  15.323  0.00  0.00    +0.000 A 
ATOM     14  C   UNL     1       5.667   4.269  15.068  0.00  0.00    +0.000 A 
ATOM     15  C   UNL     1       4.763   4.152  16.126  0.00  0.00    +0.000 A 
ENDBRANCH   7  10
BRANCH   1  16
ATOM     16  S   UNL     1       1.966   8.816  18.545  0.00  0.00    +0.000 S 
BRANCH  16  17
ATOM     17  C   UNL     1       0.795   9.336  19.837  0.00  0.00    +0.000 C 
BRANCH  17  19
ATOM     18  O   UNL     1      -0.724  10.395  18.276  0.00  0.00    +0.000 OA
ATOM     19  C   UNL     1      -0.192  10.415  19.390  0.00  0.00    +0.000 C 
ATOM     20  N   UNL     1      -0.481  11.421  20.313  0.00  0.00    +0.000 N 
ATOM     21  C   UNL     1       0.029  11.513  21.683  0.00  0.00    +0.000 C 
ATOM     22  C   UNL     1      -1.127  11.485  22.685  0.00  0.00    +0.000 C 
ATOM     23  C   UNL     1      -2.187  12.539  22.356  0.00  0.00    +0.000 C 
ATOM     24  C   UNL     1      -2.629  12.452  20.895  0.00  0.00    +0.000 C 
ATOM     25  C   UNL     1      -1.430  12.472  19.950  0.00  0.00    +0.000 C 
ENDBRANCH  17  19
ENDBRANCH  16  17
ENDBRANCH   1  16
TORSDOF 4
ENDMDL
MODEL 7
REMARK VINA RESULT:      -7.4      4.220      8.086
REMARK  Name = 
REMARK  4 active torsions:
REMARK  status: ('A' for Active; 'I' for Inactive)
REMARK    1  A    between atoms: C_2  and  C_3
REMARK    2  A    between atoms: C_3  and  S_4
REMARK    3  A    between atoms: S_4  and  C_5
REMARK    4  A    between atoms: C_11  and  C_12
REMARK                            x       y       z     vdW  Elec       q    Type
REMARK                         _______ _______ _______ _____ _____    ______ ____
ROOT
ATOM      1  C   UNL     1       2.526   6.515  19.413  0.00  0.00    +0.000 A 
ATOM      2  C   UNL     1       3.236   6.645  18.114  0.00  0.00    +0.000 A 
ATOM      3  C   UNL     1       3.104   7.810  17.466  0.00  0.00    +0.000 A 
ATOM      4  C   UNL     1       2.312   8.826  18.037  0.00  0.00    +0.000 A 
ATOM      5  N   UNL     1       1.963  10.018  17.611  0.00  0.00    +0.000 NA
ATOM      6  N   UNL     1       1.170  10.589  18.578  0.00  0.00    +0.000 NA
ATOM      7  C   UNL     1       1.075   9.752  19.601  0.00  0.00    +0.000 A 
ATOM      8  N   UNL     1       1.760   8.592  19.284  0.00  0.00    +0.000 N 
ATOM      9  N   UNL     1       1.853   7.436  20.023  0.00  0.00    +0.000 NA
ENDROOT
BRANCH   7  10
ATOM     10  C   UNL     1       0.348  10.005  20.845  0.00  0.00    +0.000 A 
ATOM     11  C   UNL     1      -0.528  11.098  20.925  0.00  0.00    +0.000 A 
ATOM     12  C   UNL     1      -1.208  11.379  22.110  0.00  0.00    +0.000 A 
ATOM     13  C   UNL     1      -1.016  10.581  23.235  0.00  0.00    +0.000 A 
ATOM     14  C   UNL     1      -0.143   9.497  23.173  0.00  0.00    +0.000 A 
ATOM     15  C   UNL     1       0.535   9.212  21.986  0.00  0.00    +0.000 A 
ENDBRANCH   7  10
BRANCH   1  16
ATOM     16  S   UNL     1       2.701   4.931  20.137  0.00  0.00    +0.000 S 
BRANCH  16  17
ATOM     17  C   UNL     1       4.370   4.481  19.566  0.00  0.00    +0.000 C 
BRANCH  17  19
ATOM     18  O   UNL     1       3.466   3.096  17.796  0.00  0.00    +0.000 OA
ATOM     19  C   UNL     1       4.400   3.796  18.199  0.00  0.00    +0.000 C 
ATOM     20  N   UNL     1       5.533   4.015  17.413  0.00  0.00    +0.000 N 
ATOM     21  C   UNL     1       6.668   4.877  17.751  0.00  0.00    +0.000 C 
ATOM     22  C   UNL     1       6.819   5.990  16.712  0.00  0.00    +0.000 C 
ATOM     23  C   UNL     1       6.878   5.431  15.287  0.00  0.00    +0.000 C 
ATOM     24  C   UNL     1       5.716   4.477  15.011  0.00  0.00    +0.000 C 
ATOM     25  C   UNL     1       5.613   3.401  16.089  0.00  0.00    +0.000 C 
ENDBRANCH  17  19
ENDBRANCH  16  17
ENDBRANCH   1  16
TORSDOF 4
ENDMDL
MODEL 8
REMARK VINA RESULT:      -7.4      5.016      6.008
REMARK  Name = 
REMARK  4 active torsions:
REMARK  status: ('A' for Active; 'I' for Inactive)
REMARK    1  A    between atoms: C_2  and  C_3
REMARK    2  A    between atoms: C_3  and  S_4
REMARK    3  A    between atoms: S_4  and  C_5
REMARK    4  A    between atoms: C_11  and  C_12
REMARK                            x       y       z     vdW  Elec       q    Type
REMARK                         _______ _______ _______ _____ _____    ______ ____
ROOT
ATOM      1  C   UNL     1       2.477   7.292  18.826  0.00  0.00    +0.000 A 
ATOM      2  C   UNL     1       1.803   6.873  20.083  0.00  0.00    +0.000 A 
ATOM      3  C   UNL     1       2.076   5.642  20.536  0.00  0.00    +0.000 A 
ATOM      4  C   UNL     1       2.964   4.825  19.809  0.00  0.00    +0.000 A 
ATOM      5  N   UNL     1       3.361   3.585  19.975  0.00  0.00    +0.000 NA
ATOM      6  N   UNL     1       4.239   3.290  18.960  0.00  0.00    +0.000 NA
ATOM      7  C   UNL     1       4.397   4.367  18.205  0.00  0.00    +0.000 A 
ATOM      8  N   UNL     1       3.570   5.366  18.689  0.00  0.00    +0.000 N 
ATOM      9  N   UNL     1       3.359   6.619  18.161  0.00  0.00    +0.000 NA
ENDROOT
BRANCH   7  10
ATOM     10  C   UNL     1       5.280   4.473  17.043  0.00  0.00    +0.000 A 
ATOM     11  C   UNL     1       4.771   4.215  15.762  0.00  0.00    +0.000 A 
ATOM     12  C   UNL     1       5.599   4.278  14.642  0.00  0.00    +0.000 A 
ATOM     13  C   UNL     1       6.950   4.587  14.785  0.00  0.00    +0.000 A 
ATOM     14  C   UNL     1       7.472   4.838  16.053  0.00  0.00    +0.000 A 
ATOM     15  C   UNL     1       6.642   4.780  17.174  0.00  0.00    +0.000 A 
ENDBRANCH   7  10
BRANCH   1  16
ATOM     16  S   UNL     1       1.994   8.883  18.283  0.00  0.00    +0.000 S 
BRANCH  16  17
ATOM     17  C   UNL     1       0.938   9.408  19.670  0.00  0.00    +0.000 C 
BRANCH  17  19
ATOM     18  O   UNL     1      -0.499  10.690  18.201  0.00  0.00    +0.000 OA
ATOM     19  C   UNL     1      -0.020  10.550  19.330  0.00  0.00    +0.000 C 
ATOM     20  N   UNL     1      -0.346  11.425  20.369  0.00  0.00    +0.000 N 
ATOM     21  C   UNL     1       0.100  11.322  21.760  0.00  0.00    +0.000 C 
ATOM     22  C   UNL     1      -1.102  11.173  22.694  0.00  0.00    +0.000 C 
ATOM     23  C   UNL     1      -2.139  12.276  22.465  0.00  0.00    +0.000 C 
ATOM     24  C   UNL     1      -2.512  12.395  20.987  0.00  0.00    +0.000 C 
ATOM     25  C   UNL     1      -1.270  12.528  20.110  0.00  0.00    +0.000 C 
ENDBRANCH  17  19
ENDBRANCH  16  17
ENDBRANCH   1  16
TORSDOF 4
ENDMDL
MODEL 9
REMARK VINA RESULT:      -7.4      4.480      5.917
REMARK  Name = 
REMARK  4 active torsions:
REMARK  status: ('A' for Active; 'I' for Inactive)
REMARK    1  A    between atoms: C_2  and  C_3
REMARK    2  A    between atoms: C_3  and  S_4
REMARK    3  A    between atoms: S_4  and  C_5
REMARK    4  A    between atoms: C_11  and  C_12
REMARK                            x       y       z     vdW  Elec       q    Type
REMARK                         _______ _______ _______ _____ _____    ______ ____
ROOT
ATOM      1  C   UNL     1       2.188   6.113  19.776  0.00  0.00    +0.000 A 
ATOM      2  C   UNL     1       1.210   5.256  20.495  0.00  0.00    +0.000 A 
ATOM      3  C   UNL     1       1.250   3.942  20.236  0.00  0.00    +0.000 A 
ATOM      4  C   UNL     1       2.195   3.455  19.312  0.00  0.00    +0.000 A 
ATOM      5  N   UNL     1       2.420   2.255  18.828  0.00  0.00    +0.000 NA
ATOM      6  N   UNL     1       3.471   2.352  17.948  0.00  0.00    +0.000 NA
ATOM      7  C   UNL     1       3.902   3.605  17.933  0.00  0.00    +0.000 A 
ATOM      8  N   UNL     1       3.089   4.357  18.763  0.00  0.00    +0.000 N 
ATOM      9  N   UNL     1       3.128   5.715  18.980  0.00  0.00    +0.000 NA
ENDROOT
BRANCH   7  10
ATOM     10  C   UNL     1       5.030   4.110  17.151  0.00  0.00    +0.000 A 
ATOM     11  C   UNL     1       4.891   4.282  15.766  0.00  0.00    +0.000 A 
ATOM     12  C   UNL     1       5.961   4.731  14.993  0.00  0.00    +0.000 A 
ATOM     13  C   UNL     1       7.190   5.005  15.591  0.00  0.00    +0.000 A 
ATOM     14  C   UNL     1       7.346   4.831  16.964  0.00  0.00    +0.000 A 
ATOM     15  C   UNL     1       6.273   4.385  17.738  0.00  0.00    +0.000 A 
ENDBRANCH   7  10
BRANCH   1  16
ATOM     16  S   UNL     1       2.000   7.817  20.128  0.00  0.00    +0.000 S 
BRANCH  16  17
ATOM     17  C   UNL     1       1.622   8.465  18.470  0.00  0.00    +0.000 C 
BRANCH  17  19
ATOM     18  O   UNL     1       2.517  10.644  17.906  0.00  0.00    +0.000 OA
ATOM     19  C   UNL     1       1.586   9.992  18.388  0.00  0.00    +0.000 C 
ATOM     20  N   UNL     1       0.435  10.618  18.870  0.00  0.00    +0.000 N 
ATOM     21  C   UNL     1      -0.758   9.952  19.397  0.00  0.00    +0.000 C 
ATOM     22  C   UNL     1      -1.984  10.312  18.556  0.00  0.00    +0.000 C 
ATOM     23  C   UNL     1      -2.146  11.827  18.409  0.00  0.00    +0.000 C 
ATOM     24  C   UNL     1      -0.850  12.485  17.932  0.00  0.00    +0.000 C 
ATOM     25  C   UNL     1       0.334  12.075  18.804  0.00  0.00    +0.000 C 
ENDBRANCH  17  19
ENDBRANCH  16  17
ENDBRANCH   1  16
TORSDOF 4
ENDMDL
