MODEL 1
REMARK VINA RESULT:      -7.2      0.000      0.000
REMARK  Name = 
REMARK  11 active torsions:
REMARK  status: ('A' for Active; 'I' for Inactive)
REMARK    1  A    between atoms: C_1  and  N_2
REMARK    2  A    between atoms: N_2  and  C_3
REMARK    3  A    between atoms: N_2  and  C_4
REMARK    4  A    between atoms: C_7  and  C_8
REMARK    5  A    between atoms: C_8  and  O_10
REMARK    6  A    between atoms: O_10  and  C_11
REMARK    7  A    between atoms: C_11  and  C_12
REMARK    8  A    between atoms: N_14  and  C_15
REMARK    9  A    between atoms: C_15  and  C_16
REMARK   10  A    between atoms: C_16  and  C_17
REMARK   11  A    between atoms: C_17  and  C_18
REMARK                            x       y       z     vdW  Elec       q    Type
REMARK                         _______ _______ _______ _____ _____    ______ ____
ROOT
ATOM      1  C   UNL     1       7.420   5.223  18.675  0.00  0.00    +0.000 C 
ENDROOT
BRANCH   1   2
ATOM      2  C   UNL     1       6.037   4.782  19.159  0.00  0.00    +0.000 C 
ATOM      3  O   UNL     1       5.270   5.543  19.742  0.00  0.00    +0.000 OA
ATOM      4  N   UNL     1       5.703   3.486  18.819  0.00  0.00    +0.000 N 
ATOM      5  H   UNL     1       6.381   2.932  18.307  0.00  0.00    +0.000 HD
BRANCH   4   6
ATOM      6  C   UNL     1       4.445   2.888  19.212  0.00  0.00    +0.000 C 
BRANCH   6   7
ATOM      7  C   UNL     1       3.398   2.953  18.101  0.00  0.00    +0.000 C 
BRANCH   7   8
ATOM      8  C   UNL     1       2.054   3.443  18.649  0.00  0.00    +0.000 C 
BRANCH   8   9
ATOM      9  C   UNL     1       2.069   4.911  18.994  0.00  0.00    +0.000 A 
ATOM     10  C   UNL     1       1.723   5.342  20.282  0.00  0.00    +0.000 A 
ATOM     11  C   UNL     1       1.728   6.702  20.601  0.00  0.00    +0.000 A 
ATOM     12  C   UNL     1       2.078   7.644  19.637  0.00  0.00    +0.000 A 
ATOM     13  C   UNL     1       2.426   7.227  18.353  0.00  0.00    +0.000 A 
ATOM     14  C   UNL     1       2.420   5.868  18.031  0.00  0.00    +0.000 A 
ENDBRANCH   8   9
ENDBRANCH   7   8
ENDBRANCH   6   7
ENDBRANCH   4   6
ENDBRANCH   1   2
BRANCH   1  15
ATOM     15  O   UNL     1       7.741   4.761  17.359  0.00  0.00    +0.000 OA
BRANCH  15  16
ATOM     16  C   UNL     1       7.411   5.636  16.375  0.00  0.00    +0.000 C 
ATOM     17  O   UNL     1       7.542   6.849  16.425  0.00  0.00    +0.000 OA
BRANCH  16  21
ATOM     18  C   UNL     1       5.736   3.522  12.974  0.00  0.00    +0.000 A 
ATOM     19  C   UNL     1       5.138   3.515  14.245  0.00  0.00    +0.000 A 
ATOM     20  C   UNL     1       5.694   4.197  15.335  0.00  0.00    +0.000 A 
ATOM     21  C   UNL     1       6.872   4.928  15.186  0.00  0.00    +0.000 A 
ATOM     22  C   UNL     1       7.484   4.969  13.933  0.00  0.00    +0.000 A 
ATOM     23  C   UNL     1       6.917   4.276  12.851  0.00  0.00    +0.000 A 
BRANCH  18  25
ATOM     24  C   UNL     1       5.903   1.733  11.267  0.00  0.00    +0.000 C 
ATOM     25  N   UNL     1       5.184   2.837  11.893  0.00  0.00    +0.000 N 
ATOM     26  C   UNL     1       4.070   3.415  11.151  0.00  0.00    +0.000 C 
ENDBRANCH  18  25
ENDBRANCH  16  21
ENDBRANCH  15  16
ENDBRANCH   1  15
TORSDOF 9
ENDMDL
MODEL 2
REMARK VINA RESULT:      -6.8      3.227      7.345
REMARK  Name = 
REMARK  11 active torsions:
REMARK  status: ('A' for Active; 'I' for Inactive)
REMARK    1  A    between atoms: C_1  and  N_2
REMARK    2  A    between atoms: N_2  and  C_3
REMARK    3  A    between atoms: N_2  and  C_4
REMARK    4  A    between atoms: C_7  and  C_8
REMARK    5  A    between atoms: C_8  and  O_10
REMARK    6  A    between atoms: O_10  and  C_11
REMARK    7  A    between atoms: C_11  and  C_12
REMARK    8  A    between atoms: N_14  and  C_15
REMARK    9  A    between atoms: C_15  and  C_16
REMARK   10  A    between atoms: C_16  and  C_17
REMARK   11  A    between atoms: C_17  and  C_18
REMARK                            x       y       z     vdW  Elec       q    Type
REMARK                         _______ _______ _______ _____ _____    ______ ____
ROOT
ATOM      1  C   UNL     1       1.352   3.577  19.730  0.00  0.00    +0.000 C 
ENDROOT
BRANCH   1   2
ATOM      2  C   UNL     1       1.730   3.641  18.248  0.00  0.00    +0.000 C 
ATOM      3  O   UNL     1       0.967   4.080  17.392  0.00  0.00    +0.000 OA
ATOM      4  N   UNL     1       3.021   3.233  17.973  0.00  0.00    +0.000 N 
ATOM      5  H   UNL     1       3.599   2.914  18.744  0.00  0.00    +0.000 HD
BRANCH   4   6
ATOM      6  C   UNL     1       3.547   3.202  16.626  0.00  0.00    +0.000 C 
BRANCH   6   7
ATOM      7  C   UNL     1       4.829   4.022  16.483  0.00  0.00    +0.000 C 
BRANCH   7   8
ATOM      8  C   UNL     1       4.633   5.436  17.036  0.00  0.00    +0.000 C 
BRANCH   8   9
ATOM      9  C   UNL     1       5.903   6.016  17.610  0.00  0.00    +0.000 A 
ATOM     10  C   UNL     1       6.436   7.206  17.096  0.00  0.00    +0.000 A 
ATOM     11  C   UNL     1       7.616   7.740  17.620  0.00  0.00    +0.000 A 
ATOM     12  C   UNL     1       8.274   7.090  18.661  0.00  0.00    +0.000 A 
ATOM     13  C   UNL     1       7.753   5.906  19.181  0.00  0.00    +0.000 A 
ATOM     14  C   UNL     1       6.574   5.370  18.657  0.00  0.00    +0.000 A 
ENDBRANCH   8   9
ENDBRANCH   7   8
ENDBRANCH   6   7
ENDBRANCH   4   6
ENDBRANCH   1   2
BRANCH   1  15
ATOM     15  O   UNL     1       1.211   4.864  20.341  0.00  0.00    +0.000 OA
BRANCH  15  16
ATOM     16  C   UNL     1       2.310   5.651  20.222  0.00  0.00    +0.000 C 
ATOM     17  O   UNL     1       3.469   5.277  20.312  0.00  0.00    +0.000 OA
BRANCH  16  21
ATOM     18  C   UNL     1       1.261   9.756  19.277  0.00  0.00    +0.000 A 
ATOM     19  C   UNL     1       1.878   8.895  18.354  0.00  0.00    +0.000 A 
ATOM     20  C   UNL     1       2.217   7.575  18.676  0.00  0.00    +0.000 A 
ATOM     21  C   UNL     1       1.934   7.060  19.941  0.00  0.00    +0.000 A 
ATOM     22  C   UNL     1       1.308   7.883  20.877  0.00  0.00    +0.000 A 
ATOM     23  C   UNL     1       0.979   9.206  20.541  0.00  0.00    +0.000 A 
BRANCH  18  25
ATOM     24  C   UNL     1      -0.460  11.462  18.761  0.00  0.00    +0.000 C 
ATOM     25  N   UNL     1       0.932  11.071  18.956  0.00  0.00    +0.000 N 
ATOM     26  C   UNL     1       1.957  11.986  18.468  0.00  0.00    +0.000 C 
ENDBRANCH  18  25
ENDBRANCH  16  21
ENDBRANCH  15  16
ENDBRANCH   1  15
TORSDOF 9
ENDMDL
MODEL 3
REMARK VINA RESULT:      -6.7      4.591      8.428
REMARK  Name = 
REMARK  11 active torsions:
REMARK  status: ('A' for Active; 'I' for Inactive)
REMARK    1  A    between atoms: C_1  and  N_2
REMARK    2  A    between atoms: N_2  and  C_3
REMARK    3  A    between atoms: N_2  and  C_4
REMARK    4  A    between atoms: C_7  and  C_8
REMARK    5  A    between atoms: C_8  and  O_10
REMARK    6  A    between atoms: O_10  and  C_11
REMARK    7  A    between atoms: C_11  and  C_12
REMARK    8  A    between atoms: N_14  and  C_15
REMARK    9  A    between atoms: C_15  and  C_16
REMARK   10  A    between atoms: C_16  and  C_17
REMARK   11  A    between atoms: C_17  and  C_18
REMARK                            x       y       z     vdW  Elec       q    Type
REMARK                         _______ _______ _______ _____ _____    ______ ____
ROOT
ATOM      1  C   UNL     1       5.651   5.100  17.915  0.00  0.00    +0.000 C 
ENDROOT
BRANCH   1   2
ATOM      2  C   UNL     1       6.245   6.306  17.182  0.00  0.00    +0.000 C 
ATOM      3  O   UNL     1       5.876   6.643  16.061  0.00  0.00    +0.000 OA
ATOM      4  N   UNL     1       7.173   7.017  17.918  0.00  0.00    +0.000 N 
ATOM      5  H   UNL     1       7.400   6.690  18.852  0.00  0.00    +0.000 HD
BRANCH   4   6
ATOM      6  C   UNL     1       7.858   8.172  17.381  0.00  0.00    +0.000 C 
BRANCH   6   7
ATOM      7  C   UNL     1       8.503   9.026  18.473  0.00  0.00    +0.000 C 
BRANCH   7   8
ATOM      8  C   UNL     1       8.666  10.475  18.003  0.00  0.00    +0.000 C 
BRANCH   8   9
ATOM      9  C   UNL     1       9.869  11.150  18.612  0.00  0.00    +0.000 A 
ATOM     10  C   UNL     1       9.997  11.256  20.004  0.00  0.00    +0.000 A 
ATOM     11  C   UNL     1      11.106  11.888  20.569  0.00  0.00    +0.000 A 
ATOM     12  C   UNL     1      12.098  12.422  19.751  0.00  0.00    +0.000 A 
ATOM     13  C   UNL     1      11.984  12.321  18.365  0.00  0.00    +0.000 A 
ATOM     14  C   UNL     1      10.874  11.691  17.797  0.00  0.00    +0.000 A 
ENDBRANCH   8   9
ENDBRANCH   7   8
ENDBRANCH   6   7
ENDBRANCH   4   6
ENDBRANCH   1   2
BRANCH   1  15
ATOM     15  O   UNL     1       4.244   4.939  17.706  0.00  0.00    +0.000 OA
BRANCH  15  16
ATOM     16  C   UNL     1       3.519   4.913  18.853  0.00  0.00    +0.000 C 
ATOM     17  O   UNL     1       3.453   3.976  19.634  0.00  0.00    +0.000 OA
BRANCH  16  21
ATOM     18  C   UNL     1       1.463   8.703  19.355  0.00  0.00    +0.000 A 
ATOM     19  C   UNL     1       2.020   8.294  18.131  0.00  0.00    +0.000 A 
ATOM     20  C   UNL     1       2.686   7.070  17.987  0.00  0.00    +0.000 A 
ATOM     21  C   UNL     1       2.808   6.199  19.068  0.00  0.00    +0.000 A 
ATOM     22  C   UNL     1       2.252   6.566  20.294  0.00  0.00    +0.000 A 
ATOM     23  C   UNL     1       1.592   7.798  20.424  0.00  0.00    +0.000 A 
BRANCH  18  25
ATOM     24  C   UNL     1       0.707  10.566  20.803  0.00  0.00    +0.000 C 
ATOM     25  N   UNL     1       0.806   9.923  19.497  0.00  0.00    +0.000 N 
ATOM     26  C   UNL     1      -0.083  10.405  18.447  0.00  0.00    +0.000 C 
ENDBRANCH  18  25
ENDBRANCH  16  21
ENDBRANCH  15  16
ENDBRANCH   1  15
TORSDOF 9
ENDMDL
MODEL 4
REMARK VINA RESULT:      -6.7      2.325      7.347
REMARK  Name = 
REMARK  11 active torsions:
REMARK  status: ('A' for Active; 'I' for Inactive)
REMARK    1  A    between atoms: C_1  and  N_2
REMARK    2  A    between atoms: N_2  and  C_3
REMARK    3  A    between atoms: N_2  and  C_4
REMARK    4  A    between atoms: C_7  and  C_8
REMARK    5  A    between atoms: C_8  and  O_10
REMARK    6  A    between atoms: O_10  and  C_11
REMARK    7  A    between atoms: C_11  and  C_12
REMARK    8  A    between atoms: N_14  and  C_15
REMARK    9  A    between atoms: C_15  and  C_16
REMARK   10  A    between atoms: C_16  and  C_17
REMARK   11  A    between atoms: C_17  and  C_18
REMARK                            x       y       z     vdW  Elec       q    Type
REMARK                         _______ _______ _______ _____ _____    ______ ____
ROOT
ATOM      1  C   UNL     1       3.529   1.517  18.772  0.00  0.00    +0.000 C 
ENDROOT
BRANCH   1   2
ATOM      2  C   UNL     1       4.576   2.576  19.125  0.00  0.00    +0.000 C 
ATOM      3  O   UNL     1       5.091   2.647  20.238  0.00  0.00    +0.000 OA
ATOM      4  N   UNL     1       4.941   3.389  18.070  0.00  0.00    +0.000 N 
ATOM      5  H   UNL     1       4.491   3.244  17.172  0.00  0.00    +0.000 HD
BRANCH   4   6
ATOM      6  C   UNL     1       5.901   4.461  18.221  0.00  0.00    +0.000 C 
BRANCH   6   7
ATOM      7  C   UNL     1       6.993   4.420  17.153  0.00  0.00    +0.000 C 
BRANCH   7   8
ATOM      8  C   UNL     1       6.748   5.489  16.085  0.00  0.00    +0.000 C 
BRANCH   8   9
ATOM      9  C   UNL     1       6.736   4.922  14.687  0.00  0.00    +0.000 A 
ATOM     10  C   UNL     1       7.655   5.372  13.729  0.00  0.00    +0.000 A 
ATOM     11  C   UNL     1       7.641   4.854  12.432  0.00  0.00    +0.000 A 
ATOM     12  C   UNL     1       6.709   3.881  12.080  0.00  0.00    +0.000 A 
ATOM     13  C   UNL     1       5.791   3.423  13.024  0.00  0.00    +0.000 A 
ATOM     14  C   UNL     1       5.802   3.942  14.321  0.00  0.00    +0.000 A 
ENDBRANCH   8   9
ENDBRANCH   7   8
ENDBRANCH   6   7
ENDBRANCH   4   6
ENDBRANCH   1   2
BRANCH   1  15
ATOM     15  O   UNL     1       2.541   1.976  17.843  0.00  0.00    +0.000 OA
BRANCH  15  16
ATOM     16  C   UNL     1       1.404   2.428  18.430  0.00  0.00    +0.000 C 
ATOM     17  O   UNL     1       0.394   1.770  18.628  0.00  0.00    +0.000 OA
BRANCH  16  21
ATOM     18  C   UNL     1       1.817   6.617  19.489  0.00  0.00    +0.000 A 
ATOM     19  C   UNL     1       1.927   6.150  18.169  0.00  0.00    +0.000 A 
ATOM     20  C   UNL     1       1.798   4.794  17.843  0.00  0.00    +0.000 A 
ATOM     21  C   UNL     1       1.537   3.850  18.836  0.00  0.00    +0.000 A 
ATOM     22  C   UNL     1       1.406   4.281  20.156  0.00  0.00    +0.000 A 
ATOM     23  C   UNL     1       1.543   5.643  20.467  0.00  0.00    +0.000 A 
BRANCH  18  25
ATOM     24  C   UNL     1       1.552   8.461  21.123  0.00  0.00    +0.000 C 
ATOM     25  N   UNL     1       1.952   7.966  19.810  0.00  0.00    +0.000 N 
ATOM     26  C   UNL     1       2.154   8.954  18.757  0.00  0.00    +0.000 C 
ENDBRANCH  18  25
ENDBRANCH  16  21
ENDBRANCH  15  16
ENDBRANCH   1  15
TORSDOF 9
ENDMDL
MODEL 5
REMARK VINA RESULT:      -6.7      4.625      6.994
REMARK  Name = 
REMARK  11 active torsions:
REMARK  status: ('A' for Active; 'I' for Inactive)
REMARK    1  A    between atoms: C_1  and  N_2
REMARK    2  A    between atoms: N_2  and  C_3
REMARK    3  A    between atoms: N_2  and  C_4
REMARK    4  A    between atoms: C_7  and  C_8
REMARK    5  A    between atoms: C_8  and  O_10
REMARK    6  A    between atoms: O_10  and  C_11
REMARK    7  A    between atoms: C_11  and  C_12
REMARK    8  A    between atoms: N_14  and  C_15
REMARK    9  A    between atoms: C_15  and  C_16
REMARK   10  A    between atoms: C_16  and  C_17
REMARK   11  A    between atoms: C_17  and  C_18
REMARK                            x       y       z     vdW  Elec       q    Type
REMARK                         _______ _______ _______ _____ _____    ______ ____
ROOT
ATOM      1  C   UNL     1       7.822   6.244  19.210  0.00  0.00    +0.000 C 
ENDROOT
BRANCH   1   2
ATOM      2  C   UNL     1       7.234   5.192  18.267  0.00  0.00    +0.000 C 
ATOM      3  O   UNL     1       7.928   4.543  17.489  0.00  0.00    +0.000 OA
ATOM      4  N   UNL     1       5.876   4.988  18.420  0.00  0.00    +0.000 N 
ATOM      5  H   UNL     1       5.380   5.543  19.109  0.00  0.00    +0.000 HD
BRANCH   4   6
ATOM      6  C   UNL     1       5.143   4.050  17.599  0.00  0.00    +0.000 C 
BRANCH   6   7
ATOM      7  C   UNL     1       3.959   4.702  16.886  0.00  0.00    +0.000 C 
BRANCH   7   8
ATOM      8  C   UNL     1       3.104   5.502  17.873  0.00  0.00    +0.000 C 
BRANCH   8   9
ATOM      9  C   UNL     1       2.394   4.623  18.872  0.00  0.00    +0.000 A 
ATOM     10  C   UNL     1       1.520   3.616  18.437  0.00  0.00    +0.000 A 
ATOM     11  C   UNL     1       0.855   2.806  19.361  0.00  0.00    +0.000 A 
ATOM     12  C   UNL     1       1.055   2.995  20.726  0.00  0.00    +0.000 A 
ATOM     13  C   UNL     1       1.922   3.992  21.170  0.00  0.00    +0.000 A 
ATOM     14  C   UNL     1       2.586   4.804  20.249  0.00  0.00    +0.000 A 
ENDBRANCH   8   9
ENDBRANCH   7   8
ENDBRANCH   6   7
ENDBRANCH   4   6
ENDBRANCH   1   2
BRANCH   1  15
ATOM     15  O   UNL     1       8.632   7.220  18.546  0.00  0.00    +0.000 OA
BRANCH  15  16
ATOM     16  C   UNL     1       7.917   8.175  17.898  0.00  0.00    +0.000 C 
ATOM     17  O   UNL     1       6.968   7.974  17.156  0.00  0.00    +0.000 OA
BRANCH  16  21
ATOM     18  C   UNL     1       9.459  12.098  18.937  0.00  0.00    +0.000 A 
ATOM     19  C   UNL     1       9.756  10.941  19.677  0.00  0.00    +0.000 A 
ATOM     20  C   UNL     1       9.245   9.683  19.333  0.00  0.00    +0.000 A 
ATOM     21  C   UNL     1       8.423   9.534  18.217  0.00  0.00    +0.000 A 
ATOM     22  C   UNL     1       8.120  10.659  17.450  0.00  0.00    +0.000 A 
ATOM     23  C   UNL     1       8.636  11.914  17.810  0.00  0.00    +0.000 A 
BRANCH  18  25
ATOM     24  C   UNL     1      10.959  13.480  20.342  0.00  0.00    +0.000 C 
ATOM     25  N   UNL     1       9.963  13.349  19.285  0.00  0.00    +0.000 N 
ATOM     26  C   UNL     1       9.270  14.561  18.866  0.00  0.00    +0.000 C 
ENDBRANCH  18  25
ENDBRANCH  16  21
ENDBRANCH  15  16
ENDBRANCH   1  15
TORSDOF 9
ENDMDL
MODEL 6
REMARK VINA RESULT:      -6.6      2.053      7.413
REMARK  Name = 
REMARK  11 active torsions:
REMARK  status: ('A' for Active; 'I' for Inactive)
REMARK    1  A    between atoms: C_1  and  N_2
REMARK    2  A    between atoms: N_2  and  C_3
REMARK    3  A    between atoms: N_2  and  C_4
REMARK    4  A    between atoms: C_7  and  C_8
REMARK    5  A    between atoms: C_8  and  O_10
REMARK    6  A    between atoms: O_10  and  C_11
REMARK    7  A    between atoms: C_11  and  C_12
REMARK    8  A    between atoms: N_14  and  C_15
REMARK    9  A    between atoms: C_15  and  C_16
REMARK   10  A    between atoms: C_16  and  C_17
REMARK   11  A    between atoms: C_17  and  C_18
REMARK                            x       y       z     vdW  Elec       q    Type
REMARK                         _______ _______ _______ _____ _____    ______ ____
ROOT
ATOM      1  C   UNL     1       4.502   2.907  19.131  0.00  0.00    +0.000 C 
ENDROOT
BRANCH   1   2
ATOM      2  C   UNL     1       5.389   4.154  19.106  0.00  0.00    +0.000 C 
ATOM      3  O   UNL     1       5.252   5.076  19.905  0.00  0.00    +0.000 OA
ATOM      4  N   UNL     1       6.395   4.116  18.160  0.00  0.00    +0.000 N 
ATOM      5  H   UNL     1       6.460   3.302  17.558  0.00  0.00    +0.000 HD
BRANCH   4   6
ATOM      6  C   UNL     1       7.316   5.215  17.973  0.00  0.00    +0.000 C 
BRANCH   6   7
ATOM      7  C   UNL     1       7.286   5.765  16.547  0.00  0.00    +0.000 C 
BRANCH   7   8
ATOM      8  C   UNL     1       6.053   5.255  15.795  0.00  0.00    +0.000 C 
BRANCH   8   9
ATOM      9  C   UNL     1       6.379   4.778  14.402  0.00  0.00    +0.000 A 
ATOM     10  C   UNL     1       7.434   5.356  13.682  0.00  0.00    +0.000 A 
ATOM     11  C   UNL     1       7.732   4.921  12.388  0.00  0.00    +0.000 A 
ATOM     12  C   UNL     1       6.980   3.906  11.802  0.00  0.00    +0.000 A 
ATOM     13  C   UNL     1       5.930   3.323  12.509  0.00  0.00    +0.000 A 
ATOM     14  C   UNL     1       5.628   3.758  13.802  0.00  0.00    +0.000 A 
ENDBRANCH   8   9
ENDBRANCH   7   8
ENDBRANCH   6   7
ENDBRANCH   4   6
ENDBRANCH   1   2
BRANCH   1  15
ATOM     15  O   UNL     1       3.528   2.875  18.083  0.00  0.00    +0.000 OA
BRANCH  15  16
ATOM     16  C   UNL     1       2.255   3.070  18.511  0.00  0.00    +0.000 C 
ATOM     17  O   UNL     1       1.366   2.233  18.511  0.00  0.00    +0.000 OA
BRANCH  16  21
ATOM     18  C   UNL     1       1.732   7.163  19.859  0.00  0.00    +0.000 A 
ATOM     19  C   UNL     1       2.122   6.836  18.549  0.00  0.00    +0.000 A 
ATOM     20  C   UNL     1       2.293   5.510  18.131  0.00  0.00    +0.000 A 
ATOM     21  C   UNL     1       2.064   4.455  19.013  0.00  0.00    +0.000 A 
ATOM     22  C   UNL     1       1.659   4.743  20.316  0.00  0.00    +0.000 A 
ATOM     23  C   UNL     1       1.497   6.078  20.722  0.00  0.00    +0.000 A 
BRANCH  18  25
ATOM     24  C   UNL     1       1.317   8.796  21.676  0.00  0.00    +0.000 C 
ATOM     25  N   UNL     1       1.568   8.483  20.273  0.00  0.00    +0.000 N 
ATOM     26  C   UNL     1       1.294   9.530  19.297  0.00  0.00    +0.000 C 
ENDBRANCH  18  25
ENDBRANCH  16  21
ENDBRANCH  15  16
ENDBRANCH   1  15
TORSDOF 9
ENDMDL
MODEL 7
REMARK VINA RESULT:      -6.6      3.155      7.364
REMARK  Name = 
REMARK  11 active torsions:
REMARK  status: ('A' for Active; 'I' for Inactive)
REMARK    1  A    between atoms: C_1  and  N_2
REMARK    2  A    between atoms: N_2  and  C_3
REMARK    3  A    between atoms: N_2  and  C_4
REMARK    4  A    between atoms: C_7  and  C_8
REMARK    5  A    between atoms: C_8  and  O_10
REMARK    6  A    between atoms: O_10  and  C_11
REMARK    7  A    between atoms: C_11  and  C_12
REMARK    8  A    between atoms: N_14  and  C_15
REMARK    9  A    between atoms: C_15  and  C_16
REMARK   10  A    between atoms: C_16  and  C_17
REMARK   11  A    between atoms: C_17  and  C_18
REMARK                            x       y       z     vdW  Elec       q    Type
REMARK                         _______ _______ _______ _____ _____    ______ ____
ROOT
ATOM      1  C   UNL     1       2.191   4.634  21.303  0.00  0.00    +0.000 C 
ENDROOT
BRANCH   1   2
ATOM      2  C   UNL     1       2.073   3.309  20.546  0.00  0.00    +0.000 C 
ATOM      3  O   UNL     1       1.067   2.607  20.600  0.00  0.00    +0.000 OA
ATOM      4  N   UNL     1       3.159   3.014  19.746  0.00  0.00    +0.000 N 
ATOM      5  H   UNL     1       3.938   3.664  19.732  0.00  0.00    +0.000 HD
BRANCH   4   6
ATOM      6  C   UNL     1       3.236   1.793  18.974  0.00  0.00    +0.000 C 
BRANCH   6   7
ATOM      7  C   UNL     1       3.563   2.053  17.503  0.00  0.00    +0.000 C 
BRANCH   7   8
ATOM      8  C   UNL     1       3.545   3.554  17.201  0.00  0.00    +0.000 C 
BRANCH   8   9
ATOM      9  C   UNL     1       4.870   4.058  16.685  0.00  0.00    +0.000 A 
ATOM     10  C   UNL     1       5.932   4.296  17.568  0.00  0.00    +0.000 A 
ATOM     11  C   UNL     1       7.157   4.770  17.093  0.00  0.00    +0.000 A 
ATOM     12  C   UNL     1       7.333   5.012  15.733  0.00  0.00    +0.000 A 
ATOM     13  C   UNL     1       6.284   4.777  14.845  0.00  0.00    +0.000 A 
ATOM     14  C   UNL     1       5.058   4.305  15.318  0.00  0.00    +0.000 A 
ENDBRANCH   8   9
ENDBRANCH   7   8
ENDBRANCH   6   7
ENDBRANCH   4   6
ENDBRANCH   1   2
BRANCH   1  15
ATOM     15  O   UNL     1       1.617   5.746  20.607  0.00  0.00    +0.000 OA
BRANCH  15  16
ATOM     16  C   UNL     1       2.511   6.453  19.871  0.00  0.00    +0.000 C 
ATOM     17  O   UNL     1       3.611   6.060  19.514  0.00  0.00    +0.000 OA
BRANCH  16  21
ATOM     18  C   UNL     1       0.904  10.385  18.974  0.00  0.00    +0.000 A 
ATOM     19  C   UNL     1       0.777   9.778  20.236  0.00  0.00    +0.000 A 
ATOM     20  C   UNL     1       1.295   8.506  20.508  0.00  0.00    +0.000 A 
ATOM     21  C   UNL     1       1.978   7.795  19.522  0.00  0.00    +0.000 A 
ATOM     22  C   UNL     1       2.138   8.373  18.263  0.00  0.00    +0.000 A 
ATOM     23  C   UNL     1       1.608   9.648  18.004  0.00  0.00    +0.000 A 
BRANCH  18  25
ATOM     24  C   UNL     1       1.253  12.817  18.655  0.00  0.00    +0.000 C 
ATOM     25  N   UNL     1       0.382  11.648  18.705  0.00  0.00    +0.000 N 
ATOM     26  C   UNL     1      -1.052  11.888  18.816  0.00  0.00    +0.000 C 
ENDBRANCH  18  25
ENDBRANCH  16  21
ENDBRANCH  15  16
ENDBRANCH   1  15
TORSDOF 9
ENDMDL
MODEL 8
REMARK VINA RESULT:      -6.6      5.064      8.699
REMARK  Name = 
REMARK  11 active torsions:
REMARK  status: ('A' for Active; 'I' for Inactive)
REMARK    1  A    between atoms: C_1  and  N_2
REMARK    2  A    between atoms: N_2  and  C_3
REMARK    3  A    between atoms: N_2  and  C_4
REMARK    4  A    between atoms: C_7  and  C_8
REMARK    5  A    between atoms: C_8  and  O_10
REMARK    6  A    between atoms: O_10  and  C_11
REMARK    7  A    between atoms: C_11  and  C_12
REMARK    8  A    between atoms: N_14  and  C_15
REMARK    9  A    between atoms: C_15  and  C_16
REMARK   10  A    between atoms: C_16  and  C_17
REMARK   11  A    between atoms: C_17  and  C_18
REMARK                            x       y       z     vdW  Elec       q    Type
REMARK                         _______ _______ _______ _____ _____    ______ ____
ROOT
ATOM      1  C   UNL     1       2.112   8.469  17.875  0.00  0.00    +0.000 C 
ENDROOT
BRANCH   1   2
ATOM      2  C   UNL     1       2.717   7.165  18.400  0.00  0.00    +0.000 C 
ATOM      3  O   UNL     1       2.313   6.615  19.421  0.00  0.00    +0.000 OA
ATOM      4  N   UNL     1       3.698   6.627  17.590  0.00  0.00    +0.000 N 
ATOM      5  H   UNL     1       3.952   7.128  16.744  0.00  0.00    +0.000 HD
BRANCH   4   6
ATOM      6  C   UNL     1       4.399   5.411  17.936  0.00  0.00    +0.000 C 
BRANCH   6   7
ATOM      7  C   UNL     1       4.000   4.235  17.045  0.00  0.00    +0.000 C 
BRANCH   7   8
ATOM      8  C   UNL     1       4.013   2.924  17.837  0.00  0.00    +0.000 C 
BRANCH   8   9
ATOM      9  C   UNL     1       3.042   2.934  18.992  0.00  0.00    +0.000 A 
ATOM     10  C   UNL     1       1.681   3.188  18.773  0.00  0.00    +0.000 A 
ATOM     11  C   UNL     1       0.781   3.205  19.842  0.00  0.00    +0.000 A 
ATOM     12  C   UNL     1       1.232   2.970  21.138  0.00  0.00    +0.000 A 
ATOM     13  C   UNL     1       2.584   2.715  21.368  0.00  0.00    +0.000 A 
ATOM     14  C   UNL     1       3.485   2.699  20.301  0.00  0.00    +0.000 A 
ENDBRANCH   8   9
ENDBRANCH   7   8
ENDBRANCH   6   7
ENDBRANCH   4   6
ENDBRANCH   1   2
BRANCH   1  15
ATOM     15  O   UNL     1       1.287   9.144  18.831  0.00  0.00    +0.000 OA
BRANCH  15  16
ATOM     16  C   UNL     1       1.115  10.465  18.571  0.00  0.00    +0.000 C 
ATOM     17  O   UNL     1       2.006  11.272  18.360  0.00  0.00    +0.000 OA
BRANCH  16  21
ATOM     18  C   UNL     1      -3.117  11.423  18.427  0.00  0.00    +0.000 A 
ATOM     19  C   UNL     1      -2.542  10.394  17.662  0.00  0.00    +0.000 A 
ATOM     20  C   UNL     1      -1.173  10.101  17.715  0.00  0.00    +0.000 A 
ATOM     21  C   UNL     1      -0.326  10.825  18.553  0.00  0.00    +0.000 A 
ATOM     22  C   UNL     1      -0.866  11.843  19.339  0.00  0.00    +0.000 A 
ATOM     23  C   UNL     1      -2.239  12.128  19.271  0.00  0.00    +0.000 A 
BRANCH  18  25
ATOM     24  C   UNL     1      -5.155  11.842  17.082  0.00  0.00    +0.000 C 
ATOM     25  N   UNL     1      -4.477  11.717  18.368  0.00  0.00    +0.000 N 
ATOM     26  C   UNL     1      -5.165  12.244  19.540  0.00  0.00    +0.000 C 
ENDBRANCH  18  25
ENDBRANCH  16  21
ENDBRANCH  15  16
ENDBRANCH   1  15
TORSDOF 9
ENDMDL
MODEL 9
REMARK VINA RESULT:      -6.5      4.694      7.082
REMARK  Name = 
REMARK  11 active torsions:
REMARK  status: ('A' for Active; 'I' for Inactive)
REMARK    1  A    between atoms: C_1  and  N_2
REMARK    2  A    between atoms: N_2  and  C_3
REMARK    3  A    between atoms: N_2  and  C_4
REMARK    4  A    between atoms: C_7  and  C_8
REMARK    5  A    between atoms: C_8  and  O_10
REMARK    6  A    between atoms: O_10  and  C_11
REMARK    7  A    between atoms: C_11  and  C_12
REMARK    8  A    between atoms: N_14  and  C_15
REMARK    9  A    between atoms: C_15  and  C_16
REMARK   10  A    between atoms: C_16  and  C_17
REMARK   11  A    between atoms: C_17  and  C_18
REMARK                            x       y       z     vdW  Elec       q    Type
REMARK                         _______ _______ _______ _____ _____    ______ ____
ROOT
ATOM      1  C   UNL     1       7.560   6.273  19.008  0.00  0.00    +0.000 C 
ENDROOT
BRANCH   1   2
ATOM      2  C   UNL     1       7.074   5.411  17.841  0.00  0.00    +0.000 C 
ATOM      3  O   UNL     1       7.819   4.652  17.227  0.00  0.00    +0.000 OA
ATOM      4  N   UNL     1       5.719   5.506  17.589  0.00  0.00    +0.000 N 
ATOM      5  H   UNL     1       5.166   6.134  18.163  0.00  0.00    +0.000 HD
BRANCH   4   6
ATOM      6  C   UNL     1       5.085   4.783  16.509  0.00  0.00    +0.000 C 
BRANCH   6   7
ATOM      7  C   UNL     1       4.517   3.439  16.964  0.00  0.00    +0.000 C 
BRANCH   7   8
ATOM      8  C   UNL     1       3.009   3.543  17.212  0.00  0.00    +0.000 C 
BRANCH   8   9
ATOM      9  C   UNL     1       2.671   3.690  18.675  0.00  0.00    +0.000 A 
ATOM     10  C   UNL     1       2.139   4.891  19.164  0.00  0.00    +0.000 A 
ATOM     11  C   UNL     1       1.833   5.032  20.519  0.00  0.00    +0.000 A 
ATOM     12  C   UNL     1       2.055   3.975  21.399  0.00  0.00    +0.000 A 
ATOM     13  C   UNL     1       2.581   2.775  20.924  0.00  0.00    +0.000 A 
ATOM     14  C   UNL     1       2.890   2.633  19.569  0.00  0.00    +0.000 A 
ENDBRANCH   8   9
ENDBRANCH   7   8
ENDBRANCH   6   7
ENDBRANCH   4   6
ENDBRANCH   1   2
BRANCH   1  15
ATOM     15  O   UNL     1       8.511   7.272  18.626  0.00  0.00    +0.000 OA
BRANCH  15  16
ATOM     16  C   UNL     1       7.978   8.289  17.903  0.00  0.00    +0.000 C 
ATOM     17  O   UNL     1       7.135   8.176  17.027  0.00  0.00    +0.000 OA
BRANCH  16  21
ATOM     18  C   UNL     1       9.560  12.173  19.026  0.00  0.00    +0.000 A 
ATOM     19  C   UNL     1       8.772  11.973  17.879  0.00  0.00    +0.000 A 
ATOM     20  C   UNL     1       8.274  10.712  17.527  0.00  0.00    +0.000 A 
ATOM     21  C   UNL     1       8.538   9.599  18.324  0.00  0.00    +0.000 A 
ATOM     22  C   UNL     1       9.304   9.764  19.478  0.00  0.00    +0.000 A 
ATOM     23  C   UNL     1       9.800  11.034  19.815  0.00  0.00    +0.000 A 
BRANCH  18  25
ATOM     24  C   UNL     1      11.447  13.777  19.092  0.00  0.00    +0.000 C 
ATOM     25  N   UNL     1      10.058  13.427  19.370  0.00  0.00    +0.000 N 
ATOM     26  C   UNL     1       9.333  14.271  20.313  0.00  0.00    +0.000 C 
ENDBRANCH  18  25
ENDBRANCH  16  21
ENDBRANCH  15  16
ENDBRANCH   1  15
TORSDOF 9
ENDMDL
