MODEL 1
REMARK VINA RESULT:      -7.6      0.000      0.000
REMARK  Name = 
REMARK  11 active torsions:
REMARK  status: ('A' for Active; 'I' for Inactive)
REMARK    1  A    between atoms: C_1  and  N_2
REMARK    2  A    between atoms: N_2  and  C_3
REMARK    3  A    between atoms: C_3  and  C_4
REMARK    4  A    between atoms: C_4  and  C_5
REMARK    5  A    between atoms: C_5  and  N_6
REMARK    6  A    between atoms: C_7  and  C_8
REMARK    7  A    between atoms: C_8  and  C_9
REMARK    8  A    between atoms: C_8  and  C_10
REMARK    9  A    between atoms: C_8  and  C_11
REMARK   10  A    between atoms: C_13  and  C_14
REMARK   11  A    between atoms: C_23  and  C_24
REMARK                            x       y       z     vdW  Elec       q    Type
REMARK                         _______ _______ _______ _____ _____    ______ ____
ROOT
ATOM      1  N   UNL     1       3.092   5.644  18.772  0.00  0.00    +0.000 N 
ATOM      2  C   UNL     1       2.605   4.820  19.788  0.00  0.00    +0.000 A 
ATOM      3  C   UNL     1       1.915   5.667  20.661  0.00  0.00    +0.000 A 
ATOM      4  C   UNL     1       1.872   6.966  20.107  0.00  0.00    +0.000 A 
ATOM      5  C   UNL     1       2.582   6.931  18.921  0.00  0.00    +0.000 A 
ATOM      6  C   UNL     1       2.826   8.020  17.916  0.00  0.00    +0.000 C 
ENDROOT
BRANCH   4   7
ATOM      7  C   UNL     1       1.177   8.192  20.604  0.00  0.00    +0.000 A 
ATOM      8  N   UNL     1       0.467   8.188  21.711  0.00  0.00    +0.000 NA
ATOM      9  C   UNL     1       0.047   9.458  21.916  0.00  0.00    +0.000 A 
ATOM     10  C   UNL     1      -0.688   9.969  22.994  0.00  0.00    +0.000 A 
ATOM     11  C   UNL     1      -1.003  11.322  22.992  0.00  0.00    +0.000 A 
ATOM     12  C   UNL     1      -0.620  12.143  21.924  0.00  0.00    +0.000 A 
ATOM     13  C   UNL     1       0.120  11.638  20.836  0.00  0.00    +0.000 A 
ATOM     14  C   UNL     1       0.454  10.284  20.878  0.00  0.00    +0.000 A 
ATOM     15  N   UNL     1       1.187   9.452  20.056  0.00  0.00    +0.000 N 
ATOM     16  H   UNL     1       1.674   9.721  19.215  0.00  0.00    +0.000 HD
ENDBRANCH   4   7
BRANCH   2  17
ATOM     17  C   UNL     1       2.773   3.286  19.877  0.00  0.00    +0.000 C 
ATOM     18  C   UNL     1       4.254   2.855  19.865  0.00  0.00    +0.000 C 
ATOM     19  C   UNL     1       2.177   2.747  21.205  0.00  0.00    +0.000 C 
ATOM     20  C   UNL     1       1.995   2.576  18.747  0.00  0.00    +0.000 C 
ENDBRANCH   2  17
BRANCH   1  21
ATOM     21  C   UNL     1       3.934   5.273  17.640  0.00  0.00    +0.000 C 
BRANCH  21  22
ATOM     22  C   UNL     1       5.399   5.676  17.807  0.00  0.00    +0.000 C 
BRANCH  22  23
ATOM     23  C   UNL     1       6.328   4.606  17.249  0.00  0.00    +0.000 C 
BRANCH  23  25
ATOM     24  C   UNL     1       7.697   5.634  18.935  0.00  0.00    +0.000 C 
ATOM     25  N   UNL     1       7.441   4.417  18.179  0.00  0.00    +0.000 NA
ATOM     26  H   UNL     1       7.230   3.658  18.828  0.00  0.00    +0.000 HD
ENDBRANCH  23  25
ENDBRANCH  22  23
ENDBRANCH  21  22
ENDBRANCH   1  21
TORSDOF 6
ENDMDL
MODEL 2
REMARK VINA RESULT:      -7.5      0.250      1.198
REMARK  Name = 
REMARK  11 active torsions:
REMARK  status: ('A' for Active; 'I' for Inactive)
REMARK    1  A    between atoms: C_1  and  N_2
REMARK    2  A    between atoms: N_2  and  C_3
REMARK    3  A    between atoms: C_3  and  C_4
REMARK    4  A    between atoms: C_4  and  C_5
REMARK    5  A    between atoms: C_5  and  N_6
REMARK    6  A    between atoms: C_7  and  C_8
REMARK    7  A    between atoms: C_8  and  C_9
REMARK    8  A    between atoms: C_8  and  C_10
REMARK    9  A    between atoms: C_8  and  C_11
REMARK   10  A    between atoms: C_13  and  C_14
REMARK   11  A    between atoms: C_23  and  C_24
REMARK                            x       y       z     vdW  Elec       q    Type
REMARK                         _______ _______ _______ _____ _____    ______ ____
ROOT
ATOM      1  N   UNL     1       2.990   5.730  18.687  0.00  0.00    +0.000 N 
ATOM      2  C   UNL     1       2.529   4.857  19.673  0.00  0.00    +0.000 A 
ATOM      3  C   UNL     1       1.891   5.663  20.621  0.00  0.00    +0.000 A 
ATOM      4  C   UNL     1       1.850   6.993  20.145  0.00  0.00    +0.000 A 
ATOM      5  C   UNL     1       2.511   7.015  18.930  0.00  0.00    +0.000 A 
ATOM      6  C   UNL     1       2.736   8.157  17.981  0.00  0.00    +0.000 C 
ENDROOT
BRANCH   4   7
ATOM      7  C   UNL     1       1.200   8.199  20.740  0.00  0.00    +0.000 A 
ATOM      8  N   UNL     1       1.109   9.335  20.081  0.00  0.00    +0.000 NA
ATOM      9  C   UNL     1       0.404  10.187  20.861  0.00  0.00    +0.000 A 
ATOM     10  C   UNL     1      -0.006  11.496  20.570  0.00  0.00    +0.000 A 
ATOM     11  C   UNL     1      -0.734  12.185  21.532  0.00  0.00    +0.000 A 
ATOM     12  C   UNL     1      -1.021  11.595  22.770  0.00  0.00    +0.000 A 
ATOM     13  C   UNL     1      -0.613  10.279  23.070  0.00  0.00    +0.000 A 
ATOM     14  C   UNL     1       0.086   9.595  22.075  0.00  0.00    +0.000 A 
ATOM     15  N   UNL     1       0.596   8.318  21.968  0.00  0.00    +0.000 N 
ATOM     16  H   UNL     1       0.517   7.583  22.655  0.00  0.00    +0.000 HD
ENDBRANCH   4   7
BRANCH   2  17
ATOM     17  C   UNL     1       2.671   3.318  19.666  0.00  0.00    +0.000 C 
ATOM     18  C   UNL     1       4.141   2.863  19.766  0.00  0.00    +0.000 C 
ATOM     19  C   UNL     1       1.942   2.696  20.887  0.00  0.00    +0.000 C 
ATOM     20  C   UNL     1       1.999   2.704  18.417  0.00  0.00    +0.000 C 
ENDBRANCH   2  17
BRANCH   1  21
ATOM     21  C   UNL     1       3.779   5.413  17.501  0.00  0.00    +0.000 C 
BRANCH  21  22
ATOM     22  C   UNL     1       5.272   5.697  17.663  0.00  0.00    +0.000 C 
BRANCH  22  23
ATOM     23  C   UNL     1       6.110   4.564  17.086  0.00  0.00    +0.000 C 
BRANCH  23  25
ATOM     24  C   UNL     1       7.602   5.546  18.694  0.00  0.00    +0.000 C 
ATOM     25  N   UNL     1       7.258   4.335  17.963  0.00  0.00    +0.000 NA
ATOM     26  H   UNL     1       7.048   3.590  18.628  0.00  0.00    +0.000 HD
ENDBRANCH  23  25
ENDBRANCH  22  23
ENDBRANCH  21  22
ENDBRANCH   1  21
TORSDOF 6
ENDMDL
MODEL 3
REMARK VINA RESULT:      -7.4      0.780      1.054
REMARK  Name = 
REMARK  11 active torsions:
REMARK  status: ('A' for Active; 'I' for Inactive)
REMARK    1  A    between atoms: C_1  and  N_2
REMARK    2  A    between atoms: N_2  and  C_3
REMARK    3  A    between atoms: C_3  and  C_4
REMARK    4  A    between atoms: C_4  and  C_5
REMARK    5  A    between atoms: C_5  and  N_6
REMARK    6  A    between atoms: C_7  and  C_8
REMARK    7  A    between atoms: C_8  and  C_9
REMARK    8  A    between atoms: C_8  and  C_10
REMARK    9  A    between atoms: C_8  and  C_11
REMARK   10  A    between atoms: C_13  and  C_14
REMARK   11  A    between atoms: C_23  and  C_24
REMARK                            x       y       z     vdW  Elec       q    Type
REMARK                         _______ _______ _______ _____ _____    ______ ____
ROOT
ATOM      1  N   UNL     1       3.266   5.690  18.431  0.00  0.00    +0.000 N 
ATOM      2  C   UNL     1       2.777   4.784  19.373  0.00  0.00    +0.000 A 
ATOM      3  C   UNL     1       2.057   5.551  20.294  0.00  0.00    +0.000 A 
ATOM      4  C   UNL     1       1.999   6.887  19.838  0.00  0.00    +0.000 A 
ATOM      5  C   UNL     1       2.730   6.953  18.665  0.00  0.00    +0.000 A 
ATOM      6  C   UNL     1       2.972   8.119  17.750  0.00  0.00    +0.000 C 
ENDROOT
BRANCH   4   7
ATOM      7  C   UNL     1       1.274   8.061  20.412  0.00  0.00    +0.000 A 
ATOM      8  N   UNL     1       0.676   8.003  21.583  0.00  0.00    +0.000 NA
ATOM      9  C   UNL     1       0.192   9.240  21.840  0.00  0.00    +0.000 A 
ATOM     10  C   UNL     1      -0.468   9.695  22.989  0.00  0.00    +0.000 A 
ATOM     11  C   UNL     1      -0.873  11.023  23.032  0.00  0.00    +0.000 A 
ATOM     12  C   UNL     1      -0.652  11.873  21.940  0.00  0.00    +0.000 A 
ATOM     13  C   UNL     1       0.012  11.424  20.781  0.00  0.00    +0.000 A 
ATOM     14  C   UNL     1       0.440  10.096  20.776  0.00  0.00    +0.000 A 
ATOM     15  N   UNL     1       1.145   9.320  19.879  0.00  0.00    +0.000 N 
ATOM     16  H   UNL     1       1.529   9.625  18.998  0.00  0.00    +0.000 HD
ENDBRANCH   4   7
BRANCH   2  17
ATOM     17  C   UNL     1       2.972   3.251  19.350  0.00  0.00    +0.000 C 
ATOM     18  C   UNL     1       4.414   2.836  19.702  0.00  0.00    +0.000 C 
ATOM     19  C   UNL     1       2.057   2.567  20.402  0.00  0.00    +0.000 C 
ATOM     20  C   UNL     1       2.557   2.659  17.984  0.00  0.00    +0.000 C 
ENDBRANCH   2  17
BRANCH   1  21
ATOM     21  C   UNL     1       4.134   5.420  17.290  0.00  0.00    +0.000 C 
BRANCH  21  22
ATOM     22  C   UNL     1       5.613   5.692  17.565  0.00  0.00    +0.000 C 
BRANCH  22  23
ATOM     23  C   UNL     1       6.476   4.512  17.141  0.00  0.00    +0.000 C 
BRANCH  23  25
ATOM     24  C   UNL     1       6.912   4.805  14.796  0.00  0.00    +0.000 C 
ATOM     25  N   UNL     1       7.441   4.969  16.142  0.00  0.00    +0.000 NA
ATOM     26  H   UNL     1       7.666   5.953  16.296  0.00  0.00    +0.000 HD
ENDBRANCH  23  25
ENDBRANCH  22  23
ENDBRANCH  21  22
ENDBRANCH   1  21
TORSDOF 6
ENDMDL
MODEL 4
REMARK VINA RESULT:      -7.4      1.784      3.904
REMARK  Name = 
REMARK  11 active torsions:
REMARK  status: ('A' for Active; 'I' for Inactive)
REMARK    1  A    between atoms: C_1  and  N_2
REMARK    2  A    between atoms: N_2  and  C_3
REMARK    3  A    between atoms: C_3  and  C_4
REMARK    4  A    between atoms: C_4  and  C_5
REMARK    5  A    between atoms: C_5  and  N_6
REMARK    6  A    between atoms: C_7  and  C_8
REMARK    7  A    between atoms: C_8  and  C_9
REMARK    8  A    between atoms: C_8  and  C_10
REMARK    9  A    between atoms: C_8  and  C_11
REMARK   10  A    between atoms: C_13  and  C_14
REMARK   11  A    between atoms: C_23  and  C_24
REMARK                            x       y       z     vdW  Elec       q    Type
REMARK                         _______ _______ _______ _____ _____    ______ ____
ROOT
ATOM      1  N   UNL     1       4.058   5.186  17.414  0.00  0.00    +0.000 N 
ATOM      2  C   UNL     1       5.108   6.104  17.390  0.00  0.00    +0.000 A 
ATOM      3  C   UNL     1       4.533   7.342  17.693  0.00  0.00    +0.000 A 
ATOM      4  C   UNL     1       3.174   7.151  18.028  0.00  0.00    +0.000 A 
ATOM      5  C   UNL     1       2.900   5.803  17.878  0.00  0.00    +0.000 A 
ATOM      6  C   UNL     1       1.625   5.050  18.129  0.00  0.00    +0.000 C 
ENDROOT
BRANCH   4   7
ATOM      7  C   UNL     1       2.162   8.138  18.511  0.00  0.00    +0.000 A 
ATOM      8  N   UNL     1       1.821   8.220  19.779  0.00  0.00    +0.000 NA
ATOM      9  C   UNL     1       0.955   9.254  19.889  0.00  0.00    +0.000 A 
ATOM     10  C   UNL     1       0.362   9.773  21.048  0.00  0.00    +0.000 A 
ATOM     11  C   UNL     1      -0.500  10.856  20.916  0.00  0.00    +0.000 A 
ATOM     12  C   UNL     1      -0.787  11.391  19.654  0.00  0.00    +0.000 A 
ATOM     13  C   UNL     1      -0.194  10.875  18.484  0.00  0.00    +0.000 A 
ATOM     14  C   UNL     1       0.694   9.811  18.645  0.00  0.00    +0.000 A 
ATOM     15  N   UNL     1       1.488   9.087  17.780  0.00  0.00    +0.000 N 
ATOM     16  H   UNL     1       1.586   9.240  16.788  0.00  0.00    +0.000 HD
ENDBRANCH   4   7
BRANCH   2  17
ATOM     17  C   UNL     1       6.596   5.780  17.126  0.00  0.00    +0.000 C 
ATOM     18  C   UNL     1       6.831   5.208  15.713  0.00  0.00    +0.000 C 
ATOM     19  C   UNL     1       7.461   7.066  17.220  0.00  0.00    +0.000 C 
ATOM     20  C   UNL     1       7.154   4.818  18.198  0.00  0.00    +0.000 C 
ENDBRANCH   2  17
BRANCH   1  21
ATOM     21  C   UNL     1       4.102   3.761  17.104  0.00  0.00    +0.000 C 
BRANCH  21  22
ATOM     22  C   UNL     1       4.161   2.865  18.342  0.00  0.00    +0.000 C 
BRANCH  22  23
ATOM     23  C   UNL     1       3.460   1.537  18.090  0.00  0.00    +0.000 C 
BRANCH  23  25
ATOM     24  C   UNL     1       2.121   2.184  19.978  0.00  0.00    +0.000 C 
ATOM     25  N   UNL     1       2.107   1.607  18.641  0.00  0.00    +0.000 NA
ATOM     26  H   UNL     1       1.512   2.175  18.037  0.00  0.00    +0.000 HD
ENDBRANCH  23  25
ENDBRANCH  22  23
ENDBRANCH  21  22
ENDBRANCH   1  21
TORSDOF 6
ENDMDL
MODEL 5
REMARK VINA RESULT:      -7.3      0.797      1.200
REMARK  Name = 
REMARK  11 active torsions:
REMARK  status: ('A' for Active; 'I' for Inactive)
REMARK    1  A    between atoms: C_1  and  N_2
REMARK    2  A    between atoms: N_2  and  C_3
REMARK    3  A    between atoms: C_3  and  C_4
REMARK    4  A    between atoms: C_4  and  C_5
REMARK    5  A    between atoms: C_5  and  N_6
REMARK    6  A    between atoms: C_7  and  C_8
REMARK    7  A    between atoms: C_8  and  C_9
REMARK    8  A    between atoms: C_8  and  C_10
REMARK    9  A    between atoms: C_8  and  C_11
REMARK   10  A    between atoms: C_13  and  C_14
REMARK   11  A    between atoms: C_23  and  C_24
REMARK                            x       y       z     vdW  Elec       q    Type
REMARK                         _______ _______ _______ _____ _____    ______ ____
ROOT
ATOM      1  N   UNL     1       3.045   5.983  18.695  0.00  0.00    +0.000 N 
ATOM      2  C   UNL     1       2.612   5.134  19.715  0.00  0.00    +0.000 A 
ATOM      3  C   UNL     1       1.916   5.949  20.613  0.00  0.00    +0.000 A 
ATOM      4  C   UNL     1       1.814   7.251  20.073  0.00  0.00    +0.000 A 
ATOM      5  C   UNL     1       2.495   7.251  18.869  0.00  0.00    +0.000 A 
ATOM      6  C   UNL     1       2.677   8.357  17.870  0.00  0.00    +0.000 C 
ENDROOT
BRANCH   4   7
ATOM      7  C   UNL     1       1.092   8.448  20.600  0.00  0.00    +0.000 A 
ATOM      8  N   UNL     1       0.399   8.406  21.717  0.00  0.00    +0.000 NA
ATOM      9  C   UNL     1      -0.055   9.659  21.948  0.00  0.00    +0.000 A 
ATOM     10  C   UNL     1      -0.789  10.132  23.044  0.00  0.00    +0.000 A 
ATOM     11  C   UNL     1      -1.143  11.475  23.069  0.00  0.00    +0.000 A 
ATOM     12  C   UNL     1      -0.801  12.323  22.008  0.00  0.00    +0.000 A 
ATOM     13  C   UNL     1      -0.062  11.857  20.902  0.00  0.00    +0.000 A 
ATOM     14  C   UNL     1       0.312  10.513  20.917  0.00  0.00    +0.000 A 
ATOM     15  N   UNL     1       1.057   9.716  20.072  0.00  0.00    +0.000 N 
ATOM     16  H   UNL     1       1.523  10.012  19.228  0.00  0.00    +0.000 HD
ENDBRANCH   4   7
BRANCH   2  17
ATOM     17  C   UNL     1       2.834   3.606  19.784  0.00  0.00    +0.000 C 
ATOM     18  C   UNL     1       2.102   2.855  18.654  0.00  0.00    +0.000 C 
ATOM     19  C   UNL     1       4.339   3.264  19.625  0.00  0.00    +0.000 C 
ATOM     20  C   UNL     1       2.418   3.046  21.163  0.00  0.00    +0.000 C 
ENDBRANCH   2  17
BRANCH   1  21
ATOM     21  C   UNL     1       3.870   5.652  17.539  0.00  0.00    +0.000 C 
BRANCH  21  22
ATOM     22  C   UNL     1       5.324   6.105  17.672  0.00  0.00    +0.000 C 
BRANCH  22  23
ATOM     23  C   UNL     1       6.179   5.538  16.548  0.00  0.00    +0.000 C 
BRANCH  23  25
ATOM     24  C   UNL     1       7.527   7.266  17.533  0.00  0.00    +0.000 C 
ATOM     25  N   UNL     1       7.370   6.373  16.394  0.00  0.00    +0.000 NA
ATOM     26  H   UNL     1       8.201   5.787  16.311  0.00  0.00    +0.000 HD
ENDBRANCH  23  25
ENDBRANCH  22  23
ENDBRANCH  21  22
ENDBRANCH   1  21
TORSDOF 6
ENDMDL
MODEL 6
REMARK VINA RESULT:      -7.3      1.052      1.959
REMARK  Name = 
REMARK  11 active torsions:
REMARK  status: ('A' for Active; 'I' for Inactive)
REMARK    1  A    between atoms: C_1  and  N_2
REMARK    2  A    between atoms: N_2  and  C_3
REMARK    3  A    between atoms: C_3  and  C_4
REMARK    4  A    between atoms: C_4  and  C_5
REMARK    5  A    between atoms: C_5  and  N_6
REMARK    6  A    between atoms: C_7  and  C_8
REMARK    7  A    between atoms: C_8  and  C_9
REMARK    8  A    between atoms: C_8  and  C_10
REMARK    9  A    between atoms: C_8  and  C_11
REMARK   10  A    between atoms: C_13  and  C_14
REMARK   11  A    between atoms: C_23  and  C_24
REMARK                            x       y       z     vdW  Elec       q    Type
REMARK                         _______ _______ _______ _____ _____    ______ ____
ROOT
ATOM      1  N   UNL     1       3.448   5.341  18.439  0.00  0.00    +0.000 N 
ATOM      2  C   UNL     1       2.864   4.473  19.363  0.00  0.00    +0.000 A 
ATOM      3  C   UNL     1       2.177   5.289  20.266  0.00  0.00    +0.000 A 
ATOM      4  C   UNL     1       2.235   6.628  19.815  0.00  0.00    +0.000 A 
ATOM      5  C   UNL     1       3.003   6.641  18.665  0.00  0.00    +0.000 A 
ATOM      6  C   UNL     1       3.359   7.788  17.763  0.00  0.00    +0.000 C 
ENDROOT
BRANCH   4   7
ATOM      7  C   UNL     1       1.585   7.851  20.374  0.00  0.00    +0.000 A 
ATOM      8  N   UNL     1       1.247   8.869  19.611  0.00  0.00    +0.000 NA
ATOM      9  C   UNL     1       0.617   9.765  20.404  0.00  0.00    +0.000 A 
ATOM     10  C   UNL     1       0.020  10.980  20.042  0.00  0.00    +0.000 A 
ATOM     11  C   UNL     1      -0.580  11.741  21.038  0.00  0.00    +0.000 A 
ATOM     12  C   UNL     1      -0.559  11.315  22.372  0.00  0.00    +0.000 A 
ATOM     13  C   UNL     1       0.039  10.094  22.745  0.00  0.00    +0.000 A 
ATOM     14  C   UNL     1       0.604   9.332  21.722  0.00  0.00    +0.000 A 
ATOM     15  N   UNL     1       1.219   8.097  21.675  0.00  0.00    +0.000 N 
ATOM     16  H   UNL     1       1.353   7.466  22.450  0.00  0.00    +0.000 HD
ENDBRANCH   4   7
BRANCH   2  17
ATOM     17  C   UNL     1       2.942   2.929  19.337  0.00  0.00    +0.000 C 
ATOM     18  C   UNL     1       1.831   2.271  20.180  0.00  0.00    +0.000 C 
ATOM     19  C   UNL     1       2.760   2.396  17.891  0.00  0.00    +0.000 C 
ATOM     20  C   UNL     1       4.332   2.436  19.796  0.00  0.00    +0.000 C 
ENDBRANCH   2  17
BRANCH   1  21
ATOM     21  C   UNL     1       4.326   5.009  17.323  0.00  0.00    +0.000 C 
BRANCH  21  22
ATOM     22  C   UNL     1       5.813   5.049  17.678  0.00  0.00    +0.000 C 
BRANCH  22  23
ATOM     23  C   UNL     1       6.603   5.829  16.637  0.00  0.00    +0.000 C 
BRANCH  23  25
ATOM     24  C   UNL     1       6.865   4.666  14.549  0.00  0.00    +0.000 C 
ATOM     25  N   UNL     1       7.428   4.893  15.873  0.00  0.00    +0.000 NA
ATOM     26  H   UNL     1       8.376   5.259  15.775  0.00  0.00    +0.000 HD
ENDBRANCH  23  25
ENDBRANCH  22  23
ENDBRANCH  21  22
ENDBRANCH   1  21
TORSDOF 6
ENDMDL
MODEL 7
REMARK VINA RESULT:      -7.3      1.012      1.737
REMARK  Name = 
REMARK  11 active torsions:
REMARK  status: ('A' for Active; 'I' for Inactive)
REMARK    1  A    between atoms: C_1  and  N_2
REMARK    2  A    between atoms: N_2  and  C_3
REMARK    3  A    between atoms: C_3  and  C_4
REMARK    4  A    between atoms: C_4  and  C_5
REMARK    5  A    between atoms: C_5  and  N_6
REMARK    6  A    between atoms: C_7  and  C_8
REMARK    7  A    between atoms: C_8  and  C_9
REMARK    8  A    between atoms: C_8  and  C_10
REMARK    9  A    between atoms: C_8  and  C_11
REMARK   10  A    between atoms: C_13  and  C_14
REMARK   11  A    between atoms: C_23  and  C_24
REMARK                            x       y       z     vdW  Elec       q    Type
REMARK                         _______ _______ _______ _____ _____    ______ ____
ROOT
ATOM      1  N   UNL     1       3.305   5.310  18.603  0.00  0.00    +0.000 N 
ATOM      2  C   UNL     1       2.726   4.476  19.561  0.00  0.00    +0.000 A 
ATOM      3  C   UNL     1       2.058   5.327  20.447  0.00  0.00    +0.000 A 
ATOM      4  C   UNL     1       2.121   6.650  19.953  0.00  0.00    +0.000 A 
ATOM      5  C   UNL     1       2.874   6.620  18.793  0.00  0.00    +0.000 A 
ATOM      6  C   UNL     1       3.229   7.734  17.851  0.00  0.00    +0.000 C 
ENDROOT
BRANCH   4   7
ATOM      7  C   UNL     1       1.489   7.896  20.481  0.00  0.00    +0.000 A 
ATOM      8  N   UNL     1       1.187   8.908  19.696  0.00  0.00    +0.000 NA
ATOM      9  C   UNL     1       0.564   9.831  20.465  0.00  0.00    +0.000 A 
ATOM     10  C   UNL     1       0.000  11.053  20.073  0.00  0.00    +0.000 A 
ATOM     11  C   UNL     1      -0.599  11.842  21.046  0.00  0.00    +0.000 A 
ATOM     12  C   UNL     1      -0.610  11.437  22.387  0.00  0.00    +0.000 A 
ATOM     13  C   UNL     1      -0.046  10.210  22.790  0.00  0.00    +0.000 A 
ATOM     14  C   UNL     1       0.518   9.419  21.789  0.00  0.00    +0.000 A 
ATOM     15  N   UNL     1       1.106   8.171  21.772  0.00  0.00    +0.000 N 
ATOM     16  H   UNL     1       1.213   7.549  22.559  0.00  0.00    +0.000 HD
ENDBRANCH   4   7
BRANCH   2  17
ATOM     17  C   UNL     1       2.790   2.932  19.583  0.00  0.00    +0.000 C 
ATOM     18  C   UNL     1       4.182   2.407  19.988  0.00  0.00    +0.000 C 
ATOM     19  C   UNL     1       1.792   2.358  20.625  0.00  0.00    +0.000 C 
ATOM     20  C   UNL     1       2.364   2.339  18.221  0.00  0.00    +0.000 C 
ENDBRANCH   2  17
BRANCH   1  21
ATOM     21  C   UNL     1       4.166   4.934  17.487  0.00  0.00    +0.000 C 
BRANCH  21  22
ATOM     22  C   UNL     1       5.648   4.858  17.853  0.00  0.00    +0.000 C 
BRANCH  22  23
ATOM     23  C   UNL     1       6.519   4.837  16.604  0.00  0.00    +0.000 C 
BRANCH  23  25
ATOM     24  C   UNL     1       6.211   3.914  14.407  0.00  0.00    +0.000 C 
ATOM     25  N   UNL     1       6.211   3.632  15.835  0.00  0.00    +0.000 NA
ATOM     26  H   UNL     1       6.898   2.904  16.033  0.00  0.00    +0.000 HD
ENDBRANCH  23  25
ENDBRANCH  22  23
ENDBRANCH  21  22
ENDBRANCH   1  21
TORSDOF 6
ENDMDL
MODEL 8
REMARK VINA RESULT:      -7.3      0.743      1.415
REMARK  Name = 
REMARK  11 active torsions:
REMARK  status: ('A' for Active; 'I' for Inactive)
REMARK    1  A    between atoms: C_1  and  N_2
REMARK    2  A    between atoms: N_2  and  C_3
REMARK    3  A    between atoms: C_3  and  C_4
REMARK    4  A    between atoms: C_4  and  C_5
REMARK    5  A    between atoms: C_5  and  N_6
REMARK    6  A    between atoms: C_7  and  C_8
REMARK    7  A    between atoms: C_8  and  C_9
REMARK    8  A    between atoms: C_8  and  C_10
REMARK    9  A    between atoms: C_8  and  C_11
REMARK   10  A    between atoms: C_13  and  C_14
REMARK   11  A    between atoms: C_23  and  C_24
REMARK                            x       y       z     vdW  Elec       q    Type
REMARK                         _______ _______ _______ _____ _____    ______ ____
ROOT
ATOM      1  N   UNL     1       3.098   5.638  18.624  0.00  0.00    +0.000 N 
ATOM      2  C   UNL     1       2.587   4.786  19.604  0.00  0.00    +0.000 A 
ATOM      3  C   UNL     1       1.899   5.611  20.499  0.00  0.00    +0.000 A 
ATOM      4  C   UNL     1       1.882   6.930  19.993  0.00  0.00    +0.000 A 
ATOM      5  C   UNL     1       2.607   6.926  18.814  0.00  0.00    +0.000 A 
ATOM      6  C   UNL     1       2.880   8.047  17.853  0.00  0.00    +0.000 C 
ENDROOT
BRANCH   4   7
ATOM      7  C   UNL     1       1.201   8.148  20.526  0.00  0.00    +0.000 A 
ATOM      8  N   UNL     1       0.494   8.119  21.635  0.00  0.00    +0.000 NA
ATOM      9  C   UNL     1       0.087   9.387  21.876  0.00  0.00    +0.000 A 
ATOM     10  C   UNL     1      -0.640   9.874  22.971  0.00  0.00    +0.000 A 
ATOM     11  C   UNL     1      -0.942  11.230  23.008  0.00  0.00    +0.000 A 
ATOM     12  C   UNL     1      -0.554  12.077  21.962  0.00  0.00    +0.000 A 
ATOM     13  C   UNL     1       0.178  11.595  20.858  0.00  0.00    +0.000 A 
ATOM     14  C   UNL     1       0.499  10.238  20.861  0.00  0.00    +0.000 A 
ATOM     15  N   UNL     1       1.222   9.423  20.014  0.00  0.00    +0.000 N 
ATOM     16  H   UNL     1       1.709   9.710  19.179  0.00  0.00    +0.000 HD
ENDBRANCH   4   7
BRANCH   2  17
ATOM     17  C   UNL     1       2.729   3.247  19.638  0.00  0.00    +0.000 C 
ATOM     18  C   UNL     1       1.811   2.595  20.691  0.00  0.00    +0.000 C 
ATOM     19  C   UNL     1       2.326   2.630  18.272  0.00  0.00    +0.000 C 
ATOM     20  C   UNL     1       4.199   2.830  19.871  0.00  0.00    +0.000 C 
ENDBRANCH   2  17
BRANCH   1  21
ATOM     21  C   UNL     1       3.948   5.295  17.490  0.00  0.00    +0.000 C 
BRANCH  21  22
ATOM     22  C   UNL     1       5.414   5.687  17.679  0.00  0.00    +0.000 C 
BRANCH  22  23
ATOM     23  C   UNL     1       6.335   4.504  17.418  0.00  0.00    +0.000 C 
BRANCH  23  25
ATOM     24  C   UNL     1       6.310   4.059  15.056  0.00  0.00    +0.000 C 
ATOM     25  N   UNL     1       5.759   3.685  16.351  0.00  0.00    +0.000 NA
ATOM     26  H   UNL     1       5.952   2.698  16.525  0.00  0.00    +0.000 HD
ENDBRANCH  23  25
ENDBRANCH  22  23
ENDBRANCH  21  22
ENDBRANCH   1  21
TORSDOF 6
ENDMDL
MODEL 9
REMARK VINA RESULT:      -7.3      1.193      1.556
REMARK  Name = 
REMARK  11 active torsions:
REMARK  status: ('A' for Active; 'I' for Inactive)
REMARK    1  A    between atoms: C_1  and  N_2
REMARK    2  A    between atoms: N_2  and  C_3
REMARK    3  A    between atoms: C_3  and  C_4
REMARK    4  A    between atoms: C_4  and  C_5
REMARK    5  A    between atoms: C_5  and  N_6
REMARK    6  A    between atoms: C_7  and  C_8
REMARK    7  A    between atoms: C_8  and  C_9
REMARK    8  A    between atoms: C_8  and  C_10
REMARK    9  A    between atoms: C_8  and  C_11
REMARK   10  A    between atoms: C_13  and  C_14
REMARK   11  A    between atoms: C_23  and  C_24
REMARK                            x       y       z     vdW  Elec       q    Type
REMARK                         _______ _______ _______ _____ _____    ______ ____
ROOT
ATOM      1  N   UNL     1       3.650   4.951  18.830  0.00  0.00    +0.000 N 
ATOM      2  C   UNL     1       2.886   4.352  19.834  0.00  0.00    +0.000 A 
ATOM      3  C   UNL     1       2.140   5.386  20.407  0.00  0.00    +0.000 A 
ATOM      4  C   UNL     1       2.351   6.573  19.669  0.00  0.00    +0.000 A 
ATOM      5  C   UNL     1       3.269   6.281  18.676  0.00  0.00    +0.000 A 
ATOM      6  C   UNL     1       3.824   7.162  17.595  0.00  0.00    +0.000 C 
ENDROOT
BRANCH   4   7
ATOM      7  C   UNL     1       1.717   7.917  19.822  0.00  0.00    +0.000 A 
ATOM      8  N   UNL     1       1.230   8.328  20.973  0.00  0.00    +0.000 NA
ATOM      9  C   UNL     1       0.807   9.601  20.791  0.00  0.00    +0.000 A 
ATOM     10  C   UNL     1       0.271  10.484  21.737  0.00  0.00    +0.000 A 
ATOM     11  C   UNL     1      -0.090  11.758  21.316  0.00  0.00    +0.000 A 
ATOM     12  C   UNL     1       0.051  12.134  19.974  0.00  0.00    +0.000 A 
ATOM     13  C   UNL     1       0.591  11.252  19.016  0.00  0.00    +0.000 A 
ATOM     14  C   UNL     1       0.979   9.991  19.470  0.00  0.00    +0.000 A 
ATOM     15  N   UNL     1       1.574   8.899  18.873  0.00  0.00    +0.000 N 
ATOM     16  H   UNL     1       1.883   8.836  17.914  0.00  0.00    +0.000 HD
ENDBRANCH   4   7
BRANCH   2  17
ATOM     17  C   UNL     1       2.859   2.846  20.182  0.00  0.00    +0.000 C 
ATOM     18  C   UNL     1       4.271   2.273  20.422  0.00  0.00    +0.000 C 
ATOM     19  C   UNL     1       2.066   2.602  21.494  0.00  0.00    +0.000 C 
ATOM     20  C   UNL     1       2.126   2.036  19.090  0.00  0.00    +0.000 C 
ENDBRANCH   2  17
BRANCH   1  21
ATOM     21  C   UNL     1       4.647   4.328  17.968  0.00  0.00    +0.000 C 
BRANCH  21  22
ATOM     22  C   UNL     1       6.089   4.635  18.375  0.00  0.00    +0.000 C 
BRANCH  22  23
ATOM     23  C   UNL     1       7.006   4.665  17.160  0.00  0.00    +0.000 C 
BRANCH  23  25
ATOM     24  C   UNL     1       6.715   4.446  14.785  0.00  0.00    +0.000 C 
ATOM     25  N   UNL     1       6.393   3.882  16.087  0.00  0.00    +0.000 NA
ATOM     26  H   UNL     1       6.722   2.917  16.126  0.00  0.00    +0.000 HD
ENDBRANCH  23  25
ENDBRANCH  22  23
ENDBRANCH  21  22
ENDBRANCH   1  21
TORSDOF 6
ENDMDL
