MODEL 1
REMARK VINA RESULT:      -9.1      0.000      0.000
REMARK  Name = 
REMARK  8 active torsions:
REMARK  status: ('A' for Active; 'I' for Inactive)
REMARK    1  A    between atoms: C_1  and  C_2
REMARK    2  A    between atoms: C_2  and  C_3
REMARK    3  A    between atoms: C_2  and  C_4
REMARK    4  A    between atoms: C_2  and  N_5
REMARK    5  A    between atoms: N_5  and  C_6
REMARK    6  A    between atoms: C_7  and  C_8
REMARK    7  A    between atoms: C_11  and  C_12
REMARK    8  A    between atoms: C_15  and  C_16
REMARK                            x       y       z     vdW  Elec       q    Type
REMARK                         _______ _______ _______ _____ _____    ______ ____
ROOT
ATOM      1  C   UNL     1       3.614   5.177  18.319  0.00  0.00    +0.000 A 
ATOM      2  C   UNL     1       3.335   6.548  18.188  0.00  0.00    +0.000 A 
ATOM      3  N   UNL     1       4.063   7.117  17.163  0.00  0.00    +0.000 NA
ATOM      4  C   UNL     1       4.712   6.130  16.598  0.00  0.00    +0.000 A 
ATOM      5  C   UNL     1       5.633   6.136  15.506  0.00  0.00    +0.000 A 
ATOM      6  C   UNL     1       6.142   4.978  15.047  0.00  0.00    +0.000 A 
ATOM      7  C   UNL     1       5.731   3.711  15.611  0.00  0.00    +0.000 A 
ATOM      8  C   UNL     1       4.855   3.713  16.630  0.00  0.00    +0.000 A 
ATOM      9  N   UNL     1       4.392   4.905  17.182  0.00  0.00    +0.000 N 
ENDROOT
BRANCH   2  10
ATOM     10  C   UNL     1       2.470   7.395  19.001  0.00  0.00    +0.000 A 
ATOM     11  C   UNL     1       2.192   7.003  20.325  0.00  0.00    +0.000 A 
ATOM     12  C   UNL     1       1.431   7.809  21.182  0.00  0.00    +0.000 A 
ATOM     13  C   UNL     1       0.922   9.035  20.742  0.00  0.00    +0.000 A 
ATOM     14  C   UNL     1       1.188   9.427  19.423  0.00  0.00    +0.000 A 
ATOM     15  C   UNL     1       1.965   8.627  18.572  0.00  0.00    +0.000 A 
BRANCH  13  16
ATOM     16  C   UNL     1       0.166   9.898  21.642  0.00  0.00    +0.000 A 
ATOM     17  N   UNL     1       0.318   9.909  22.981  0.00  0.00    +0.000 NA
ATOM     18  O   UNL     1      -0.558  10.898  23.413  0.00  0.00    +0.000 OA
ATOM     19  C   UNL     1      -1.171  11.397  22.301  0.00  0.00    +0.000 A 
ATOM     20  N   UNL     1      -0.762  10.814  21.188  0.00  0.00    +0.000 NA
BRANCH  19  21
ATOM     21  C   UNL     1      -2.162  12.477  22.535  0.00  0.00    +0.000 C 
ATOM     22  F   UNL     1      -3.307  12.028  23.119  0.00  0.00    +0.000 F 
ATOM     23  F   UNL     1      -1.678  13.454  23.349  0.00  0.00    +0.000 F 
ATOM     24  F   UNL     1      -2.540  13.089  21.379  0.00  0.00    +0.000 F 
ENDBRANCH  19  21
ENDBRANCH  13  16
ENDBRANCH   2  10
BRANCH   1  25
ATOM     25  N   UNL     1       3.216   4.274  19.299  0.00  0.00    +0.000 N 
ATOM     26  H   UNL     1       4.014   3.767  19.685  0.00  0.00    +0.000 HD
BRANCH  25  28
ATOM     27  C   UNL     1       1.148   3.449  20.470  0.00  0.00    +0.000 C 
ATOM     28  C   UNL     1       2.061   3.337  19.242  0.00  0.00    +0.000 C 
ATOM     29  C   UNL     1       2.520   1.906  18.900  0.00  0.00    +0.000 C 
ATOM     30  C   UNL     1       1.182   3.730  18.022  0.00  0.00    +0.000 C 
ENDBRANCH  25  28
ENDBRANCH   1  25
TORSDOF 5
ENDMDL
MODEL 2
REMARK VINA RESULT:      -9.1      1.119      1.633
REMARK  Name = 
REMARK  8 active torsions:
REMARK  status: ('A' for Active; 'I' for Inactive)
REMARK    1  A    between atoms: C_1  and  C_2
REMARK    2  A    between atoms: C_2  and  C_3
REMARK    3  A    between atoms: C_2  and  C_4
REMARK    4  A    between atoms: C_2  and  N_5
REMARK    5  A    between atoms: N_5  and  C_6
REMARK    6  A    between atoms: C_7  and  C_8
REMARK    7  A    between atoms: C_11  and  C_12
REMARK    8  A    between atoms: C_15  and  C_16
REMARK                            x       y       z     vdW  Elec       q    Type
REMARK                         _______ _______ _______ _____ _____    ______ ____
ROOT
ATOM      1  C   UNL     1       3.217   5.372  17.694  0.00  0.00    +0.000 A 
ATOM      2  C   UNL     1       3.433   6.738  17.941  0.00  0.00    +0.000 A 
ATOM      3  N   UNL     1       4.697   7.130  17.549  0.00  0.00    +0.000 NA
ATOM      4  C   UNL     1       5.236   6.078  16.986  0.00  0.00    +0.000 A 
ATOM      5  C   UNL     1       6.536   5.898  16.421  0.00  0.00    +0.000 A 
ATOM      6  C   UNL     1       6.860   4.731  15.835  0.00  0.00    +0.000 A 
ATOM      7  C   UNL     1       5.890   3.664  15.721  0.00  0.00    +0.000 A 
ATOM      8  C   UNL     1       4.666   3.845  16.243  0.00  0.00    +0.000 A 
ATOM      9  N   UNL     1       4.344   5.008  16.939  0.00  0.00    +0.000 N 
ENDROOT
BRANCH   2  10
ATOM     10  C   UNL     1       2.555   7.710  18.583  0.00  0.00    +0.000 A 
ATOM     11  C   UNL     1       2.064   8.786  17.817  0.00  0.00    +0.000 A 
ATOM     12  C   UNL     1       1.158   9.711  18.351  0.00  0.00    +0.000 A 
ATOM     13  C   UNL     1       0.713   9.591  19.672  0.00  0.00    +0.000 A 
ATOM     14  C   UNL     1       1.203   8.528  20.442  0.00  0.00    +0.000 A 
ATOM     15  C   UNL     1       2.097   7.592  19.900  0.00  0.00    +0.000 A 
BRANCH  13  16
ATOM     16  C   UNL     1      -0.263  10.525  20.221  0.00  0.00    +0.000 A 
ATOM     17  N   UNL     1      -1.197  11.158  19.485  0.00  0.00    +0.000 NA
ATOM     18  O   UNL     1      -1.917  11.899  20.415  0.00  0.00    +0.000 OA
ATOM     19  C   UNL     1      -1.355  11.656  21.635  0.00  0.00    +0.000 A 
ATOM     20  N   UNL     1      -0.334  10.820  21.568  0.00  0.00    +0.000 NA
BRANCH  19  21
ATOM     21  C   UNL     1      -1.975  12.356  22.787  0.00  0.00    +0.000 C 
ATOM     22  F   UNL     1      -2.620  11.510  23.637  0.00  0.00    +0.000 F 
ATOM     23  F   UNL     1      -1.059  13.023  23.540  0.00  0.00    +0.000 F 
ATOM     24  F   UNL     1      -2.898  13.276  22.394  0.00  0.00    +0.000 F 
ENDBRANCH  19  21
ENDBRANCH  13  16
ENDBRANCH   2  10
BRANCH   1  25
ATOM     25  N   UNL     1       2.155   4.554  18.064  0.00  0.00    +0.000 N 
ATOM     26  H   UNL     1       1.262   5.040  17.976  0.00  0.00    +0.000 HD
BRANCH  25  28
ATOM     27  C   UNL     1       0.998   4.102  20.253  0.00  0.00    +0.000 C 
ATOM     28  C   UNL     1       2.080   3.664  19.255  0.00  0.00    +0.000 C 
ATOM     29  C   UNL     1       3.475   3.433  19.867  0.00  0.00    +0.000 C 
ATOM     30  C   UNL     1       1.663   2.247  18.772  0.00  0.00    +0.000 C 
ENDBRANCH  25  28
ENDBRANCH   1  25
TORSDOF 5
ENDMDL
MODEL 3
REMARK VINA RESULT:      -9.0      1.137      1.776
REMARK  Name = 
REMARK  8 active torsions:
REMARK  status: ('A' for Active; 'I' for Inactive)
REMARK    1  A    between atoms: C_1  and  C_2
REMARK    2  A    between atoms: C_2  and  C_3
REMARK    3  A    between atoms: C_2  and  C_4
REMARK    4  A    between atoms: C_2  and  N_5
REMARK    5  A    between atoms: N_5  and  C_6
REMARK    6  A    between atoms: C_7  and  C_8
REMARK    7  A    between atoms: C_11  and  C_12
REMARK    8  A    between atoms: C_15  and  C_16
REMARK                            x       y       z     vdW  Elec       q    Type
REMARK                         _______ _______ _______ _____ _____    ______ ____
ROOT
ATOM      1  C   UNL     1       3.267   5.363  17.641  0.00  0.00    +0.000 A 
ATOM      2  C   UNL     1       3.497   6.724  17.902  0.00  0.00    +0.000 A 
ATOM      3  N   UNL     1       4.766   7.107  17.519  0.00  0.00    +0.000 NA
ATOM      4  C   UNL     1       5.296   6.055  16.947  0.00  0.00    +0.000 A 
ATOM      5  C   UNL     1       6.596   5.866  16.385  0.00  0.00    +0.000 A 
ATOM      6  C   UNL     1       6.910   4.701  15.788  0.00  0.00    +0.000 A 
ATOM      7  C   UNL     1       5.929   3.646  15.660  0.00  0.00    +0.000 A 
ATOM      8  C   UNL     1       4.705   3.835  16.180  0.00  0.00    +0.000 A 
ATOM      9  N   UNL     1       4.392   4.994  16.886  0.00  0.00    +0.000 N 
ENDROOT
BRANCH   2  10
ATOM     10  C   UNL     1       2.627   7.699  18.550  0.00  0.00    +0.000 A 
ATOM     11  C   UNL     1       2.153   8.790  17.794  0.00  0.00    +0.000 A 
ATOM     12  C   UNL     1       1.255   9.719  18.334  0.00  0.00    +0.000 A 
ATOM     13  C   UNL     1       0.802   9.590  19.651  0.00  0.00    +0.000 A 
ATOM     14  C   UNL     1       1.275   8.512  20.411  0.00  0.00    +0.000 A 
ATOM     15  C   UNL     1       2.161   7.572  19.863  0.00  0.00    +0.000 A 
BRANCH  13  16
ATOM     16  C   UNL     1      -0.167  10.529  20.205  0.00  0.00    +0.000 A 
ATOM     17  N   UNL     1      -0.958  11.324  19.460  0.00  0.00    +0.000 NA
ATOM     18  O   UNL     1      -1.732  12.003  20.393  0.00  0.00    +0.000 OA
ATOM     19  C   UNL     1      -1.340  11.567  21.625  0.00  0.00    +0.000 A 
ATOM     20  N   UNL     1      -0.379  10.662  21.563  0.00  0.00    +0.000 NA
BRANCH  19  21
ATOM     21  C   UNL     1      -2.045  12.171  22.784  0.00  0.00    +0.000 C 
ATOM     22  F   UNL     1      -3.154  12.874  22.421  0.00  0.00    +0.000 F 
ATOM     23  F   UNL     1      -2.465  11.235  23.678  0.00  0.00    +0.000 F 
ATOM     24  F   UNL     1      -1.253  13.038  23.472  0.00  0.00    +0.000 F 
ENDBRANCH  19  21
ENDBRANCH  13  16
ENDBRANCH   2  10
BRANCH   1  25
ATOM     25  N   UNL     1       2.195   4.553  17.998  0.00  0.00    +0.000 N 
ATOM     26  H   UNL     1       1.313   5.066  17.969  0.00  0.00    +0.000 HD
BRANCH  25  28
ATOM     27  C   UNL     1       3.448   3.529  19.926  0.00  0.00    +0.000 C 
ATOM     28  C   UNL     1       2.132   3.598  19.138  0.00  0.00    +0.000 C 
ATOM     29  C   UNL     1       1.569   2.234  18.692  0.00  0.00    +0.000 C 
ATOM     30  C   UNL     1       1.063   4.113  20.141  0.00  0.00    +0.000 C 
ENDBRANCH  25  28
ENDBRANCH   1  25
TORSDOF 5
ENDMDL
MODEL 4
REMARK VINA RESULT:      -9.0      0.193      1.078
REMARK  Name = 
REMARK  8 active torsions:
REMARK  status: ('A' for Active; 'I' for Inactive)
REMARK    1  A    between atoms: C_1  and  C_2
REMARK    2  A    between atoms: C_2  and  C_3
REMARK    3  A    between atoms: C_2  and  C_4
REMARK    4  A    between atoms: C_2  and  N_5
REMARK    5  A    between atoms: N_5  and  C_6
REMARK    6  A    between atoms: C_7  and  C_8
REMARK    7  A    between atoms: C_11  and  C_12
REMARK    8  A    between atoms: C_15  and  C_16
REMARK                            x       y       z     vdW  Elec       q    Type
REMARK                         _______ _______ _______ _____ _____    ______ ____
ROOT
ATOM      1  C   UNL     1       3.532   5.324  18.369  0.00  0.00    +0.000 A 
ATOM      2  C   UNL     1       3.243   6.691  18.223  0.00  0.00    +0.000 A 
ATOM      3  N   UNL     1       3.966   7.255  17.192  0.00  0.00    +0.000 NA
ATOM      4  C   UNL     1       4.623   6.267  16.637  0.00  0.00    +0.000 A 
ATOM      5  C   UNL     1       5.543   6.268  15.545  0.00  0.00    +0.000 A 
ATOM      6  C   UNL     1       6.061   5.109  15.099  0.00  0.00    +0.000 A 
ATOM      7  C   UNL     1       5.659   3.846  15.677  0.00  0.00    +0.000 A 
ATOM      8  C   UNL     1       4.783   3.852  16.695  0.00  0.00    +0.000 A 
ATOM      9  N   UNL     1       4.312   5.046  17.235  0.00  0.00    +0.000 N 
ENDROOT
BRANCH   2  10
ATOM     10  C   UNL     1       2.372   7.541  19.028  0.00  0.00    +0.000 A 
ATOM     11  C   UNL     1       2.130   7.183  20.368  0.00  0.00    +0.000 A 
ATOM     12  C   UNL     1       1.365   7.995  21.216  0.00  0.00    +0.000 A 
ATOM     13  C   UNL     1       0.815   9.193  20.749  0.00  0.00    +0.000 A 
ATOM     14  C   UNL     1       1.046   9.552  19.414  0.00  0.00    +0.000 A 
ATOM     15  C   UNL     1       1.827   8.746  18.572  0.00  0.00    +0.000 A 
BRANCH  13  16
ATOM     16  C   UNL     1       0.055  10.065  21.638  0.00  0.00    +0.000 A 
ATOM     17  N   UNL     1       0.215  10.103  22.975  0.00  0.00    +0.000 NA
ATOM     18  O   UNL     1      -0.671  11.089  23.394  0.00  0.00    +0.000 OA
ATOM     19  C   UNL     1      -1.297  11.559  22.276  0.00  0.00    +0.000 A 
ATOM     20  N   UNL     1      -0.888  10.961  21.172  0.00  0.00    +0.000 NA
BRANCH  19  21
ATOM     21  C   UNL     1      -2.300  12.632  22.497  0.00  0.00    +0.000 C 
ATOM     22  F   UNL     1      -1.843  13.625  23.308  0.00  0.00    +0.000 F 
ATOM     23  F   UNL     1      -2.676  13.233  21.335  0.00  0.00    +0.000 F 
ATOM     24  F   UNL     1      -3.438  12.160  23.075  0.00  0.00    +0.000 F 
ENDBRANCH  19  21
ENDBRANCH  13  16
ENDBRANCH   2  10
BRANCH   1  25
ATOM     25  N   UNL     1       3.141   4.429  19.359  0.00  0.00    +0.000 N 
ATOM     26  H   UNL     1       3.948   4.046  19.855  0.00  0.00    +0.000 HD
BRANCH  25  28
ATOM     27  C   UNL     1       2.740   1.951  19.184  0.00  0.00    +0.000 C 
ATOM     28  C   UNL     1       2.119   3.353  19.244  0.00  0.00    +0.000 C 
ATOM     29  C   UNL     1       1.105   3.664  18.126  0.00  0.00    +0.000 C 
ATOM     30  C   UNL     1       1.248   3.376  20.531  0.00  0.00    +0.000 C 
ENDBRANCH  25  28
ENDBRANCH   1  25
TORSDOF 5
ENDMDL
MODEL 5
REMARK VINA RESULT:      -9.0      1.129      1.564
REMARK  Name = 
REMARK  8 active torsions:
REMARK  status: ('A' for Active; 'I' for Inactive)
REMARK    1  A    between atoms: C_1  and  C_2
REMARK    2  A    between atoms: C_2  and  C_3
REMARK    3  A    between atoms: C_2  and  C_4
REMARK    4  A    between atoms: C_2  and  N_5
REMARK    5  A    between atoms: N_5  and  C_6
REMARK    6  A    between atoms: C_7  and  C_8
REMARK    7  A    between atoms: C_11  and  C_12
REMARK    8  A    between atoms: C_15  and  C_16
REMARK                            x       y       z     vdW  Elec       q    Type
REMARK                         _______ _______ _______ _____ _____    ______ ____
ROOT
ATOM      1  C   UNL     1       3.207   5.376  17.644  0.00  0.00    +0.000 A 
ATOM      2  C   UNL     1       3.393   6.755  17.836  0.00  0.00    +0.000 A 
ATOM      3  N   UNL     1       4.668   7.149  17.484  0.00  0.00    +0.000 NA
ATOM      4  C   UNL     1       5.247   6.081  16.996  0.00  0.00    +0.000 A 
ATOM      5  C   UNL     1       6.574   5.895  16.499  0.00  0.00    +0.000 A 
ATOM      6  C   UNL     1       6.941   4.707  15.984  0.00  0.00    +0.000 A 
ATOM      7  C   UNL     1       5.992   3.621  15.875  0.00  0.00    +0.000 A 
ATOM      8  C   UNL     1       4.743   3.807  16.333  0.00  0.00    +0.000 A 
ATOM      9  N   UNL     1       4.373   4.995  16.959  0.00  0.00    +0.000 N 
ENDROOT
BRANCH   2  10
ATOM     10  C   UNL     1       2.473   7.741  18.391  0.00  0.00    +0.000 A 
ATOM     11  C   UNL     1       2.107   7.635  19.748  0.00  0.00    +0.000 A 
ATOM     12  C   UNL     1       1.288   8.592  20.362  0.00  0.00    +0.000 A 
ATOM     13  C   UNL     1       0.806   9.687  19.637  0.00  0.00    +0.000 A 
ATOM     14  C   UNL     1       1.160   9.795  18.286  0.00  0.00    +0.000 A 
ATOM     15  C   UNL     1       1.995   8.845  17.677  0.00  0.00    +0.000 A 
BRANCH  13  16
ATOM     16  C   UNL     1      -0.011  10.709  20.281  0.00  0.00    +0.000 A 
ATOM     17  N   UNL     1      -0.372  11.866  19.693  0.00  0.00    +0.000 NA
ATOM     18  O   UNL     1      -1.165  12.497  20.645  0.00  0.00    +0.000 OA
ATOM     19  C   UNL     1      -1.213  11.671  21.730  0.00  0.00    +0.000 A 
ATOM     20  N   UNL     1      -0.518  10.561  21.557  0.00  0.00    +0.000 NA
BRANCH  19  21
ATOM     21  C   UNL     1      -2.016  12.156  22.881  0.00  0.00    +0.000 C 
ATOM     22  F   UNL     1      -2.400  11.154  23.719  0.00  0.00    +0.000 F 
ATOM     23  F   UNL     1      -1.333  13.050  23.647  0.00  0.00    +0.000 F 
ATOM     24  F   UNL     1      -3.159  12.779  22.484  0.00  0.00    +0.000 F 
ENDBRANCH  19  21
ENDBRANCH  13  16
ENDBRANCH   2  10
BRANCH   1  25
ATOM     25  N   UNL     1       2.141   4.559  18.003  0.00  0.00    +0.000 N 
ATOM     26  H   UNL     1       1.254   5.062  17.957  0.00  0.00    +0.000 HD
BRANCH  25  28
ATOM     27  C   UNL     1       1.996   2.151  18.718  0.00  0.00    +0.000 C 
ATOM     28  C   UNL     1       2.078   3.620  19.156  0.00  0.00    +0.000 C 
ATOM     29  C   UNL     1       1.006   4.057  20.173  0.00  0.00    +0.000 C 
ATOM     30  C   UNL     1       3.403   3.750  19.958  0.00  0.00    +0.000 C 
ENDBRANCH  25  28
ENDBRANCH   1  25
TORSDOF 5
ENDMDL
MODEL 6
REMARK VINA RESULT:      -9.0      0.583      1.046
REMARK  Name = 
REMARK  8 active torsions:
REMARK  status: ('A' for Active; 'I' for Inactive)
REMARK    1  A    between atoms: C_1  and  C_2
REMARK    2  A    between atoms: C_2  and  C_3
REMARK    3  A    between atoms: C_2  and  C_4
REMARK    4  A    between atoms: C_2  and  N_5
REMARK    5  A    between atoms: N_5  and  C_6
REMARK    6  A    between atoms: C_7  and  C_8
REMARK    7  A    between atoms: C_11  and  C_12
REMARK    8  A    between atoms: C_15  and  C_16
REMARK                            x       y       z     vdW  Elec       q    Type
REMARK                         _______ _______ _______ _____ _____    ______ ____
ROOT
ATOM      1  C   UNL     1       3.188   5.115  17.819  0.00  0.00    +0.000 A 
ATOM      2  C   UNL     1       3.365   6.466  18.162  0.00  0.00    +0.000 A 
ATOM      3  N   UNL     1       4.574   6.951  17.706  0.00  0.00    +0.000 NA
ATOM      4  C   UNL     1       5.110   5.976  17.016  0.00  0.00    +0.000 A 
ATOM      5  C   UNL     1       6.365   5.906  16.338  0.00  0.00    +0.000 A 
ATOM      6  C   UNL     1       6.690   4.807  15.632  0.00  0.00    +0.000 A 
ATOM      7  C   UNL     1       5.761   3.706  15.505  0.00  0.00    +0.000 A 
ATOM      8  C   UNL     1       4.578   3.784  16.136  0.00  0.00    +0.000 A 
ATOM      9  N   UNL     1       4.264   4.869  16.950  0.00  0.00    +0.000 N 
ENDROOT
BRANCH   2  10
ATOM     10  C   UNL     1       2.501   7.339  18.950  0.00  0.00    +0.000 A 
ATOM     11  C   UNL     1       2.193   6.968  20.274  0.00  0.00    +0.000 A 
ATOM     12  C   UNL     1       1.433   7.797  21.108  0.00  0.00    +0.000 A 
ATOM     13  C   UNL     1       0.952   9.026  20.644  0.00  0.00    +0.000 A 
ATOM     14  C   UNL     1       1.248   9.398  19.326  0.00  0.00    +0.000 A 
ATOM     15  C   UNL     1       2.025   8.574  18.497  0.00  0.00    +0.000 A 
BRANCH  13  16
ATOM     16  C   UNL     1       0.196   9.913  21.521  0.00  0.00    +0.000 A 
ATOM     17  N   UNL     1       0.336   9.947  22.860  0.00  0.00    +0.000 NA
ATOM     18  O   UNL     1      -0.535  10.952  23.266  0.00  0.00    +0.000 OA
ATOM     19  C   UNL     1      -1.132  11.437  22.139  0.00  0.00    +0.000 A 
ATOM     20  N   UNL     1      -0.718  10.830  21.041  0.00  0.00    +0.000 NA
BRANCH  19  21
ATOM     21  C   UNL     1      -2.115  12.531  22.343  0.00  0.00    +0.000 C 
ATOM     22  F   UNL     1      -2.302  13.290  21.228  0.00  0.00    +0.000 F 
ATOM     23  F   UNL     1      -3.344  12.062  22.693  0.00  0.00    +0.000 F 
ATOM     24  F   UNL     1      -1.732  13.389  23.328  0.00  0.00    +0.000 F 
ENDBRANCH  19  21
ENDBRANCH  13  16
ENDBRANCH   2  10
BRANCH   1  25
ATOM     25  N   UNL     1       2.197   4.218  18.201  0.00  0.00    +0.000 N 
ATOM     26  H   UNL     1       1.276   4.658  18.203  0.00  0.00    +0.000 HD
BRANCH  25  28
ATOM     27  C   UNL     1       1.040   3.381  20.273  0.00  0.00    +0.000 C 
ATOM     28  C   UNL     1       2.247   3.253  19.334  0.00  0.00    +0.000 C 
ATOM     29  C   UNL     1       3.621   3.283  20.031  0.00  0.00    +0.000 C 
ATOM     30  C   UNL     1       2.177   1.816  18.746  0.00  0.00    +0.000 C 
ENDBRANCH  25  28
ENDBRANCH   1  25
TORSDOF 5
ENDMDL
MODEL 7
REMARK VINA RESULT:      -8.9      1.150      1.542
REMARK  Name = 
REMARK  8 active torsions:
REMARK  status: ('A' for Active; 'I' for Inactive)
REMARK    1  A    between atoms: C_1  and  C_2
REMARK    2  A    between atoms: C_2  and  C_3
REMARK    3  A    between atoms: C_2  and  C_4
REMARK    4  A    between atoms: C_2  and  N_5
REMARK    5  A    between atoms: N_5  and  C_6
REMARK    6  A    between atoms: C_7  and  C_8
REMARK    7  A    between atoms: C_11  and  C_12
REMARK    8  A    between atoms: C_15  and  C_16
REMARK                            x       y       z     vdW  Elec       q    Type
REMARK                         _______ _______ _______ _____ _____    ______ ____
ROOT
ATOM      1  C   UNL     1       3.180   5.377  17.694  0.00  0.00    +0.000 A 
ATOM      2  C   UNL     1       3.327   6.763  17.869  0.00  0.00    +0.000 A 
ATOM      3  N   UNL     1       4.593   7.187  17.521  0.00  0.00    +0.000 NA
ATOM      4  C   UNL     1       5.205   6.129  17.050  0.00  0.00    +0.000 A 
ATOM      5  C   UNL     1       6.539   5.974  16.564  0.00  0.00    +0.000 A 
ATOM      6  C   UNL     1       6.942   4.790  16.067  0.00  0.00    +0.000 A 
ATOM      7  C   UNL     1       6.024   3.677  15.966  0.00  0.00    +0.000 A 
ATOM      8  C   UNL     1       4.767   3.834  16.414  0.00  0.00    +0.000 A 
ATOM      9  N   UNL     1       4.360   5.020  17.021  0.00  0.00    +0.000 N 
ENDROOT
BRANCH   2  10
ATOM     10  C   UNL     1       2.376   7.731  18.406  0.00  0.00    +0.000 A 
ATOM     11  C   UNL     1       2.076   7.691  19.782  0.00  0.00    +0.000 A 
ATOM     12  C   UNL     1       1.231   8.639  20.374  0.00  0.00    +0.000 A 
ATOM     13  C   UNL     1       0.655   9.657  19.607  0.00  0.00    +0.000 A 
ATOM     14  C   UNL     1       0.943   9.697  18.236  0.00  0.00    +0.000 A 
ATOM     15  C   UNL     1       1.804   8.758  17.648  0.00  0.00    +0.000 A 
BRANCH  13  16
ATOM     16  C   UNL     1      -0.191  10.672  20.224  0.00  0.00    +0.000 A 
ATOM     17  N   UNL     1      -0.789  11.670  19.545  0.00  0.00    +0.000 NA
ATOM     18  O   UNL     1      -1.513  12.353  20.515  0.00  0.00    +0.000 OA
ATOM     19  C   UNL     1      -1.288  11.715  21.700  0.00  0.00    +0.000 A 
ATOM     20  N   UNL     1      -0.481  10.677  21.575  0.00  0.00    +0.000 NA
BRANCH  19  21
ATOM     21  C   UNL     1      -1.973  12.287  22.887  0.00  0.00    +0.000 C 
ATOM     22  F   UNL     1      -3.006  13.111  22.556  0.00  0.00    +0.000 F 
ATOM     23  F   UNL     1      -2.498  11.325  23.694  0.00  0.00    +0.000 F 
ATOM     24  F   UNL     1      -1.131  13.025  23.660  0.00  0.00    +0.000 F 
ENDBRANCH  19  21
ENDBRANCH  13  16
ENDBRANCH   2  10
BRANCH   1  25
ATOM     25  N   UNL     1       2.135   4.536  18.057  0.00  0.00    +0.000 N 
ATOM     26  H   UNL     1       1.237   5.021  18.024  0.00  0.00    +0.000 HD
BRANCH  25  28
ATOM     27  C   UNL     1       0.896   3.810  20.124  0.00  0.00    +0.000 C 
ATOM     28  C   UNL     1       2.102   3.585  19.202  0.00  0.00    +0.000 C 
ATOM     29  C   UNL     1       3.466   3.528  19.917  0.00  0.00    +0.000 C 
ATOM     30  C   UNL     1       1.939   2.148  18.632  0.00  0.00    +0.000 C 
ENDBRANCH  25  28
ENDBRANCH   1  25
TORSDOF 5
ENDMDL
MODEL 8
REMARK VINA RESULT:      -8.9      0.965      1.842
REMARK  Name = 
REMARK  8 active torsions:
REMARK  status: ('A' for Active; 'I' for Inactive)
REMARK    1  A    between atoms: C_1  and  C_2
REMARK    2  A    between atoms: C_2  and  C_3
REMARK    3  A    between atoms: C_2  and  C_4
REMARK    4  A    between atoms: C_2  and  N_5
REMARK    5  A    between atoms: N_5  and  C_6
REMARK    6  A    between atoms: C_7  and  C_8
REMARK    7  A    between atoms: C_11  and  C_12
REMARK    8  A    between atoms: C_15  and  C_16
REMARK                            x       y       z     vdW  Elec       q    Type
REMARK                         _______ _______ _______ _____ _____    ______ ____
ROOT
ATOM      1  C   UNL     1       3.638   5.453  18.242  0.00  0.00    +0.000 A 
ATOM      2  C   UNL     1       3.407   6.801  17.921  0.00  0.00    +0.000 A 
ATOM      3  N   UNL     1       4.199   7.215  16.869  0.00  0.00    +0.000 NA
ATOM      4  C   UNL     1       4.845   6.148  16.470  0.00  0.00    +0.000 A 
ATOM      5  C   UNL     1       5.817   5.990  15.435  0.00  0.00    +0.000 A 
ATOM      6  C   UNL     1       6.313   4.771  15.156  0.00  0.00    +0.000 A 
ATOM      7  C   UNL     1       5.838   3.599  15.858  0.00  0.00    +0.000 A 
ATOM      8  C   UNL     1       4.915   3.753  16.821  0.00  0.00    +0.000 A 
ATOM      9  N   UNL     1       4.462   5.017  17.191  0.00  0.00    +0.000 N 
ENDROOT
BRANCH   2  10
ATOM     10  C   UNL     1       2.530   7.767  18.573  0.00  0.00    +0.000 A 
ATOM     11  C   UNL     1       2.026   8.842  17.814  0.00  0.00    +0.000 A 
ATOM     12  C   UNL     1       1.120   9.761  18.358  0.00  0.00    +0.000 A 
ATOM     13  C   UNL     1       0.689   9.637  19.683  0.00  0.00    +0.000 A 
ATOM     14  C   UNL     1       1.192   8.575  20.446  0.00  0.00    +0.000 A 
ATOM     15  C   UNL     1       2.086   7.645  19.894  0.00  0.00    +0.000 A 
BRANCH  13  16
ATOM     16  C   UNL     1      -0.287  10.565  20.243  0.00  0.00    +0.000 A 
ATOM     17  N   UNL     1      -1.220  11.207  19.514  0.00  0.00    +0.000 NA
ATOM     18  O   UNL     1      -1.940  11.937  20.454  0.00  0.00    +0.000 OA
ATOM     19  C   UNL     1      -1.378  11.679  21.670  0.00  0.00    +0.000 A 
ATOM     20  N   UNL     1      -0.357  10.844  21.593  0.00  0.00    +0.000 NA
BRANCH  19  21
ATOM     21  C   UNL     1      -1.998  12.366  22.831  0.00  0.00    +0.000 C 
ATOM     22  F   UNL     1      -1.091  13.034  23.597  0.00  0.00    +0.000 F 
ATOM     23  F   UNL     1      -2.925  13.287  22.451  0.00  0.00    +0.000 F 
ATOM     24  F   UNL     1      -2.633  11.497  23.664  0.00  0.00    +0.000 F 
ENDBRANCH  19  21
ENDBRANCH  13  16
ENDBRANCH   2  10
BRANCH   1  25
ATOM     25  N   UNL     1       3.169   4.695  19.309  0.00  0.00    +0.000 N 
ATOM     26  H   UNL     1       3.933   4.230  19.802  0.00  0.00    +0.000 HD
BRANCH  25  28
ATOM     27  C   UNL     1       1.271   3.741  17.960  0.00  0.00    +0.000 C 
ATOM     28  C   UNL     1       1.996   3.779  19.312  0.00  0.00    +0.000 C 
ATOM     29  C   UNL     1       1.088   4.040  20.530  0.00  0.00    +0.000 C 
ATOM     30  C   UNL     1       2.513   2.333  19.557  0.00  0.00    +0.000 C 
ENDBRANCH  25  28
ENDBRANCH   1  25
TORSDOF 5
ENDMDL
MODEL 9
REMARK VINA RESULT:      -8.9      1.015      1.335
REMARK  Name = 
REMARK  8 active torsions:
REMARK  status: ('A' for Active; 'I' for Inactive)
REMARK    1  A    between atoms: C_1  and  C_2
REMARK    2  A    between atoms: C_2  and  C_3
REMARK    3  A    between atoms: C_2  and  C_4
REMARK    4  A    between atoms: C_2  and  N_5
REMARK    5  A    between atoms: N_5  and  C_6
REMARK    6  A    between atoms: C_7  and  C_8
REMARK    7  A    between atoms: C_11  and  C_12
REMARK    8  A    between atoms: C_15  and  C_16
REMARK                            x       y       z     vdW  Elec       q    Type
REMARK                         _______ _______ _______ _____ _____    ______ ____
ROOT
ATOM      1  C   UNL     1       3.282   5.315  17.599  0.00  0.00    +0.000 A 
ATOM      2  C   UNL     1       3.470   6.678  17.886  0.00  0.00    +0.000 A 
ATOM      3  N   UNL     1       4.735   7.101  17.532  0.00  0.00    +0.000 NA
ATOM      4  C   UNL     1       5.304   6.073  16.954  0.00  0.00    +0.000 A 
ATOM      5  C   UNL     1       6.618   5.929  16.412  0.00  0.00    +0.000 A 
ATOM      6  C   UNL     1       6.975   4.783  15.803  0.00  0.00    +0.000 A 
ATOM      7  C   UNL     1       6.026   3.704  15.639  0.00  0.00    +0.000 A 
ATOM      8  C   UNL     1       4.788   3.851  16.140  0.00  0.00    +0.000 A 
ATOM      9  N   UNL     1       4.431   4.990  16.859  0.00  0.00    +0.000 N 
ENDROOT
BRANCH   2  10
ATOM     10  C   UNL     1       2.562   7.617  18.534  0.00  0.00    +0.000 A 
ATOM     11  C   UNL     1       2.212   7.399  19.881  0.00  0.00    +0.000 A 
ATOM     12  C   UNL     1       1.405   8.304  20.583  0.00  0.00    +0.000 A 
ATOM     13  C   UNL     1       0.920   9.458  19.960  0.00  0.00    +0.000 A 
ATOM     14  C   UNL     1       1.259   9.678  18.618  0.00  0.00    +0.000 A 
ATOM     15  C   UNL     1       2.081   8.780  17.921  0.00  0.00    +0.000 A 
BRANCH  13  16
ATOM     16  C   UNL     1       0.117  10.426  20.698  0.00  0.00    +0.000 A 
ATOM     17  N   UNL     1       0.444  10.907  21.913  0.00  0.00    +0.000 NA
ATOM     18  O   UNL     1      -0.570  11.814  22.202  0.00  0.00    +0.000 OA
ATOM     19  C   UNL     1      -1.427  11.801  21.140  0.00  0.00    +0.000 A 
ATOM     20  N   UNL     1      -1.050  10.963  20.191  0.00  0.00    +0.000 NA
BRANCH  19  21
ATOM     21  C   UNL     1      -2.598  12.707  21.240  0.00  0.00    +0.000 C 
ATOM     22  F   UNL     1      -3.489  12.319  22.194  0.00  0.00    +0.000 F 
ATOM     23  F   UNL     1      -2.239  13.982  21.552  0.00  0.00    +0.000 F 
ATOM     24  F   UNL     1      -3.297  12.776  20.074  0.00  0.00    +0.000 F 
ENDBRANCH  19  21
ENDBRANCH  13  16
ENDBRANCH   2  10
BRANCH   1  25
ATOM     25  N   UNL     1       2.227   4.470  17.924  0.00  0.00    +0.000 N 
ATOM     26  H   UNL     1       1.332   4.961  17.891  0.00  0.00    +0.000 HD
BRANCH  25  28
ATOM     27  C   UNL     1       2.308   2.038  18.566  0.00  0.00    +0.000 C 
ATOM     28  C   UNL     1       2.173   3.491  19.043  0.00  0.00    +0.000 C 
ATOM     29  C   UNL     1       0.968   3.764  19.965  0.00  0.00    +0.000 C 
ATOM     30  C   UNL     1       3.395   3.748  19.969  0.00  0.00    +0.000 C 
ENDBRANCH  25  28
ENDBRANCH   1  25
TORSDOF 5
ENDMDL
