MODEL 1
REMARK VINA RESULT:      -6.7      0.000      0.000
REMARK  Name = 
REMARK  3 active torsions:
REMARK  status: ('A' for Active; 'I' for Inactive)
REMARK    1  A    between atoms: C_2  and  O_3
REMARK    2  A    between atoms: C_2  and  C_4
REMARK    3  A    between atoms: C_13  and  O_14
REMARK                            x       y       z     vdW  Elec       q    Type
REMARK                         _______ _______ _______ _____ _____    ______ ____
ROOT
ATOM      1  C   UNL     1       6.523   5.232  18.512  0.00  0.00    +0.000 A 
ATOM      2  C   UNL     1       5.265   5.269  19.140  0.00  0.00    +0.000 A 
ATOM      3  C   UNL     1       4.216   4.671  18.481  0.00  0.00    +0.000 A 
ATOM      4  N   UNL     1       2.902   4.549  18.824  0.00  0.00    +0.000 N 
ATOM      5  C   UNL     1       2.264   3.867  17.814  0.00  0.00    +0.000 A 
ATOM      6  O   UNL     1       1.074   3.590  17.797  0.00  0.00    +0.000 OA
ATOM      7  O   UNL     1       3.160   3.526  16.791  0.00  0.00    +0.000 OA
ATOM      8  C   UNL     1       4.354   4.051  17.260  0.00  0.00    +0.000 A 
ATOM      9  C   UNL     1       5.568   3.990  16.613  0.00  0.00    +0.000 A 
ATOM     10  C   UNL     1       6.660   4.592  17.252  0.00  0.00    +0.000 A 
ATOM     11  H   UNL     1       2.437   4.888  19.652  0.00  0.00    +0.000 HD
ENDROOT
BRANCH   1  13
ATOM     12  O   UNL     1       8.269   6.830  18.753  0.00  0.00    +0.000 OA
ATOM     13  C   UNL     1       7.650   5.894  19.234  0.00  0.00    +0.000 C 
BRANCH  13  14
ATOM     14  O   UNL     1       7.937   5.390  20.451  0.00  0.00    +0.000 OA
ATOM     15  H   UNL     1       8.901   5.383  20.641  0.00  0.00    +0.000 HD
ENDBRANCH  13  14
ENDBRANCH   1  13
BRANCH  10  16
ATOM     16  O   UNL     1       7.888   4.556  16.637  0.00  0.00    +0.000 OA
ATOM     17  H   UNL     1       7.913   5.240  15.940  0.00  0.00    +0.000 HD
ENDBRANCH  10  16
TORSDOF 3
ENDMDL
MODEL 2
REMARK VINA RESULT:      -6.6      2.231      4.961
REMARK  Name = 
REMARK  3 active torsions:
REMARK  status: ('A' for Active; 'I' for Inactive)
REMARK    1  A    between atoms: C_2  and  O_3
REMARK    2  A    between atoms: C_2  and  C_4
REMARK    3  A    between atoms: C_13  and  O_14
REMARK                            x       y       z     vdW  Elec       q    Type
REMARK                         _______ _______ _______ _____ _____    ______ ____
ROOT
ATOM      1  C   UNL     1       2.860   3.187  19.677  0.00  0.00    +0.000 A 
ATOM      2  C   UNL     1       4.213   3.553  19.797  0.00  0.00    +0.000 A 
ATOM      3  C   UNL     1       4.900   3.808  18.634  0.00  0.00    +0.000 A 
ATOM      4  N   UNL     1       6.199   4.171  18.427  0.00  0.00    +0.000 N 
ATOM      5  C   UNL     1       6.390   4.297  17.071  0.00  0.00    +0.000 A 
ATOM      6  O   UNL     1       7.445   4.606  16.537  0.00  0.00    +0.000 OA
ATOM      7  O   UNL     1       5.209   4.021  16.366  0.00  0.00    +0.000 OA
ATOM      8  C   UNL     1       4.321   3.724  17.387  0.00  0.00    +0.000 A 
ATOM      9  C   UNL     1       2.999   3.373  17.226  0.00  0.00    +0.000 A 
ATOM     10  C   UNL     1       2.268   3.102  18.390  0.00  0.00    +0.000 A 
ATOM     11  H   UNL     1       6.922   4.324  19.112  0.00  0.00    +0.000 HD
ENDROOT
BRANCH   1  13
ATOM     12  O   UNL     1       2.696   2.469  21.939  0.00  0.00    +0.000 OA
ATOM     13  C   UNL     1       2.129   2.902  20.948  0.00  0.00    +0.000 C 
BRANCH  13  14
ATOM     14  O   UNL     1       0.806   3.157  20.928  0.00  0.00    +0.000 OA
ATOM     15  H   UNL     1       0.312   2.653  21.612  0.00  0.00    +0.000 HD
ENDBRANCH  13  14
ENDBRANCH   1  13
BRANCH  10  16
ATOM     16  O   UNL     1       0.947   2.744  18.271  0.00  0.00    +0.000 OA
ATOM     17  H   UNL     1       0.878   1.982  17.664  0.00  0.00    +0.000 HD
ENDBRANCH  10  16
TORSDOF 3
ENDMDL
MODEL 3
REMARK VINA RESULT:      -6.3      2.219      3.350
REMARK  Name = 
REMARK  3 active torsions:
REMARK  status: ('A' for Active; 'I' for Inactive)
REMARK    1  A    between atoms: C_2  and  O_3
REMARK    2  A    between atoms: C_2  and  C_4
REMARK    3  A    between atoms: C_13  and  O_14
REMARK                            x       y       z     vdW  Elec       q    Type
REMARK                         _______ _______ _______ _____ _____    ______ ____
ROOT
ATOM      1  C   UNL     1       6.215   4.906  16.139  0.00  0.00    +0.000 A 
ATOM      2  C   UNL     1       4.905   5.415  16.202  0.00  0.00    +0.000 A 
ATOM      3  C   UNL     1       4.360   5.594  17.451  0.00  0.00    +0.000 A 
ATOM      4  N   UNL     1       3.134   6.055  17.831  0.00  0.00    +0.000 N 
ATOM      5  C   UNL     1       3.082   6.035  19.205  0.00  0.00    +0.000 A 
ATOM      6  O   UNL     1       2.122   6.378  19.877  0.00  0.00    +0.000 OA
ATOM      7  O   UNL     1       4.285   5.561  19.749  0.00  0.00    +0.000 OA
ATOM      8  C   UNL     1       5.038   5.304  18.614  0.00  0.00    +0.000 A 
ATOM      9  C   UNL     1       6.323   4.808  18.597  0.00  0.00    +0.000 A 
ATOM     10  C   UNL     1       6.910   4.608  17.341  0.00  0.00    +0.000 A 
ATOM     11  H   UNL     1       2.371   6.359  17.246  0.00  0.00    +0.000 HD
ENDROOT
BRANCH   1  13
ATOM     12  O   UNL     1       6.321   3.904  13.985  0.00  0.00    +0.000 OA
ATOM     13  C   UNL     1       6.790   4.707  14.775  0.00  0.00    +0.000 C 
BRANCH  13  14
ATOM     14  O   UNL     1       7.859   5.473  14.477  0.00  0.00    +0.000 OA
ATOM     15  H   UNL     1       8.561   4.975  14.002  0.00  0.00    +0.000 HD
ENDBRANCH  13  14
ENDBRANCH   1  13
BRANCH  10  16
ATOM     16  O   UNL     1       8.189   4.111  17.281  0.00  0.00    +0.000 OA
ATOM     17  H   UNL     1       8.665   4.548  16.548  0.00  0.00    +0.000 HD
ENDBRANCH  10  16
TORSDOF 3
ENDMDL
MODEL 4
REMARK VINA RESULT:      -6.3      2.618      5.182
REMARK  Name = 
REMARK  3 active torsions:
REMARK  status: ('A' for Active; 'I' for Inactive)
REMARK    1  A    between atoms: C_2  and  O_3
REMARK    2  A    between atoms: C_2  and  C_4
REMARK    3  A    between atoms: C_13  and  O_14
REMARK                            x       y       z     vdW  Elec       q    Type
REMARK                         _______ _______ _______ _____ _____    ______ ____
ROOT
ATOM      1  C   UNL     1       2.947   3.950  20.338  0.00  0.00    +0.000 A 
ATOM      2  C   UNL     1       4.095   3.328  19.814  0.00  0.00    +0.000 A 
ATOM      3  C   UNL     1       4.916   4.092  19.020  0.00  0.00    +0.000 A 
ATOM      4  N   UNL     1       6.076   3.778  18.374  0.00  0.00    +0.000 N 
ATOM      5  C   UNL     1       6.504   4.900  17.704  0.00  0.00    +0.000 A 
ATOM      6  O   UNL     1       7.512   4.966  17.017  0.00  0.00    +0.000 OA
ATOM      7  O   UNL     1       5.625   5.975  17.907  0.00  0.00    +0.000 OA
ATOM      8  C   UNL     1       4.661   5.414  18.729  0.00  0.00    +0.000 A 
ATOM      9  C   UNL     1       3.551   6.061  19.224  0.00  0.00    +0.000 A 
ATOM     10  C   UNL     1       2.688   5.313  20.035  0.00  0.00    +0.000 A 
ATOM     11  H   UNL     1       6.564   2.896  18.358  0.00  0.00    +0.000 HD
ENDROOT
BRANCH   1  13
ATOM     12  O   UNL     1       2.482   2.486  22.154  0.00  0.00    +0.000 OA
ATOM     13  C   UNL     1       2.059   3.105  21.190  0.00  0.00    +0.000 C 
BRANCH  13  14
ATOM     14  O   UNL     1       0.761   3.072  20.825  0.00  0.00    +0.000 OA
ATOM     15  H   UNL     1       0.204   2.558  21.451  0.00  0.00    +0.000 HD
ENDBRANCH  13  14
ENDBRANCH   1  13
BRANCH  10  16
ATOM     16  O   UNL     1       1.567   5.922  20.545  0.00  0.00    +0.000 OA
ATOM     17  H   UNL     1       1.834   6.737  21.012  0.00  0.00    +0.000 HD
ENDBRANCH  10  16
TORSDOF 3
ENDMDL
MODEL 5
REMARK VINA RESULT:      -6.3      2.030      2.590
REMARK  Name = 
REMARK  3 active torsions:
REMARK  status: ('A' for Active; 'I' for Inactive)
REMARK    1  A    between atoms: C_2  and  O_3
REMARK    2  A    between atoms: C_2  and  C_4
REMARK    3  A    between atoms: C_13  and  O_14
REMARK                            x       y       z     vdW  Elec       q    Type
REMARK                         _______ _______ _______ _____ _____    ______ ____
ROOT
ATOM      1  C   UNL     1       5.687   4.942  16.799  0.00  0.00    +0.000 A 
ATOM      2  C   UNL     1       4.988   3.722  16.851  0.00  0.00    +0.000 A 
ATOM      3  C   UNL     1       3.707   3.753  17.349  0.00  0.00    +0.000 A 
ATOM      4  N   UNL     1       2.796   2.754  17.529  0.00  0.00    +0.000 N 
ATOM      5  C   UNL     1       1.660   3.310  18.069  0.00  0.00    +0.000 A 
ATOM      6  O   UNL     1       0.647   2.693  18.362  0.00  0.00    +0.000 OA
ATOM      7  O   UNL     1       1.811   4.693  18.247  0.00  0.00    +0.000 OA
ATOM      8  C   UNL     1       3.099   4.909  17.784  0.00  0.00    +0.000 A 
ATOM      9  C   UNL     1       3.747   6.124  17.747  0.00  0.00    +0.000 A 
ATOM     10  C   UNL     1       5.056   6.131  17.248  0.00  0.00    +0.000 A 
ATOM     11  H   UNL     1       2.896   1.772  17.324  0.00  0.00    +0.000 HD
ENDROOT
BRANCH   1  13
ATOM     12  O   UNL     1       7.417   5.510  15.268  0.00  0.00    +0.000 OA
ATOM     13  C   UNL     1       7.081   4.891  16.265  0.00  0.00    +0.000 C 
BRANCH  13  14
ATOM     14  O   UNL     1       7.940   4.116  16.957  0.00  0.00    +0.000 OA
ATOM     15  H   UNL     1       7.628   3.189  17.046  0.00  0.00    +0.000 HD
ENDBRANCH  13  14
ENDBRANCH   1  13
BRANCH  10  16
ATOM     16  O   UNL     1       5.738   7.323  17.199  0.00  0.00    +0.000 OA
ATOM     17  H   UNL     1       6.694   7.145  17.289  0.00  0.00    +0.000 HD
ENDBRANCH  10  16
TORSDOF 3
ENDMDL
MODEL 6
REMARK VINA RESULT:      -6.2      2.497      4.507
REMARK  Name = 
REMARK  3 active torsions:
REMARK  status: ('A' for Active; 'I' for Inactive)
REMARK    1  A    between atoms: C_2  and  O_3
REMARK    2  A    between atoms: C_2  and  C_4
REMARK    3  A    between atoms: C_13  and  O_14
REMARK                            x       y       z     vdW  Elec       q    Type
REMARK                         _______ _______ _______ _____ _____    ______ ____
ROOT
ATOM      1  C   UNL     1       5.315   4.008  18.021  0.00  0.00    +0.000 A 
ATOM      2  C   UNL     1       5.107   3.669  16.671  0.00  0.00    +0.000 A 
ATOM      3  C   UNL     1       5.969   4.210  15.748  0.00  0.00    +0.000 A 
ATOM      4  N   UNL     1       6.020   4.077  14.391  0.00  0.00    +0.000 N 
ATOM      5  C   UNL     1       7.074   4.832  13.932  0.00  0.00    +0.000 A 
ATOM      6  O   UNL     1       7.400   4.942  12.760  0.00  0.00    +0.000 OA
ATOM      7  O   UNL     1       7.737   5.470  14.991  0.00  0.00    +0.000 OA
ATOM      8  C   UNL     1       7.007   5.047  16.090  0.00  0.00    +0.000 A 
ATOM      9  C   UNL     1       7.248   5.401  17.400  0.00  0.00    +0.000 A 
ATOM     10  C   UNL     1       6.387   4.872  18.369  0.00  0.00    +0.000 A 
ATOM     11  H   UNL     1       5.412   3.540  13.792  0.00  0.00    +0.000 HD
ENDROOT
BRANCH   1  13
ATOM     12  O   UNL     1       3.176   3.702  19.016  0.00  0.00    +0.000 OA
ATOM     13  C   UNL     1       4.364   3.421  19.012  0.00  0.00    +0.000 C 
BRANCH  13  14
ATOM     14  O   UNL     1       4.905   2.562  19.899  0.00  0.00    +0.000 OA
ATOM     15  H   UNL     1       4.578   1.642  19.785  0.00  0.00    +0.000 HD
ENDBRANCH  13  14
ENDBRANCH   1  13
BRANCH  10  16
ATOM     16  O   UNL     1       6.591   5.204  19.687  0.00  0.00    +0.000 OA
ATOM     17  H   UNL     1       7.550   5.301  19.844  0.00  0.00    +0.000 HD
ENDBRANCH  10  16
TORSDOF 3
ENDMDL
MODEL 7
REMARK VINA RESULT:      -6.2      1.892      5.215
REMARK  Name = 
REMARK  3 active torsions:
REMARK  status: ('A' for Active; 'I' for Inactive)
REMARK    1  A    between atoms: C_2  and  O_3
REMARK    2  A    between atoms: C_2  and  C_4
REMARK    3  A    between atoms: C_13  and  O_14
REMARK                            x       y       z     vdW  Elec       q    Type
REMARK                         _______ _______ _______ _____ _____    ______ ____
ROOT
ATOM      1  C   UNL     1       2.670   3.900  18.937  0.00  0.00    +0.000 A 
ATOM      2  C   UNL     1       3.463   3.368  17.903  0.00  0.00    +0.000 A 
ATOM      3  C   UNL     1       4.708   3.920  17.719  0.00  0.00    +0.000 A 
ATOM      4  N   UNL     1       5.687   3.630  16.815  0.00  0.00    +0.000 N 
ATOM      5  C   UNL     1       6.743   4.480  17.049  0.00  0.00    +0.000 A 
ATOM      6  O   UNL     1       7.786   4.495  16.413  0.00  0.00    +0.000 OA
ATOM      7  O   UNL     1       6.470   5.341  18.121  0.00  0.00    +0.000 OA
ATOM      8  C   UNL     1       5.195   4.948  18.496  0.00  0.00    +0.000 A 
ATOM      9  C   UNL     1       4.453   5.494  19.519  0.00  0.00    +0.000 A 
ATOM     10  C   UNL     1       3.176   4.959  19.734  0.00  0.00    +0.000 A 
ATOM     11  H   UNL     1       5.679   2.933  16.086  0.00  0.00    +0.000 HD
ENDROOT
BRANCH   1  13
ATOM     12  O   UNL     1       0.689   2.817  18.186  0.00  0.00    +0.000 OA
ATOM     13  C   UNL     1       1.315   3.297  19.117  0.00  0.00    +0.000 C 
BRANCH  13  14
ATOM     14  O   UNL     1       0.833   3.318  20.376  0.00  0.00    +0.000 OA
ATOM     15  H   UNL     1       0.091   2.687  20.508  0.00  0.00    +0.000 HD
ENDBRANCH  13  14
ENDBRANCH   1  13
BRANCH  10  16
ATOM     16  O   UNL     1       2.402   5.480  20.743  0.00  0.00    +0.000 OA
ATOM     17  H   UNL     1       1.536   5.741  20.375  0.00  0.00    +0.000 HD
ENDBRANCH  10  16
TORSDOF 3
ENDMDL
MODEL 8
REMARK VINA RESULT:      -6.2      2.074      3.369
REMARK  Name = 
REMARK  3 active torsions:
REMARK  status: ('A' for Active; 'I' for Inactive)
REMARK    1  A    between atoms: C_2  and  O_3
REMARK    2  A    between atoms: C_2  and  C_4
REMARK    3  A    between atoms: C_13  and  O_14
REMARK                            x       y       z     vdW  Elec       q    Type
REMARK                         _______ _______ _______ _____ _____    ______ ____
ROOT
ATOM      1  C   UNL     1       6.258   4.842  15.913  0.00  0.00    +0.000 A 
ATOM      2  C   UNL     1       5.237   3.957  16.307  0.00  0.00    +0.000 A 
ATOM      3  C   UNL     1       4.689   4.145  17.553  0.00  0.00    +0.000 A 
ATOM      4  N   UNL     1       3.706   3.461  18.208  0.00  0.00    +0.000 N 
ATOM      5  C   UNL     1       3.531   4.048  19.439  0.00  0.00    +0.000 A 
ATOM      6  O   UNL     1       2.731   3.680  20.284  0.00  0.00    +0.000 OA
ATOM      7  O   UNL     1       4.399   5.137  19.607  0.00  0.00    +0.000 OA
ATOM      8  C   UNL     1       5.092   5.147  18.407  0.00  0.00    +0.000 A 
ATOM      9  C   UNL     1       6.085   6.037  18.059  0.00  0.00    +0.000 A 
ATOM     10  C   UNL     1       6.670   5.874  16.797  0.00  0.00    +0.000 A 
ATOM     11  H   UNL     1       3.183   2.661  17.889  0.00  0.00    +0.000 HD
ENDROOT
BRANCH   1  13
ATOM     12  O   UNL     1       7.676   5.380  14.081  0.00  0.00    +0.000 OA
ATOM     13  C   UNL     1       6.851   4.619  14.561  0.00  0.00    +0.000 C 
BRANCH  13  14
ATOM     14  O   UNL     1       6.415   3.523  13.909  0.00  0.00    +0.000 OA
ATOM     15  H   UNL     1       6.721   3.491  12.975  0.00  0.00    +0.000 HD
ENDBRANCH  13  14
ENDBRANCH   1  13
BRANCH  10  16
ATOM     16  O   UNL     1       7.667   6.738  16.415  0.00  0.00    +0.000 OA
ATOM     17  H   UNL     1       7.342   7.290  15.677  0.00  0.00    +0.000 HD
ENDBRANCH  10  16
TORSDOF 3
ENDMDL
MODEL 9
REMARK VINA RESULT:      -6.2      1.629      2.601
REMARK  Name = 
REMARK  3 active torsions:
REMARK  status: ('A' for Active; 'I' for Inactive)
REMARK    1  A    between atoms: C_2  and  O_3
REMARK    2  A    between atoms: C_2  and  C_4
REMARK    3  A    between atoms: C_13  and  O_14
REMARK                            x       y       z     vdW  Elec       q    Type
REMARK                         _______ _______ _______ _____ _____    ______ ____
ROOT
ATOM      1  C   UNL     1       5.637   4.501  17.443  0.00  0.00    +0.000 A 
ATOM      2  C   UNL     1       4.525   3.942  16.787  0.00  0.00    +0.000 A 
ATOM      3  C   UNL     1       3.464   3.554  17.570  0.00  0.00    +0.000 A 
ATOM      4  N   UNL     1       2.270   2.985  17.235  0.00  0.00    +0.000 N 
ATOM      5  C   UNL     1       1.558   2.785  18.394  0.00  0.00    +0.000 A 
ATOM      6  O   UNL     1       0.444   2.287  18.457  0.00  0.00    +0.000 OA
ATOM      7  O   UNL     1       2.280   3.227  19.513  0.00  0.00    +0.000 OA
ATOM      8  C   UNL     1       3.452   3.692  18.940  0.00  0.00    +0.000 A 
ATOM      9  C   UNL     1       4.519   4.237  19.620  0.00  0.00    +0.000 A 
ATOM     10  C   UNL     1       5.620   4.642  18.855  0.00  0.00    +0.000 A 
ATOM     11  H   UNL     1       1.931   2.734  16.319  0.00  0.00    +0.000 HD
ENDROOT
BRANCH   1  13
ATOM     12  O   UNL     1       6.652   5.675  15.640  0.00  0.00    +0.000 OA
ATOM     13  C   UNL     1       6.786   4.909  16.580  0.00  0.00    +0.000 C 
BRANCH  13  14
ATOM     14  O   UNL     1       7.979   4.374  16.910  0.00  0.00    +0.000 OA
ATOM     15  H   UNL     1       8.633   4.424  16.177  0.00  0.00    +0.000 HD
ENDBRANCH  13  14
ENDBRANCH   1  13
BRANCH  10  16
ATOM     16  O   UNL     1       6.706   5.186  19.497  0.00  0.00    +0.000 OA
ATOM     17  H   UNL     1       7.345   5.501  18.828  0.00  0.00    +0.000 HD
ENDBRANCH  10  16
TORSDOF 3
ENDMDL
