MODEL 1
REMARK VINA RESULT:      -6.8      0.000      0.000
REMARK  Name = 
REMARK  5 active torsions:
REMARK  status: ('A' for Active; 'I' for Inactive)
REMARK    1  A    between atoms: C_1  and  C_2
REMARK    2  A    between atoms: C_2  and  O_3
REMARK    3  A    between atoms: O_3  and  C_4
REMARK    4  A    between atoms: C_11  and  C_13
REMARK    5  A    between atoms: C_13  and  C_14
REMARK                            x       y       z     vdW  Elec       q    Type
REMARK                         _______ _______ _______ _____ _____    ______ ____
ROOT
ATOM      1  C   UNL     1       4.997   3.967  16.701  0.00  0.00    +0.000 A 
ATOM      2  C   UNL     1       4.286   3.283  17.684  0.00  0.00    +0.000 A 
ATOM      3  C   UNL     1       3.410   3.962  18.541  0.00  0.00    +0.000 A 
ATOM      4  C   UNL     1       3.238   5.352  18.412  0.00  0.00    +0.000 A 
ATOM      5  N   UNL     1       2.427   6.153  19.205  0.00  0.00    +0.000 NA
ATOM      6  C   UNL     1       2.449   7.385  18.754  0.00  0.00    +0.000 A 
ATOM      7  N   UNL     1       1.719   8.391  19.348  0.00  0.00    +0.000 N 
ATOM      8  C   UNL     1       1.426   9.591  18.747  0.00  0.00    +0.000 C 
ATOM      9  O   UNL     1       1.726   9.938  17.615  0.00  0.00    +0.000 OA
ATOM     10  S   UNL     1       3.516   7.679  17.454  0.00  0.00    +0.000 S 
ATOM     11  C   UNL     1       3.941   6.016  17.407  0.00  0.00    +0.000 A 
ATOM     12  C   UNL     1       4.827   5.347  16.546  0.00  0.00    +0.000 A 
ATOM     13  H   UNL     1       1.265   8.126  20.209  0.00  0.00    +0.000 HD
ENDROOT
BRANCH   8  14
ATOM     14  C   UNL     1       0.687  10.598  19.592  0.00  0.00    +0.000 C 
ATOM     15  C   UNL     1       1.240  12.006  19.492  0.00  0.00    +0.000 C 
ATOM     16  C   UNL     1      -0.836  10.436  19.492  0.00  0.00    +0.000 C 
ATOM     17  C   UNL     1      -0.154  10.225  20.806  0.00  0.00    +0.000 C 
ATOM     18 BR   UNL     1      -0.127   8.460  21.527  0.00  0.00    +0.000 Br
ATOM     19 BR   UNL     1      -0.564  11.512  22.173  0.00  0.00    +0.000 Br
ENDBRANCH   8  14
BRANCH   1  20
ATOM     20  O   UNL     1       5.887   3.395  15.828  0.00  0.00    +0.000 OA
BRANCH  20  22
ATOM     21  C   UNL     1       6.239   3.817  13.494  0.00  0.00    +0.000 C 
ATOM     22  C   UNL     1       6.524   4.282  14.908  0.00  0.00    +0.000 C 
ENDBRANCH  20  22
ENDBRANCH   1  20
TORSDOF 3
ENDMDL
MODEL 2
REMARK VINA RESULT:      -6.8      1.586      2.026
REMARK  Name = 
REMARK  5 active torsions:
REMARK  status: ('A' for Active; 'I' for Inactive)
REMARK    1  A    between atoms: C_1  and  C_2
REMARK    2  A    between atoms: C_2  and  O_3
REMARK    3  A    between atoms: O_3  and  C_4
REMARK    4  A    between atoms: C_11  and  C_13
REMARK    5  A    between atoms: C_13  and  C_14
REMARK                            x       y       z     vdW  Elec       q    Type
REMARK                         _______ _______ _______ _____ _____    ______ ____
ROOT
ATOM      1  C   UNL     1       5.702   5.327  15.851  0.00  0.00    +0.000 A 
ATOM      2  C   UNL     1       5.629   4.283  16.770  0.00  0.00    +0.000 A 
ATOM      3  C   UNL     1       4.884   4.414  17.949  0.00  0.00    +0.000 A 
ATOM      4  C   UNL     1       4.195   5.612  18.215  0.00  0.00    +0.000 A 
ATOM      5  N   UNL     1       3.443   5.889  19.349  0.00  0.00    +0.000 NA
ATOM      6  C   UNL     1       2.881   7.068  19.226  0.00  0.00    +0.000 A 
ATOM      7  N   UNL     1       2.065   7.591  20.206  0.00  0.00    +0.000 N 
ATOM      8  C   UNL     1       1.190   8.631  20.009  0.00  0.00    +0.000 C 
ATOM      9  O   UNL     1       0.975   9.221  18.961  0.00  0.00    +0.000 OA
ATOM     10  S   UNL     1       3.307   7.952  17.830  0.00  0.00    +0.000 S 
ATOM     11  C   UNL     1       4.261   6.638  17.272  0.00  0.00    +0.000 A 
ATOM     12  C   UNL     1       5.011   6.520  16.089  0.00  0.00    +0.000 A 
ATOM     13  H   UNL     1       2.030   7.047  21.055  0.00  0.00    +0.000 HD
ENDROOT
BRANCH   8  14
ATOM     14  C   UNL     1       0.444   9.116  21.227  0.00  0.00    +0.000 C 
ATOM     15  C   UNL     1      -0.645   8.172  21.695  0.00  0.00    +0.000 C 
ATOM     16  C   UNL     1       1.387   9.682  22.299  0.00  0.00    +0.000 C 
ATOM     17  C   UNL     1       0.380  10.577  21.651  0.00  0.00    +0.000 C 
ATOM     18 BR   UNL     1       1.020  11.968  20.514  0.00  0.00    +0.000 Br
ATOM     19 BR   UNL     1      -1.018  11.226  22.798  0.00  0.00    +0.000 Br
ENDBRANCH   8  14
BRANCH   1  20
ATOM     20  O   UNL     1       6.416   5.299  14.680  0.00  0.00    +0.000 OA
BRANCH  20  22
ATOM     21  C   UNL     1       5.454   3.880  13.003  0.00  0.00    +0.000 C 
ATOM     22  C   UNL     1       6.540   4.023  14.051  0.00  0.00    +0.000 C 
ENDBRANCH  20  22
ENDBRANCH   1  20
TORSDOF 3
ENDMDL
MODEL 3
REMARK VINA RESULT:      -6.8      1.202      1.371
REMARK  Name = 
REMARK  5 active torsions:
REMARK  status: ('A' for Active; 'I' for Inactive)
REMARK    1  A    between atoms: C_1  and  C_2
REMARK    2  A    between atoms: C_2  and  O_3
REMARK    3  A    between atoms: O_3  and  C_4
REMARK    4  A    between atoms: C_11  and  C_13
REMARK    5  A    between atoms: C_13  and  C_14
REMARK                            x       y       z     vdW  Elec       q    Type
REMARK                         _______ _______ _______ _____ _____    ______ ____
ROOT
ATOM      1  C   UNL     1       5.100   4.041  16.544  0.00  0.00    +0.000 A 
ATOM      2  C   UNL     1       4.235   3.309  17.355  0.00  0.00    +0.000 A 
ATOM      3  C   UNL     1       3.280   3.953  18.152  0.00  0.00    +0.000 A 
ATOM      4  C   UNL     1       3.183   5.356  18.137  0.00  0.00    +0.000 A 
ATOM      5  N   UNL     1       2.305   6.123  18.891  0.00  0.00    +0.000 NA
ATOM      6  C   UNL     1       2.438   7.388  18.568  0.00  0.00    +0.000 A 
ATOM      7  N   UNL     1       1.676   8.374  19.156  0.00  0.00    +0.000 N 
ATOM      8  C   UNL     1       1.515   9.637  18.641  0.00  0.00    +0.000 C 
ATOM      9  O   UNL     1       1.978  10.068  17.597  0.00  0.00    +0.000 OA
ATOM     10  S   UNL     1       3.681   7.742  17.453  0.00  0.00    +0.000 S 
ATOM     11  C   UNL     1       4.041   6.070  17.302  0.00  0.00    +0.000 A 
ATOM     12  C   UNL     1       5.008   5.436  16.503  0.00  0.00    +0.000 A 
ATOM     13  H   UNL     1       1.099   8.056  19.921  0.00  0.00    +0.000 HD
ENDROOT
BRANCH   8  14
ATOM     14  C   UNL     1       0.710  10.601  19.477  0.00  0.00    +0.000 C 
ATOM     15  C   UNL     1       1.116  10.633  20.936  0.00  0.00    +0.000 C 
ATOM     16  C   UNL     1       0.511  11.952  18.776  0.00  0.00    +0.000 C 
ATOM     17  C   UNL     1      -0.676  11.099  19.090  0.00  0.00    +0.000 C 
ATOM     18 BR   UNL     1      -1.635  10.330  17.632  0.00  0.00    +0.000 Br
ATOM     19 BR   UNL     1      -1.888  11.807  20.403  0.00  0.00    +0.000 Br
ENDBRANCH   8  14
BRANCH   1  20
ATOM     20  O   UNL     1       6.075   3.503  15.744  0.00  0.00    +0.000 OA
BRANCH  20  22
ATOM     21  C   UNL     1       6.101   3.748  13.358  0.00  0.00    +0.000 C 
ATOM     22  C   UNL     1       6.546   4.336  14.683  0.00  0.00    +0.000 C 
ENDBRANCH  20  22
ENDBRANCH   1  20
TORSDOF 3
ENDMDL
MODEL 4
REMARK VINA RESULT:      -6.7      3.785      9.052
REMARK  Name = 
REMARK  5 active torsions:
REMARK  status: ('A' for Active; 'I' for Inactive)
REMARK    1  A    between atoms: C_1  and  C_2
REMARK    2  A    between atoms: C_2  and  O_3
REMARK    3  A    between atoms: O_3  and  C_4
REMARK    4  A    between atoms: C_11  and  C_13
REMARK    5  A    between atoms: C_13  and  C_14
REMARK                            x       y       z     vdW  Elec       q    Type
REMARK                         _______ _______ _______ _____ _____    ______ ____
ROOT
ATOM      1  C   UNL     1      -1.645  12.002  22.596  0.00  0.00    +0.000 A 
ATOM      2  C   UNL     1      -1.786  12.493  21.299  0.00  0.00    +0.000 A 
ATOM      3  C   UNL     1      -1.114  11.893  20.227  0.00  0.00    +0.000 A 
ATOM      4  C   UNL     1      -0.287  10.777  20.452  0.00  0.00    +0.000 A 
ATOM      5  N   UNL     1       0.454  10.102  19.491  0.00  0.00    +0.000 NA
ATOM      6  C   UNL     1       1.046   9.067  20.040  0.00  0.00    +0.000 A 
ATOM      7  N   UNL     1       1.840   8.210  19.309  0.00  0.00    +0.000 N 
ATOM      8  C   UNL     1       2.200   6.950  19.721  0.00  0.00    +0.000 C 
ATOM      9  O   UNL     1       1.860   6.390  20.752  0.00  0.00    +0.000 OA
ATOM     10  S   UNL     1       0.853   8.912  21.729  0.00  0.00    +0.000 S 
ATOM     11  C   UNL     1      -0.177  10.285  21.752  0.00  0.00    +0.000 A 
ATOM     12  C   UNL     1      -0.840  10.883  22.837  0.00  0.00    +0.000 A 
ATOM     13  H   UNL     1       2.012   8.507  18.360  0.00  0.00    +0.000 HD
ENDROOT
BRANCH   8  14
ATOM     14  C   UNL     1       3.144   6.197  18.818  0.00  0.00    +0.000 C 
ATOM     15  C   UNL     1       3.790   7.059  17.752  0.00  0.00    +0.000 C 
ATOM     16  C   UNL     1       4.062   5.246  19.599  0.00  0.00    +0.000 C 
ATOM     17  C   UNL     1       3.090   4.690  18.609  0.00  0.00    +0.000 C 
ATOM     18 BR   UNL     1       1.636   3.648  19.270  0.00  0.00    +0.000 Br
ATOM     19 BR   UNL     1       3.864   3.867  17.053  0.00  0.00    +0.000 Br
ENDBRANCH   8  14
BRANCH   1  20
ATOM     20  O   UNL     1      -2.247  12.530  23.709  0.00  0.00    +0.000 OA
BRANCH  20  22
ATOM     21  C   UNL     1      -4.421  12.404  24.714  0.00  0.00    +0.000 C 
ATOM     22  C   UNL     1      -3.606  12.940  23.553  0.00  0.00    +0.000 C 
ENDBRANCH  20  22
ENDBRANCH   1  20
TORSDOF 3
ENDMDL
MODEL 5
REMARK VINA RESULT:      -6.7      2.546      3.231
REMARK  Name = 
REMARK  5 active torsions:
REMARK  status: ('A' for Active; 'I' for Inactive)
REMARK    1  A    between atoms: C_1  and  C_2
REMARK    2  A    between atoms: C_2  and  O_3
REMARK    3  A    between atoms: O_3  and  C_4
REMARK    4  A    between atoms: C_11  and  C_13
REMARK    5  A    between atoms: C_13  and  C_14
REMARK                            x       y       z     vdW  Elec       q    Type
REMARK                         _______ _______ _______ _____ _____    ______ ____
ROOT
ATOM      1  C   UNL     1       4.542   4.426  18.880  0.00  0.00    +0.000 A 
ATOM      2  C   UNL     1       4.937   4.972  17.660  0.00  0.00    +0.000 A 
ATOM      3  C   UNL     1       4.407   6.189  17.212  0.00  0.00    +0.000 A 
ATOM      4  C   UNL     1       3.467   6.878  17.999  0.00  0.00    +0.000 A 
ATOM      5  N   UNL     1       2.844   8.075  17.669  0.00  0.00    +0.000 NA
ATOM      6  C   UNL     1       2.087   8.466  18.668  0.00  0.00    +0.000 A 
ATOM      7  N   UNL     1       1.360   9.635  18.615  0.00  0.00    +0.000 N 
ATOM      8  C   UNL     1       0.835  10.269  19.715  0.00  0.00    +0.000 C 
ATOM      9  O   UNL     1       0.951   9.929  20.882  0.00  0.00    +0.000 OA
ATOM     10  S   UNL     1       1.982   7.387  19.986  0.00  0.00    +0.000 S 
ATOM     11  C   UNL     1       3.101   6.329  19.228  0.00  0.00    +0.000 A 
ATOM     12  C   UNL     1       3.620   5.105  19.685  0.00  0.00    +0.000 A 
ATOM     13  H   UNL     1       1.373  10.095  17.717  0.00  0.00    +0.000 HD
ENDROOT
BRANCH   8  14
ATOM     14  C   UNL     1      -0.003  11.493  19.443  0.00  0.00    +0.000 C 
ATOM     15  C   UNL     1      -1.055  11.290  18.371  0.00  0.00    +0.000 C 
ATOM     16  C   UNL     1      -0.447  12.193  20.735  0.00  0.00    +0.000 C 
ATOM     17  C   UNL     1       0.443  12.911  19.773  0.00  0.00    +0.000 C 
ATOM     18 BR   UNL     1       2.232  13.287  20.318  0.00  0.00    +0.000 Br
ATOM     19 BR   UNL     1      -0.335  14.435  18.896  0.00  0.00    +0.000 Br
ENDBRANCH   8  14
BRANCH   1  20
ATOM     20  O   UNL     1       4.990   3.237  19.395  0.00  0.00    +0.000 OA
BRANCH  20  22
ATOM     21  C   UNL     1       3.563   1.629  18.332  0.00  0.00    +0.000 C 
ATOM     22  C   UNL     1       3.992   2.247  19.648  0.00  0.00    +0.000 C 
ENDBRANCH  20  22
ENDBRANCH   1  20
TORSDOF 3
ENDMDL
MODEL 6
REMARK VINA RESULT:      -6.6      3.619      5.339
REMARK  Name = 
REMARK  5 active torsions:
REMARK  status: ('A' for Active; 'I' for Inactive)
REMARK    1  A    between atoms: C_1  and  C_2
REMARK    2  A    between atoms: C_2  and  O_3
REMARK    3  A    between atoms: O_3  and  C_4
REMARK    4  A    between atoms: C_11  and  C_13
REMARK    5  A    between atoms: C_13  and  C_14
REMARK                            x       y       z     vdW  Elec       q    Type
REMARK                         _______ _______ _______ _____ _____    ______ ____
ROOT
ATOM      1  C   UNL     1       2.561   7.291  18.827  0.00  0.00    +0.000 A 
ATOM      2  C   UNL     1       2.456   8.183  17.761  0.00  0.00    +0.000 A 
ATOM      3  C   UNL     1       1.697   9.354  17.876  0.00  0.00    +0.000 A 
ATOM      4  C   UNL     1       1.031   9.644  19.081  0.00  0.00    +0.000 A 
ATOM      5  N   UNL     1       0.227  10.750  19.326  0.00  0.00    +0.000 NA
ATOM      6  C   UNL     1      -0.167  10.738  20.578  0.00  0.00    +0.000 A 
ATOM      7  N   UNL     1      -0.970  11.730  21.098  0.00  0.00    +0.000 N 
ATOM      8  C   UNL     1      -1.134  11.966  22.441  0.00  0.00    +0.000 C 
ATOM      9  O   UNL     1      -0.589  11.377  23.362  0.00  0.00    +0.000 OA
ATOM     10  S   UNL     1       0.290   9.367  21.486  0.00  0.00    +0.000 S 
ATOM     11  C   UNL     1       1.166   8.752  20.145  0.00  0.00    +0.000 A 
ATOM     12  C   UNL     1       1.920   7.570  20.039  0.00  0.00    +0.000 A 
ATOM     13  H   UNL     1      -1.311  12.391  20.416  0.00  0.00    +0.000 HD
ENDROOT
BRANCH   8  14
ATOM     14  C   UNL     1      -2.121  13.044  22.813  0.00  0.00    +0.000 C 
ATOM     15  C   UNL     1      -3.516  12.526  23.102  0.00  0.00    +0.000 C 
ATOM     16  C   UNL     1      -1.532  14.055  23.806  0.00  0.00    +0.000 C 
ATOM     17  C   UNL     1      -1.946  14.511  22.444  0.00  0.00    +0.000 C 
ATOM     18 BR   UNL     1      -0.584  15.075  21.235  0.00  0.00    +0.000 Br
ATOM     19 BR   UNL     1      -3.444  15.715  22.389  0.00  0.00    +0.000 Br
ENDBRANCH   8  14
BRANCH   1  20
ATOM     20  O   UNL     1       3.266   6.115  18.805  0.00  0.00    +0.000 OA
BRANCH  20  22
ATOM     21  C   UNL     1       1.896   4.465  17.731  0.00  0.00    +0.000 C 
ATOM     22  C   UNL     1       2.509   4.926  19.039  0.00  0.00    +0.000 C 
ENDBRANCH  20  22
ENDBRANCH   1  20
TORSDOF 3
ENDMDL
MODEL 7
REMARK VINA RESULT:      -6.6      1.388      1.729
REMARK  Name = 
REMARK  5 active torsions:
REMARK  status: ('A' for Active; 'I' for Inactive)
REMARK    1  A    between atoms: C_1  and  C_2
REMARK    2  A    between atoms: C_2  and  O_3
REMARK    3  A    between atoms: O_3  and  C_4
REMARK    4  A    between atoms: C_11  and  C_13
REMARK    5  A    between atoms: C_13  and  C_14
REMARK                            x       y       z     vdW  Elec       q    Type
REMARK                         _______ _______ _______ _____ _____    ______ ____
ROOT
ATOM      1  C   UNL     1       4.724   4.233  17.148  0.00  0.00    +0.000 A 
ATOM      2  C   UNL     1       4.397   3.513  18.295  0.00  0.00    +0.000 A 
ATOM      3  C   UNL     1       3.652   4.102  19.325  0.00  0.00    +0.000 A 
ATOM      4  C   UNL     1       3.221   5.436  19.206  0.00  0.00    +0.000 A 
ATOM      5  N   UNL     1       2.501   6.150  20.155  0.00  0.00    +0.000 NA
ATOM      6  C   UNL     1       2.206   7.337  19.680  0.00  0.00    +0.000 A 
ATOM      7  N   UNL     1       1.482   8.254  20.410  0.00  0.00    +0.000 N 
ATOM      8  C   UNL     1       0.854   9.350  19.870  0.00  0.00    +0.000 C 
ATOM      9  O   UNL     1       0.809   9.662  18.690  0.00  0.00    +0.000 OA
ATOM     10  S   UNL     1       2.862   7.708  18.148  0.00  0.00    +0.000 S 
ATOM     11  C   UNL     1       3.539   6.133  18.041  0.00  0.00    +0.000 A 
ATOM     12  C   UNL     1       4.291   5.556  17.004  0.00  0.00    +0.000 A 
ATOM     13  H   UNL     1       1.300   7.979  21.364  0.00  0.00    +0.000 HD
ENDROOT
BRANCH   8  14
ATOM     14  C   UNL     1       0.181  10.282  20.846  0.00  0.00    +0.000 C 
ATOM     15  C   UNL     1      -0.115   9.651  22.192  0.00  0.00    +0.000 C 
ATOM     16  C   UNL     1       0.822  11.677  20.854  0.00  0.00    +0.000 C 
ATOM     17  C   UNL     1      -0.602  11.519  20.428  0.00  0.00    +0.000 C 
ATOM     18 BR   UNL     1      -1.032  11.850  18.600  0.00  0.00    +0.000 Br
ATOM     19 BR   UNL     1      -1.912  12.314  21.589  0.00  0.00    +0.000 Br
ENDBRANCH   8  14
BRANCH   1  20
ATOM     20  O   UNL     1       5.461   3.750  16.096  0.00  0.00    +0.000 OA
BRANCH  20  22
ATOM     21  C   UNL     1       6.869   4.650  14.376  0.00  0.00    +0.000 C 
ATOM     22  C   UNL     1       5.454   4.543  14.909  0.00  0.00    +0.000 C 
ENDBRANCH  20  22
ENDBRANCH   1  20
TORSDOF 3
ENDMDL
MODEL 8
REMARK VINA RESULT:      -6.5      3.541      8.385
REMARK  Name = 
REMARK  5 active torsions:
REMARK  status: ('A' for Active; 'I' for Inactive)
REMARK    1  A    between atoms: C_1  and  C_2
REMARK    2  A    between atoms: C_2  and  O_3
REMARK    3  A    between atoms: O_3  and  C_4
REMARK    4  A    between atoms: C_11  and  C_13
REMARK    5  A    between atoms: C_13  and  C_14
REMARK                            x       y       z     vdW  Elec       q    Type
REMARK                         _______ _______ _______ _____ _____    ______ ____
ROOT
ATOM      1  C   UNL     1      -0.710  10.918  21.541  0.00  0.00    +0.000 A 
ATOM      2  C   UNL     1      -0.356  10.066  22.586  0.00  0.00    +0.000 A 
ATOM      3  C   UNL     1       0.496   8.976  22.367  0.00  0.00    +0.000 A 
ATOM      4  C   UNL     1       1.008   8.732  21.080  0.00  0.00    +0.000 A 
ATOM      5  N   UNL     1       1.838   7.680  20.715  0.00  0.00    +0.000 NA
ATOM      6  C   UNL     1       2.182   7.807  19.455  0.00  0.00    +0.000 A 
ATOM      7  N   UNL     1       3.015   6.903  18.833  0.00  0.00    +0.000 N 
ATOM      8  C   UNL     1       3.680   7.148  17.656  0.00  0.00    +0.000 C 
ATOM      9  O   UNL     1       3.666   8.183  17.007  0.00  0.00    +0.000 OA
ATOM     10  S   UNL     1       1.451   9.100  18.614  0.00  0.00    +0.000 S 
ATOM     11  C   UNL     1       0.662   9.609  20.052  0.00  0.00    +0.000 A 
ATOM     12  C   UNL     1      -0.197  10.702  20.258  0.00  0.00    +0.000 A 
ATOM     13  H   UNL     1       3.241   6.092  19.389  0.00  0.00    +0.000 HD
ENDROOT
BRANCH   8  14
ATOM     14  C   UNL     1       4.479   6.001  17.090  0.00  0.00    +0.000 C 
ATOM     15  C   UNL     1       3.805   4.652  17.240  0.00  0.00    +0.000 C 
ATOM     16  C   UNL     1       5.082   6.334  15.718  0.00  0.00    +0.000 C 
ATOM     17  C   UNL     1       5.985   6.049  16.874  0.00  0.00    +0.000 C 
ATOM     18 BR   UNL     1       7.041   7.482  17.559  0.00  0.00    +0.000 Br
ATOM     19 BR   UNL     1       7.029   4.440  16.740  0.00  0.00    +0.000 Br
ENDBRANCH   8  14
BRANCH   1  20
ATOM     20  O   UNL     1      -1.547  11.999  21.653  0.00  0.00    +0.000 OA
BRANCH  20  22
ATOM     21  C   UNL     1      -3.314  12.387  23.227  0.00  0.00    +0.000 C 
ATOM     22  C   UNL     1      -1.819  12.446  22.982  0.00  0.00    +0.000 C 
ENDBRANCH  20  22
ENDBRANCH   1  20
TORSDOF 3
ENDMDL
MODEL 9
REMARK VINA RESULT:      -6.5      1.653      1.960
REMARK  Name = 
REMARK  5 active torsions:
REMARK  status: ('A' for Active; 'I' for Inactive)
REMARK    1  A    between atoms: C_1  and  C_2
REMARK    2  A    between atoms: C_2  and  O_3
REMARK    3  A    between atoms: O_3  and  C_4
REMARK    4  A    between atoms: C_11  and  C_13
REMARK    5  A    between atoms: C_13  and  C_14
REMARK                            x       y       z     vdW  Elec       q    Type
REMARK                         _______ _______ _______ _____ _____    ______ ____
ROOT
ATOM      1  C   UNL     1       4.604   4.198  17.515  0.00  0.00    +0.000 A 
ATOM      2  C   UNL     1       4.161   3.731  18.751  0.00  0.00    +0.000 A 
ATOM      3  C   UNL     1       3.391   4.544  19.592  0.00  0.00    +0.000 A 
ATOM      4  C   UNL     1       3.053   5.849  19.192  0.00  0.00    +0.000 A 
ATOM      5  N   UNL     1       2.321   6.769  19.932  0.00  0.00    +0.000 NA
ATOM      6  C   UNL     1       2.131   7.854  19.220  0.00  0.00    +0.000 A 
ATOM      7  N   UNL     1       1.421   8.930  19.707  0.00  0.00    +0.000 N 
ATOM      8  C   UNL     1       0.898   9.930  18.924  0.00  0.00    +0.000 C 
ATOM      9  O   UNL     1       0.947  10.010  17.707  0.00  0.00    +0.000 OA
ATOM     10  S   UNL     1       2.904   7.888  17.698  0.00  0.00    +0.000 S 
ATOM     11  C   UNL     1       3.486   6.291  17.942  0.00  0.00    +0.000 A 
ATOM     12  C   UNL     1       4.264   5.488  17.092  0.00  0.00    +0.000 A 
ATOM     13  H   UNL     1       1.163   8.854  20.680  0.00  0.00    +0.000 HD
ENDROOT
BRANCH   8  14
ATOM     14  C   UNL     1       0.226  11.066  19.654  0.00  0.00    +0.000 C 
ATOM     15  C   UNL     1      -1.235  10.813  19.967  0.00  0.00    +0.000 C 
ATOM     16  C   UNL     1       1.097  11.626  20.787  0.00  0.00    +0.000 C 
ATOM     17  C   UNL     1       0.733  12.501  19.631  0.00  0.00    +0.000 C 
ATOM     18 BR   UNL     1       2.126  13.042  18.445  0.00  0.00    +0.000 Br
ATOM     19 BR   UNL     1      -0.427  13.979  20.037  0.00  0.00    +0.000 Br
ENDBRANCH   8  14
BRANCH   1  20
ATOM     20  O   UNL     1       5.373   3.485  16.631  0.00  0.00    +0.000 OA
BRANCH  20  22
ATOM     21  C   UNL     1       6.180   3.934  14.418  0.00  0.00    +0.000 C 
ATOM     22  C   UNL     1       6.341   4.234  15.896  0.00  0.00    +0.000 C 
ENDBRANCH  20  22
ENDBRANCH   1  20
TORSDOF 3
ENDMDL
