MODEL 1
REMARK VINA RESULT:      -8.0      0.000      0.000
REMARK  Name = 
REMARK  2 active torsions:
REMARK  status: ('A' for Active; 'I' for Inactive)
REMARK    1  A    between atoms: C_1  and  C_2
REMARK    2  A    between atoms: N_4  and  C_5
REMARK                            x       y       z     vdW  Elec       q    Type
REMARK                         _______ _______ _______ _____ _____    ______ ____
ROOT
ATOM      1  C   UNL     1       1.782   7.735  20.130  0.00  0.00    +0.000 A 
ATOM      2  C   UNL     1       1.887   8.387  18.906  0.00  0.00    +0.000 A 
ATOM      3  C   UNL     1       2.419   7.723  17.800  0.00  0.00    +0.000 A 
ATOM      4  C   UNL     1       2.886   6.408  17.956  0.00  0.00    +0.000 A 
ATOM      5  C   UNL     1       2.503   5.654  19.067  0.00  0.00    +0.000 A 
ATOM      6  C   UNL     1       1.990   6.354  20.179  0.00  0.00    +0.000 A 
ATOM      7  C   UNL     1       2.573   4.190  19.178  0.00  0.00    +0.000 A 
ATOM      8  N   UNL     1       1.733   3.440  19.854  0.00  0.00    +0.000 NA
ATOM      9  C   UNL     1       2.124   2.151  19.592  0.00  0.00    +0.000 A 
ATOM     10  N   UNL     1       3.189   2.059  18.812  0.00  0.00    +0.000 NA
ATOM     11  N   UNL     1       3.494   3.363  18.581  0.00  0.00    +0.000 N 
ATOM     12  C   UNL     1       4.654   3.676  17.807  0.00  0.00    +0.000 C 
ATOM     13  C   UNL     1       5.001   5.103  17.759  0.00  0.00    +0.000 A 
ATOM     14  C   UNL     1       6.086   5.825  18.213  0.00  0.00    +0.000 A 
ATOM     15 CL   UNL     1       7.227   5.346  19.377  0.00  0.00    +0.000 Cl
ATOM     16  N   UNL     1       6.141   7.023  17.549  0.00  0.00    +0.000 NA
ATOM     17  C   UNL     1       5.010   7.085  16.869  0.00  0.00    +0.000 A 
ATOM     18  N   UNL     1       4.147   6.111  17.339  0.00  0.00    +0.000 N 
ENDROOT
BRANCH   1  22
ATOM     19  C   UNL     1       0.416   9.520  23.155  0.00  0.00    +0.000 C 
ATOM     20  C   UNL     1       0.324   8.583  21.977  0.00  0.00    +0.000 C 
ATOM     21  O   UNL     1      -0.750   8.096  21.647  0.00  0.00    +0.000 OA
ATOM     22  N   UNL     1       1.544   8.397  21.351  0.00  0.00    +0.000 N 
ATOM     23  H   UNL     1       2.348   8.850  21.771  0.00  0.00    +0.000 HD
ENDBRANCH   1  22
TORSDOF 1
ENDMDL
MODEL 2
REMARK VINA RESULT:      -7.4      1.292      1.293
REMARK  Name = 
REMARK  2 active torsions:
REMARK  status: ('A' for Active; 'I' for Inactive)
REMARK    1  A    between atoms: C_1  and  C_2
REMARK    2  A    between atoms: N_4  and  C_5
REMARK                            x       y       z     vdW  Elec       q    Type
REMARK                         _______ _______ _______ _____ _____    ______ ____
ROOT
ATOM      1  C   UNL     1       1.833   8.176  19.555  0.00  0.00    +0.000 A 
ATOM      2  C   UNL     1       1.888   8.248  18.167  0.00  0.00    +0.000 A 
ATOM      3  C   UNL     1       2.404   7.183  17.428  0.00  0.00    +0.000 A 
ATOM      4  C   UNL     1       2.907   6.063  18.108  0.00  0.00    +0.000 A 
ATOM      5  C   UNL     1       2.573   5.847  19.447  0.00  0.00    +0.000 A 
ATOM      6  C   UNL     1       2.076   6.947  20.176  0.00  0.00    +0.000 A 
ATOM      7  C   UNL     1       2.681   4.569  20.164  0.00  0.00    +0.000 A 
ATOM      8  N   UNL     1       1.879   4.167  21.124  0.00  0.00    +0.000 NA
ATOM      9  C   UNL     1       2.293   2.892  21.418  0.00  0.00    +0.000 A 
ATOM     10  N   UNL     1       3.336   2.489  20.713  0.00  0.00    +0.000 NA
ATOM     11  N   UNL     1       3.604   3.575  19.942  0.00  0.00    +0.000 N 
ATOM     12  C   UNL     1       4.734   3.542  19.066  0.00  0.00    +0.000 C 
ATOM     13  C   UNL     1       5.045   4.818  18.407  0.00  0.00    +0.000 A 
ATOM     14  C   UNL     1       6.125   5.674  18.474  0.00  0.00    +0.000 A 
ATOM     15 CL   UNL     1       7.310   5.744  19.690  0.00  0.00    +0.000 Cl
ATOM     16  N   UNL     1       6.134   6.478  17.364  0.00  0.00    +0.000 NA
ATOM     17  C   UNL     1       4.983   6.235  16.762  0.00  0.00    +0.000 A 
ATOM     18  N   UNL     1       4.156   5.544  17.630  0.00  0.00    +0.000 N 
ENDROOT
BRANCH   1  22
ATOM     19  C   UNL     1       0.635  11.272  21.337  0.00  0.00    +0.000 C 
ATOM     20  C   UNL     1       0.446  10.018  20.521  0.00  0.00    +0.000 C 
ATOM     21  O   UNL     1      -0.645   9.748  20.033  0.00  0.00    +0.000 OA
ATOM     22  N   UNL     1       1.614   9.290  20.389  0.00  0.00    +0.000 N 
ATOM     23  H   UNL     1       2.429   9.636  20.884  0.00  0.00    +0.000 HD
ENDBRANCH   1  22
TORSDOF 1
ENDMDL
MODEL 3
REMARK VINA RESULT:      -7.4      4.082      6.169
REMARK  Name = 
REMARK  2 active torsions:
REMARK  status: ('A' for Active; 'I' for Inactive)
REMARK    1  A    between atoms: C_1  and  C_2
REMARK    2  A    between atoms: N_4  and  C_5
REMARK                            x       y       z     vdW  Elec       q    Type
REMARK                         _______ _______ _______ _____ _____    ______ ____
ROOT
ATOM      1  C   UNL     1       8.020   7.919  17.800  0.00  0.00    +0.000 A 
ATOM      2  C   UNL     1       8.247   7.243  18.994  0.00  0.00    +0.000 A 
ATOM      3  C   UNL     1       7.789   5.935  19.158  0.00  0.00    +0.000 A 
ATOM      4  C   UNL     1       7.060   5.334  18.120  0.00  0.00    +0.000 A 
ATOM      5  C   UNL     1       7.102   5.870  16.832  0.00  0.00    +0.000 A 
ATOM      6  C   UNL     1       7.546   7.202  16.698  0.00  0.00    +0.000 A 
ATOM      7  C   UNL     1       6.736   5.164  15.595  0.00  0.00    +0.000 A 
ATOM      8  N   UNL     1       7.292   5.355  14.420  0.00  0.00    +0.000 NA
ATOM      9  C   UNL     1       6.712   4.419  13.600  0.00  0.00    +0.000 A 
ATOM     10  N   UNL     1       5.794   3.676  14.197  0.00  0.00    +0.000 NA
ATOM     11  N   UNL     1       5.787   4.180  15.459  0.00  0.00    +0.000 N 
ATOM     12  C   UNL     1       4.853   3.658  16.407  0.00  0.00    +0.000 C 
ATOM     13  C   UNL     1       4.799   4.381  17.686  0.00  0.00    +0.000 A 
ATOM     14  C   UNL     1       3.811   5.114  18.312  0.00  0.00    +0.000 A 
ATOM     15 CL   UNL     1       2.421   5.788  17.602  0.00  0.00    +0.000 Cl
ATOM     16  N   UNL     1       4.096   5.206  19.650  0.00  0.00    +0.000 NA
ATOM     17  C   UNL     1       5.316   4.712  19.769  0.00  0.00    +0.000 A 
ATOM     18  N   UNL     1       5.887   4.608  18.514  0.00  0.00    +0.000 N 
ENDROOT
BRANCH   1  22
ATOM     19  C   UNL     1       8.633  11.622  18.132  0.00  0.00    +0.000 C 
ATOM     20  C   UNL     1       8.859  10.174  18.484  0.00  0.00    +0.000 C 
ATOM     21  O   UNL     1       9.563   9.864  19.437  0.00  0.00    +0.000 OA
ATOM     22  N   UNL     1       8.174   9.311  17.647  0.00  0.00    +0.000 N 
ATOM     23  H   UNL     1       7.657   9.730  16.881  0.00  0.00    +0.000 HD
ENDBRANCH   1  22
TORSDOF 1
ENDMDL
MODEL 4
REMARK VINA RESULT:      -6.9      2.477      4.219
REMARK  Name = 
REMARK  2 active torsions:
REMARK  status: ('A' for Active; 'I' for Inactive)
REMARK    1  A    between atoms: C_1  and  C_2
REMARK    2  A    between atoms: N_4  and  C_5
REMARK                            x       y       z     vdW  Elec       q    Type
REMARK                         _______ _______ _______ _____ _____    ______ ____
ROOT
ATOM      1  C   UNL     1       1.202   8.878  18.434  0.00  0.00    +0.000 A 
ATOM      2  C   UNL     1       1.233   8.809  19.823  0.00  0.00    +0.000 A 
ATOM      3  C   UNL     1       2.006   7.838  20.461  0.00  0.00    +0.000 A 
ATOM      4  C   UNL     1       2.709   6.907  19.680  0.00  0.00    +0.000 A 
ATOM      5  C   UNL     1       2.936   7.157  18.325  0.00  0.00    +0.000 A 
ATOM      6  C   UNL     1       2.125   8.127  17.701  0.00  0.00    +0.000 A 
ATOM      7  C   UNL     1       3.957   6.507  17.491  0.00  0.00    +0.000 A 
ATOM      8  N   UNL     1       4.594   7.075  16.492  0.00  0.00    +0.000 NA
ATOM      9  C   UNL     1       5.509   6.138  16.081  0.00  0.00    +0.000 A 
ATOM     10  N   UNL     1       5.452   4.999  16.751  0.00  0.00    +0.000 NA
ATOM     11  N   UNL     1       4.435   5.225  17.624  0.00  0.00    +0.000 N 
ATOM     12  C   UNL     1       4.026   4.171  18.499  0.00  0.00    +0.000 C 
ATOM     13  C   UNL     1       2.812   4.450  19.278  0.00  0.00    +0.000 A 
ATOM     14  C   UNL     1       1.555   3.880  19.300  0.00  0.00    +0.000 A 
ATOM     15 CL   UNL     1       0.846   2.903  18.103  0.00  0.00    +0.000 Cl
ATOM     16  N   UNL     1       0.936   4.196  20.481  0.00  0.00    +0.000 NA
ATOM     17  C   UNL     1       1.728   5.087  21.049  0.00  0.00    +0.000 A 
ATOM     18  N   UNL     1       2.641   5.542  20.115  0.00  0.00    +0.000 N 
ENDROOT
BRANCH   1  22
ATOM     19  C   UNL     1      -1.785  10.769  17.131  0.00  0.00    +0.000 C 
ATOM     20  C   UNL     1      -0.858  10.278  18.214  0.00  0.00    +0.000 C 
ATOM     21  O   UNL     1      -1.125  10.460  19.396  0.00  0.00    +0.000 OA
ATOM     22  N   UNL     1       0.242   9.610  17.708  0.00  0.00    +0.000 N 
ATOM     23  H   UNL     1       0.331   9.573  16.698  0.00  0.00    +0.000 HD
ENDBRANCH   1  22
TORSDOF 1
ENDMDL
MODEL 5
REMARK VINA RESULT:      -6.7      3.748      6.017
REMARK  Name = 
REMARK  2 active torsions:
REMARK  status: ('A' for Active; 'I' for Inactive)
REMARK    1  A    between atoms: C_1  and  C_2
REMARK    2  A    between atoms: N_4  and  C_5
REMARK                            x       y       z     vdW  Elec       q    Type
REMARK                         _______ _______ _______ _____ _____    ______ ____
ROOT
ATOM      1  C   UNL     1       8.180   6.911  18.746  0.00  0.00    +0.000 A 
ATOM      2  C   UNL     1       8.028   6.003  19.789  0.00  0.00    +0.000 A 
ATOM      3  C   UNL     1       7.213   4.882  19.631  0.00  0.00    +0.000 A 
ATOM      4  C   UNL     1       6.515   4.712  18.425  0.00  0.00    +0.000 A 
ATOM      5  C   UNL     1       6.898   5.425  17.287  0.00  0.00    +0.000 A 
ATOM      6  C   UNL     1       7.703   6.567  17.478  0.00  0.00    +0.000 A 
ATOM      7  C   UNL     1       6.548   5.084  15.901  0.00  0.00    +0.000 A 
ATOM      8  N   UNL     1       7.308   5.299  14.851  0.00  0.00    +0.000 NA
ATOM      9  C   UNL     1       6.628   4.734  13.802  0.00  0.00    +0.000 A 
ATOM     10  N   UNL     1       5.463   4.206  14.138  0.00  0.00    +0.000 NA
ATOM     11  N   UNL     1       5.399   4.465  15.470  0.00  0.00    +0.000 N 
ATOM     12  C   UNL     1       4.224   4.088  16.194  0.00  0.00    +0.000 C 
ATOM     13  C   UNL     1       4.174   4.563  17.583  0.00  0.00    +0.000 A 
ATOM     14  C   UNL     1       3.339   5.437  18.250  0.00  0.00    +0.000 A 
ATOM     15 CL   UNL     1       2.311   6.604  17.565  0.00  0.00    +0.000 Cl
ATOM     16  N   UNL     1       3.431   5.208  19.599  0.00  0.00    +0.000 NA
ATOM     17  C   UNL     1       4.436   4.362  19.730  0.00  0.00    +0.000 A 
ATOM     18  N   UNL     1       5.143   4.311  18.542  0.00  0.00    +0.000 N 
ENDROOT
BRANCH   1  22
ATOM     19  C   UNL     1       9.309  10.497  18.490  0.00  0.00    +0.000 C 
ATOM     20  C   UNL     1       8.367   9.349  18.224  0.00  0.00    +0.000 C 
ATOM     21  O   UNL     1       7.422   9.481  17.457  0.00  0.00    +0.000 OA
ATOM     22  N   UNL     1       8.727   8.199  18.903  0.00  0.00    +0.000 N 
ATOM     23  H   UNL     1       9.525   8.266  19.527  0.00  0.00    +0.000 HD
ENDBRANCH   1  22
TORSDOF 1
ENDMDL
MODEL 6
REMARK VINA RESULT:      -6.4      6.419      8.200
REMARK  Name = 
REMARK  2 active torsions:
REMARK  status: ('A' for Active; 'I' for Inactive)
REMARK    1  A    between atoms: C_1  and  C_2
REMARK    2  A    between atoms: N_4  and  C_5
REMARK                            x       y       z     vdW  Elec       q    Type
REMARK                         _______ _______ _______ _____ _____    ______ ____
ROOT
ATOM      1  C   UNL     1      -3.507  13.624  21.187  0.00  0.00    +0.000 A 
ATOM      2  C   UNL     1      -2.369  14.417  21.295  0.00  0.00    +0.000 A 
ATOM      3  C   UNL     1      -1.218  14.095  20.575  0.00  0.00    +0.000 A 
ATOM      4  C   UNL     1      -1.214  12.938  19.780  0.00  0.00    +0.000 A 
ATOM      5  C   UNL     1      -2.418  12.328  19.422  0.00  0.00    +0.000 A 
ATOM      6  C   UNL     1      -3.560  12.655  20.183  0.00  0.00    +0.000 A 
ATOM      7  C   UNL     1      -2.607  11.384  18.312  0.00  0.00    +0.000 A 
ATOM      8  N   UNL     1      -3.697  11.273  17.586  0.00  0.00    +0.000 NA
ATOM      9  C   UNL     1      -3.383  10.352  16.619  0.00  0.00    +0.000 A 
ATOM     10  N   UNL     1      -2.162   9.855  16.724  0.00  0.00    +0.000 NA
ATOM     11  N   UNL     1      -1.684  10.488  17.827  0.00  0.00    +0.000 N 
ATOM     12  C   UNL     1      -0.378  10.156  18.305  0.00  0.00    +0.000 C 
ATOM     13  C   UNL     1      -0.019  10.759  19.596  0.00  0.00    +0.000 A 
ATOM     14  C   UNL     1       0.260  10.227  20.839  0.00  0.00    +0.000 A 
ATOM     15 CL   UNL     1      -0.134   8.673  21.406  0.00  0.00    +0.000 Cl
ATOM     16  N   UNL     1       0.954  11.148  21.579  0.00  0.00    +0.000 NA
ATOM     17  C   UNL     1       0.910  12.258  20.864  0.00  0.00    +0.000 A 
ATOM     18  N   UNL     1      -0.040  12.117  19.869  0.00  0.00    +0.000 N 
ENDROOT
BRANCH   1  22
ATOM     19  C   UNL     1      -6.167  13.109  23.806  0.00  0.00    +0.000 C 
ATOM     20  C   UNL     1      -4.795  12.917  23.211  0.00  0.00    +0.000 C 
ATOM     21  O   UNL     1      -4.002  12.127  23.708  0.00  0.00    +0.000 OA
ATOM     22  N   UNL     1      -4.594  13.690  22.081  0.00  0.00    +0.000 N 
ATOM     23  H   UNL     1      -5.344  14.319  21.817  0.00  0.00    +0.000 HD
ENDBRANCH   1  22
TORSDOF 1
ENDMDL
MODEL 7
REMARK VINA RESULT:      -6.4      4.555      7.734
REMARK  Name = 
REMARK  2 active torsions:
REMARK  status: ('A' for Active; 'I' for Inactive)
REMARK    1  A    between atoms: C_1  and  C_2
REMARK    2  A    between atoms: N_4  and  C_5
REMARK                            x       y       z     vdW  Elec       q    Type
REMARK                         _______ _______ _______ _____ _____    ______ ____
ROOT
ATOM      1  C   UNL     1       1.790   8.576  18.712  0.00  0.00    +0.000 A 
ATOM      2  C   UNL     1       1.663   8.404  20.087  0.00  0.00    +0.000 A 
ATOM      3  C   UNL     1       0.638   9.044  20.783  0.00  0.00    +0.000 A 
ATOM      4  C   UNL     1      -0.230   9.898  20.084  0.00  0.00    +0.000 A 
ATOM      5  C   UNL     1      -0.309   9.830  18.692  0.00  0.00    +0.000 A 
ATOM      6  C   UNL     1       0.753   9.198  18.012  0.00  0.00    +0.000 A 
ATOM      7  C   UNL     1      -1.410  10.349  17.867  0.00  0.00    +0.000 A 
ATOM      8  N   UNL     1      -1.828   9.820  16.739  0.00  0.00    +0.000 NA
ATOM      9  C   UNL     1      -2.922  10.568  16.384  0.00  0.00    +0.000 A 
ATOM     10  N   UNL     1      -3.190  11.560  17.217  0.00  0.00    +0.000 NA
ATOM     11  N   UNL     1      -2.200  11.440  18.140  0.00  0.00    +0.000 N 
ATOM     12  C   UNL     1      -2.117  12.401  19.196  0.00  0.00    +0.000 C 
ATOM     13  C   UNL     1      -0.919  12.293  20.040  0.00  0.00    +0.000 A 
ATOM     14  C   UNL     1       0.153  13.133  20.265  0.00  0.00    +0.000 A 
ATOM     15 CL   UNL     1       0.662  14.435  19.299  0.00  0.00    +0.000 Cl
ATOM     16  N   UNL     1       0.763  12.781  21.441  0.00  0.00    +0.000 NA
ATOM     17  C   UNL     1       0.187  11.645  21.794  0.00  0.00    +0.000 A 
ATOM     18  N   UNL     1      -0.529  11.149  20.719  0.00  0.00    +0.000 N 
ENDROOT
BRANCH   1  22
ATOM     19  C   UNL     1       4.807   6.964  17.132  0.00  0.00    +0.000 C 
ATOM     20  C   UNL     1       3.443   6.951  17.774  0.00  0.00    +0.000 C 
ATOM     21  O   UNL     1       2.904   5.893  18.078  0.00  0.00    +0.000 OA
ATOM     22  N   UNL     1       2.942   8.223  17.982  0.00  0.00    +0.000 N 
ATOM     23  H   UNL     1       3.503   8.997  17.642  0.00  0.00    +0.000 HD
ENDBRANCH   1  22
TORSDOF 1
ENDMDL
MODEL 8
REMARK VINA RESULT:      -6.1      6.963      9.223
REMARK  Name = 
REMARK  2 active torsions:
REMARK  status: ('A' for Active; 'I' for Inactive)
REMARK    1  A    between atoms: C_1  and  C_2
REMARK    2  A    between atoms: N_4  and  C_5
REMARK                            x       y       z     vdW  Elec       q    Type
REMARK                         _______ _______ _______ _____ _____    ______ ____
ROOT
ATOM      1  C   UNL     1      -1.146  11.708  17.868  0.00  0.00    +0.000 A 
ATOM      2  C   UNL     1      -0.744  13.039  17.858  0.00  0.00    +0.000 A 
ATOM      3  C   UNL     1      -0.491  13.705  19.057  0.00  0.00    +0.000 A 
ATOM      4  C   UNL     1      -0.694  13.027  20.269  0.00  0.00    +0.000 A 
ATOM      5  C   UNL     1      -0.786  11.634  20.286  0.00  0.00    +0.000 A 
ATOM      6  C   UNL     1      -1.065  10.988  19.063  0.00  0.00    +0.000 A 
ATOM      7  C   UNL     1      -0.603  10.774  21.464  0.00  0.00    +0.000 A 
ATOM      8  N   UNL     1      -0.093   9.563  21.449  0.00  0.00    +0.000 NA
ATOM      9  C   UNL     1      -0.024   9.194  22.769  0.00  0.00    +0.000 A 
ATOM     10  N   UNL     1      -0.499  10.101  23.607  0.00  0.00    +0.000 NA
ATOM     11  N   UNL     1      -0.902  11.090  22.768  0.00  0.00    +0.000 N 
ATOM     12  C   UNL     1      -1.542  12.246  23.316  0.00  0.00    +0.000 C 
ATOM     13  C   UNL     1      -2.097  13.176  22.324  0.00  0.00    +0.000 A 
ATOM     14  C   UNL     1      -3.382  13.585  22.031  0.00  0.00    +0.000 A 
ATOM     15 CL   UNL     1      -4.832  12.811  22.465  0.00  0.00    +0.000 Cl
ATOM     16  N   UNL     1      -3.334  14.766  21.338  0.00  0.00    +0.000 NA
ATOM     17  C   UNL     1      -2.055  14.943  21.061  0.00  0.00    +0.000 A 
ATOM     18  N   UNL     1      -1.373  13.762  21.296  0.00  0.00    +0.000 N 
ENDROOT
BRANCH   1  22
ATOM     19  C   UNL     1      -3.297  10.026  15.271  0.00  0.00    +0.000 C 
ATOM     20  C   UNL     1      -3.038  10.996  16.396  0.00  0.00    +0.000 C 
ATOM     21  O   UNL     1      -3.960  11.617  16.911  0.00  0.00    +0.000 OA
ATOM     22  N   UNL     1      -1.703  11.050  16.754  0.00  0.00    +0.000 N 
ATOM     23  H   UNL     1      -1.059  10.492  16.204  0.00  0.00    +0.000 HD
ENDBRANCH   1  22
TORSDOF 1
ENDMDL
MODEL 9
REMARK VINA RESULT:      -6.1      6.733      8.853
REMARK  Name = 
REMARK  2 active torsions:
REMARK  status: ('A' for Active; 'I' for Inactive)
REMARK    1  A    between atoms: C_1  and  C_2
REMARK    2  A    between atoms: N_4  and  C_5
REMARK                            x       y       z     vdW  Elec       q    Type
REMARK                         _______ _______ _______ _____ _____    ______ ____
ROOT
ATOM      1  C   UNL     1      -4.812  13.326  20.955  0.00  0.00    +0.000 A 
ATOM      2  C   UNL     1      -3.926  14.342  21.300  0.00  0.00    +0.000 A 
ATOM      3  C   UNL     1      -2.587  14.266  20.916  0.00  0.00    +0.000 A 
ATOM      4  C   UNL     1      -2.141  13.132  20.220  0.00  0.00    +0.000 A 
ATOM      5  C   UNL     1      -3.061  12.280  19.605  0.00  0.00    +0.000 A 
ATOM      6  C   UNL     1      -4.404  12.361  20.030  0.00  0.00    +0.000 A 
ATOM      7  C   UNL     1      -2.759  11.311  18.542  0.00  0.00    +0.000 A 
ATOM      8  N   UNL     1      -3.576  10.968  17.572  0.00  0.00    +0.000 NA
ATOM      9  C   UNL     1      -2.841  10.129  16.773  0.00  0.00    +0.000 A 
ATOM     10  N   UNL     1      -1.615   9.902  17.214  0.00  0.00    +0.000 NA
ATOM     11  N   UNL     1      -1.580  10.627  18.362  0.00  0.00    +0.000 N 
ATOM     12  C   UNL     1      -0.404  10.581  19.175  0.00  0.00    +0.000 C 
ATOM     13  C   UNL     1      -0.524  11.253  20.477  0.00  0.00    +0.000 A 
ATOM     14  C   UNL     1      -0.477  10.799  21.779  0.00  0.00    +0.000 A 
ATOM     15 CL   UNL     1      -0.682   9.201  22.320  0.00  0.00    +0.000 Cl
ATOM     16  N   UNL     1      -0.202  11.850  22.614  0.00  0.00    +0.000 NA
ATOM     17  C   UNL     1      -0.281  12.922  21.846  0.00  0.00    +0.000 A 
ATOM     18  N   UNL     1      -0.891  12.578  20.652  0.00  0.00    +0.000 N 
ENDROOT
BRANCH   1  22
ATOM     19  C   UNL     1      -7.847  12.428  23.000  0.00  0.00    +0.000 C 
ATOM     20  C   UNL     1      -6.371  12.657  22.792  0.00  0.00    +0.000 C 
ATOM     21  O   UNL     1      -5.564  12.374  23.670  0.00  0.00    +0.000 OA
ATOM     22  N   UNL     1      -6.084  13.165  21.538  0.00  0.00    +0.000 N 
ATOM     23  H   UNL     1      -6.874  13.374  20.937  0.00  0.00    +0.000 HD
ENDBRANCH   1  22
TORSDOF 1
ENDMDL
