MODEL 1
REMARK VINA RESULT:      -7.3      0.000      0.000
REMARK  Name = 
REMARK  4 active torsions:
REMARK  status: ('A' for Active; 'I' for Inactive)
REMARK    1  A    between atoms: N_1  and  N_2
REMARK    2  A    between atoms: C_3  and  C_5
REMARK    3  A    between atoms: C_5  and  C_6
REMARK    4  A    between atoms: C_10  and  N_11
REMARK                            x       y       z     vdW  Elec       q    Type
REMARK                         _______ _______ _______ _____ _____    ______ ____
ROOT
ATOM      1  C   UNL     1       4.831   4.994  16.257  0.00  0.00    +0.000 A 
ATOM      2  C   UNL     1       4.925   6.388  16.316  0.00  0.00    +0.000 A 
ATOM      3  C   UNL     1       4.216   7.096  17.283  0.00  0.00    +0.000 A 
ATOM      4  C   UNL     1       3.409   6.422  18.202  0.00  0.00    +0.000 A 
ATOM      5  C   UNL     1       3.291   5.025  18.159  0.00  0.00    +0.000 A 
ATOM      6  C   UNL     1       4.003   4.320  17.174  0.00  0.00    +0.000 A 
ENDROOT
BRANCH   5   7
ATOM      7  N   UNL     1       2.465   4.334  19.103  0.00  0.00    +0.000 N 
ATOM      8  C   UNL     1       1.347   3.568  18.818  0.00  0.00    +0.000 A 
ATOM      9  C   UNL     1       0.815   3.073  19.990  0.00  0.00    +0.000 A 
ATOM     10  C   UNL     1       1.625   3.541  21.042  0.00  0.00    +0.000 A 
ATOM     11  C   UNL     1       2.623   4.307  20.478  0.00  0.00    +0.000 A 
ENDBRANCH   5   7
BRANCH   1  12
ATOM     12  C   UNL     1       5.577   4.221  15.198  0.00  0.00    +0.000 C 
BRANCH  12  14
ATOM     13  N   UNL     1       7.307   5.212  13.798  0.00  0.00    +0.000 N 
ATOM     14  C   UNL     1       7.013   4.684  15.051  0.00  0.00    +0.000 C 
ATOM     15  O   UNL     1       7.848   4.576  15.951  0.00  0.00    +0.000 OA
ATOM     16  H   UNL     1       6.555   5.419  13.145  0.00  0.00    +0.000 HD
BRANCH  13  17
ATOM     17  N   UNL     1       8.583   5.762  13.556  0.00  0.00    +0.000 NA
ATOM     18  H   UNL     1       9.132   5.696  14.416  0.00  0.00    +0.000 HD
ATOM     19  H   UNL     1       8.449   6.774  13.413  0.00  0.00    +0.000 HD
ENDBRANCH  13  17
ENDBRANCH  12  14
ENDBRANCH   1  12
TORSDOF 4
ENDMDL
MODEL 2
REMARK VINA RESULT:      -7.2      1.334      1.615
REMARK  Name = 
REMARK  4 active torsions:
REMARK  status: ('A' for Active; 'I' for Inactive)
REMARK    1  A    between atoms: N_1  and  N_2
REMARK    2  A    between atoms: C_3  and  C_5
REMARK    3  A    between atoms: C_5  and  C_6
REMARK    4  A    between atoms: C_10  and  N_11
REMARK                            x       y       z     vdW  Elec       q    Type
REMARK                         _______ _______ _______ _____ _____    ______ ____
ROOT
ATOM      1  C   UNL     1       5.640   5.203  17.013  0.00  0.00    +0.000 A 
ATOM      2  C   UNL     1       5.398   6.577  16.924  0.00  0.00    +0.000 A 
ATOM      3  C   UNL     1       4.189   7.105  17.371  0.00  0.00    +0.000 A 
ATOM      4  C   UNL     1       3.210   6.269  17.911  0.00  0.00    +0.000 A 
ATOM      5  C   UNL     1       3.425   4.885  18.004  0.00  0.00    +0.000 A 
ATOM      6  C   UNL     1       4.644   4.361  17.543  0.00  0.00    +0.000 A 
ENDROOT
BRANCH   5   7
ATOM      7  N   UNL     1       2.421   4.029  18.561  0.00  0.00    +0.000 N 
ATOM      8  C   UNL     1       1.668   4.269  19.699  0.00  0.00    +0.000 A 
ATOM      9  C   UNL     1       0.813   3.210  19.919  0.00  0.00    +0.000 A 
ATOM     10  C   UNL     1       1.036   2.277  18.888  0.00  0.00    +0.000 A 
ATOM     11  C   UNL     1       2.019   2.797  18.074  0.00  0.00    +0.000 A 
ENDBRANCH   5   7
BRANCH   1  12
ATOM     12  C   UNL     1       6.938   4.620  16.511  0.00  0.00    +0.000 C 
BRANCH  12  14
ATOM     13  N   UNL     1       6.327   3.544  14.413  0.00  0.00    +0.000 N 
ATOM     14  C   UNL     1       7.014   4.603  14.998  0.00  0.00    +0.000 C 
ATOM     15  O   UNL     1       7.651   5.435  14.349  0.00  0.00    +0.000 OA
ATOM     16  H   UNL     1       5.696   2.976  14.974  0.00  0.00    +0.000 HD
BRANCH  13  17
ATOM     17  N   UNL     1       6.242   3.460  13.008  0.00  0.00    +0.000 NA
ATOM     18  H   UNL     1       5.450   2.861  12.766  0.00  0.00    +0.000 HD
ATOM     19  H   UNL     1       7.070   2.935  12.690  0.00  0.00    +0.000 HD
ENDBRANCH  13  17
ENDBRANCH  12  14
ENDBRANCH   1  12
TORSDOF 4
ENDMDL
MODEL 3
REMARK VINA RESULT:      -7.1      2.255      2.626
REMARK  Name = 
REMARK  4 active torsions:
REMARK  status: ('A' for Active; 'I' for Inactive)
REMARK    1  A    between atoms: N_1  and  N_2
REMARK    2  A    between atoms: C_3  and  C_5
REMARK    3  A    between atoms: C_5  and  C_6
REMARK    4  A    between atoms: C_10  and  N_11
REMARK                            x       y       z     vdW  Elec       q    Type
REMARK                         _______ _______ _______ _____ _____    ______ ____
ROOT
ATOM      1  C   UNL     1       5.184   5.748  17.279  0.00  0.00    +0.000 A 
ATOM      2  C   UNL     1       4.770   7.077  17.152  0.00  0.00    +0.000 A 
ATOM      3  C   UNL     1       3.509   7.463  17.599  0.00  0.00    +0.000 A 
ATOM      4  C   UNL     1       2.649   6.528  18.178  0.00  0.00    +0.000 A 
ATOM      5  C   UNL     1       3.037   5.186  18.311  0.00  0.00    +0.000 A 
ATOM      6  C   UNL     1       4.308   4.805  17.848  0.00  0.00    +0.000 A 
ENDROOT
BRANCH   5   7
ATOM      7  N   UNL     1       2.156   4.228  18.908  0.00  0.00    +0.000 N 
ATOM      8  C   UNL     1       1.791   4.160  20.242  0.00  0.00    +0.000 A 
ATOM      9  C   UNL     1       0.933   3.098  20.433  0.00  0.00    +0.000 A 
ATOM     10  C   UNL     1       0.753   2.481  19.180  0.00  0.00    +0.000 A 
ATOM     11  C   UNL     1       1.507   3.187  18.267  0.00  0.00    +0.000 A 
ENDBRANCH   5   7
BRANCH   1  12
ATOM     12  C   UNL     1       6.540   5.317  16.776  0.00  0.00    +0.000 C 
BRANCH  12  14
ATOM     13  N   UNL     1       7.303   5.735  19.052  0.00  0.00    +0.000 N 
ATOM     14  C   UNL     1       7.488   4.967  17.906  0.00  0.00    +0.000 C 
ATOM     15  O   UNL     1       8.361   4.103  17.806  0.00  0.00    +0.000 OA
ATOM     16  H   UNL     1       6.479   6.325  19.140  0.00  0.00    +0.000 HD
BRANCH  13  17
ATOM     17  N   UNL     1       8.059   5.452  20.208  0.00  0.00    +0.000 NA
ATOM     18  H   UNL     1       7.769   4.541  20.570  0.00  0.00    +0.000 HD
ATOM     19  H   UNL     1       7.762   6.124  20.931  0.00  0.00    +0.000 HD
ENDBRANCH  13  17
ENDBRANCH  12  14
ENDBRANCH   1  12
TORSDOF 4
ENDMDL
MODEL 4
REMARK VINA RESULT:      -7.1      1.506      1.807
REMARK  Name = 
REMARK  4 active torsions:
REMARK  status: ('A' for Active; 'I' for Inactive)
REMARK    1  A    between atoms: N_1  and  N_2
REMARK    2  A    between atoms: C_3  and  C_5
REMARK    3  A    between atoms: C_5  and  C_6
REMARK    4  A    between atoms: C_10  and  N_11
REMARK                            x       y       z     vdW  Elec       q    Type
REMARK                         _______ _______ _______ _____ _____    ______ ____
ROOT
ATOM      1  C   UNL     1       4.501   5.489  16.628  0.00  0.00    +0.000 A 
ATOM      2  C   UNL     1       4.388   6.879  16.728  0.00  0.00    +0.000 A 
ATOM      3  C   UNL     1       3.571   7.446  17.702  0.00  0.00    +0.000 A 
ATOM      4  C   UNL     1       2.859   6.633  18.587  0.00  0.00    +0.000 A 
ATOM      5  C   UNL     1       2.949   5.236  18.503  0.00  0.00    +0.000 A 
ATOM      6  C   UNL     1       3.769   4.673  17.510  0.00  0.00    +0.000 A 
ENDROOT
BRANCH   5   7
ATOM      7  N   UNL     1       2.222   4.403  19.413  0.00  0.00    +0.000 N 
ATOM      8  C   UNL     1       2.410   4.315  20.783  0.00  0.00    +0.000 A 
ATOM      9  C   UNL     1       1.524   3.400  21.312  0.00  0.00    +0.000 A 
ATOM     10  C   UNL     1       0.756   2.901  20.243  0.00  0.00    +0.000 A 
ATOM     11  C   UNL     1       1.199   3.526  19.097  0.00  0.00    +0.000 A 
ENDBRANCH   5   7
BRANCH   1  12
ATOM     12  C   UNL     1       5.367   4.866  15.560  0.00  0.00    +0.000 C 
BRANCH  12  14
ATOM     13  N   UNL     1       7.051   4.269  17.216  0.00  0.00    +0.000 N 
ATOM     14  C   UNL     1       6.829   4.821  15.958  0.00  0.00    +0.000 C 
ATOM     15  O   UNL     1       7.732   5.261  15.244  0.00  0.00    +0.000 OA
ATOM     16  H   UNL     1       6.298   3.786  17.699  0.00  0.00    +0.000 HD
BRANCH  13  17
ATOM     17  N   UNL     1       8.374   4.086  17.671  0.00  0.00    +0.000 NA
ATOM     18  H   UNL     1       8.973   3.908  16.862  0.00  0.00    +0.000 HD
ATOM     19  H   UNL     1       8.387   3.203  18.201  0.00  0.00    +0.000 HD
ENDBRANCH  13  17
ENDBRANCH  12  14
ENDBRANCH   1  12
TORSDOF 4
ENDMDL
MODEL 5
REMARK VINA RESULT:      -7.1      0.969      1.324
REMARK  Name = 
REMARK  4 active torsions:
REMARK  status: ('A' for Active; 'I' for Inactive)
REMARK    1  A    between atoms: N_1  and  N_2
REMARK    2  A    between atoms: C_3  and  C_5
REMARK    3  A    between atoms: C_5  and  C_6
REMARK    4  A    between atoms: C_10  and  N_11
REMARK                            x       y       z     vdW  Elec       q    Type
REMARK                         _______ _______ _______ _____ _____    ______ ____
ROOT
ATOM      1  C   UNL     1       5.475   5.062  16.817  0.00  0.00    +0.000 A 
ATOM      2  C   UNL     1       5.326   6.447  16.699  0.00  0.00    +0.000 A 
ATOM      3  C   UNL     1       4.222   7.082  17.262  0.00  0.00    +0.000 A 
ATOM      4  C   UNL     1       3.257   6.343  17.949  0.00  0.00    +0.000 A 
ATOM      5  C   UNL     1       3.379   4.951  18.075  0.00  0.00    +0.000 A 
ATOM      6  C   UNL     1       4.492   4.318  17.495  0.00  0.00    +0.000 A 
ENDROOT
BRANCH   5   7
ATOM      7  N   UNL     1       2.391   4.194  18.783  0.00  0.00    +0.000 N 
ATOM      8  C   UNL     1       2.014   4.359  20.106  0.00  0.00    +0.000 A 
ATOM      9  C   UNL     1       1.039   3.439  20.426  0.00  0.00    +0.000 A 
ATOM     10  C   UNL     1       0.796   2.674  19.270  0.00  0.00    +0.000 A 
ATOM     11  C   UNL     1       1.630   3.152  18.282  0.00  0.00    +0.000 A 
ENDBRANCH   5   7
BRANCH   1  12
ATOM     12  C   UNL     1       6.657   4.363  16.190  0.00  0.00    +0.000 C 
BRANCH  12  14
ATOM     13  N   UNL     1       7.822   5.450  14.347  0.00  0.00    +0.000 N 
ATOM     14  C   UNL     1       6.757   4.626  14.700  0.00  0.00    +0.000 C 
ATOM     15  O   UNL     1       5.952   4.176  13.884  0.00  0.00    +0.000 OA
ATOM     16  H   UNL     1       8.542   5.671  15.030  0.00  0.00    +0.000 HD
BRANCH  13  17
ATOM     17  N   UNL     1       8.083   5.702  12.984  0.00  0.00    +0.000 NA
ATOM     18  H   UNL     1       7.242   5.479  12.446  0.00  0.00    +0.000 HD
ATOM     19  H   UNL     1       8.777   5.003  12.679  0.00  0.00    +0.000 HD
ENDBRANCH  13  17
ENDBRANCH  12  14
ENDBRANCH   1  12
TORSDOF 4
ENDMDL
MODEL 6
REMARK VINA RESULT:      -7.1      1.372      1.451
REMARK  Name = 
REMARK  4 active torsions:
REMARK  status: ('A' for Active; 'I' for Inactive)
REMARK    1  A    between atoms: N_1  and  N_2
REMARK    2  A    between atoms: C_3  and  C_5
REMARK    3  A    between atoms: C_5  and  C_6
REMARK    4  A    between atoms: C_10  and  N_11
REMARK                            x       y       z     vdW  Elec       q    Type
REMARK                         _______ _______ _______ _____ _____    ______ ____
ROOT
ATOM      1  C   UNL     1       5.726   5.224  17.303  0.00  0.00    +0.000 A 
ATOM      2  C   UNL     1       5.309   6.500  16.913  0.00  0.00    +0.000 A 
ATOM      3  C   UNL     1       4.105   7.017  17.385  0.00  0.00    +0.000 A 
ATOM      4  C   UNL     1       3.306   6.267  18.250  0.00  0.00    +0.000 A 
ATOM      5  C   UNL     1       3.698   4.981  18.650  0.00  0.00    +0.000 A 
ATOM      6  C   UNL     1       4.910   4.464  18.162  0.00  0.00    +0.000 A 
ENDROOT
BRANCH   5   7
ATOM      7  N   UNL     1       2.879   4.214  19.540  0.00  0.00    +0.000 N 
ATOM      8  C   UNL     1       1.551   4.453  19.853  0.00  0.00    +0.000 A 
ATOM      9  C   UNL     1       1.111   3.503  20.751  0.00  0.00    +0.000 A 
ATOM     10  C   UNL     1       2.194   2.642  21.008  0.00  0.00    +0.000 A 
ATOM     11  C   UNL     1       3.260   3.095  20.260  0.00  0.00    +0.000 A 
ENDBRANCH   5   7
BRANCH   1  12
ATOM     12  C   UNL     1       7.019   4.648  16.779  0.00  0.00    +0.000 C 
BRANCH  12  14
ATOM     13  N   UNL     1       6.323   3.576  14.704  0.00  0.00    +0.000 N 
ATOM     14  C   UNL     1       7.061   4.615  15.264  0.00  0.00    +0.000 C 
ATOM     15  O   UNL     1       7.714   5.417  14.594  0.00  0.00    +0.000 OA
ATOM     16  H   UNL     1       5.684   3.038  15.284  0.00  0.00    +0.000 HD
BRANCH  13  17
ATOM     17  N   UNL     1       6.205   3.484  13.302  0.00  0.00    +0.000 NA
ATOM     18  H   UNL     1       5.321   3.021  13.081  0.00  0.00    +0.000 HD
ATOM     19  H   UNL     1       6.929   2.823  12.985  0.00  0.00    +0.000 HD
ENDBRANCH  13  17
ENDBRANCH  12  14
ENDBRANCH   1  12
TORSDOF 4
ENDMDL
MODEL 7
REMARK VINA RESULT:      -6.9      2.673      2.929
REMARK  Name = 
REMARK  4 active torsions:
REMARK  status: ('A' for Active; 'I' for Inactive)
REMARK    1  A    between atoms: N_1  and  N_2
REMARK    2  A    between atoms: C_3  and  C_5
REMARK    3  A    between atoms: C_5  and  C_6
REMARK    4  A    between atoms: C_10  and  N_11
REMARK                            x       y       z     vdW  Elec       q    Type
REMARK                         _______ _______ _______ _____ _____    ______ ____
ROOT
ATOM      1  C   UNL     1       5.214   5.997  17.726  0.00  0.00    +0.000 A 
ATOM      2  C   UNL     1       4.679   7.241  17.377  0.00  0.00    +0.000 A 
ATOM      3  C   UNL     1       3.330   7.508  17.595  0.00  0.00    +0.000 A 
ATOM      4  C   UNL     1       2.501   6.540  18.165  0.00  0.00    +0.000 A 
ATOM      5  C   UNL     1       3.011   5.281  18.518  0.00  0.00    +0.000 A 
ATOM      6  C   UNL     1       4.371   5.017  18.285  0.00  0.00    +0.000 A 
ENDROOT
BRANCH   5   7
ATOM      7  N   UNL     1       2.161   4.290  19.105  0.00  0.00    +0.000 N 
ATOM      8  C   UNL     1       1.385   3.362  18.430  0.00  0.00    +0.000 A 
ATOM      9  C   UNL     1       0.700   2.584  19.339  0.00  0.00    +0.000 A 
ATOM     10  C   UNL     1       1.058   3.035  20.623  0.00  0.00    +0.000 A 
ATOM     11  C   UNL     1       1.949   4.074  20.456  0.00  0.00    +0.000 A 
ENDBRANCH   5   7
BRANCH   1  12
ATOM     12  C   UNL     1       6.669   5.691  17.472  0.00  0.00    +0.000 C 
BRANCH  12  14
ATOM     13  N   UNL     1       7.459   5.150  19.713  0.00  0.00    +0.000 N 
ATOM     14  C   UNL     1       7.548   6.049  18.654  0.00  0.00    +0.000 C 
ATOM     15  O   UNL     1       8.252   7.060  18.684  0.00  0.00    +0.000 OA
ATOM     16  H   UNL     1       6.985   4.258  19.583  0.00  0.00    +0.000 HD
BRANCH  13  17
ATOM     17  N   UNL     1       8.291   5.317  20.839  0.00  0.00    +0.000 NA
ATOM     18  H   UNL     1       8.289   4.446  21.375  0.00  0.00    +0.000 HD
ATOM     19  H   UNL     1       7.826   6.000  21.454  0.00  0.00    +0.000 HD
ENDBRANCH  13  17
ENDBRANCH  12  14
ENDBRANCH   1  12
TORSDOF 4
ENDMDL
MODEL 8
REMARK VINA RESULT:      -6.9      2.405      2.694
REMARK  Name = 
REMARK  4 active torsions:
REMARK  status: ('A' for Active; 'I' for Inactive)
REMARK    1  A    between atoms: N_1  and  N_2
REMARK    2  A    between atoms: C_3  and  C_5
REMARK    3  A    between atoms: C_5  and  C_6
REMARK    4  A    between atoms: C_10  and  N_11
REMARK                            x       y       z     vdW  Elec       q    Type
REMARK                         _______ _______ _______ _____ _____    ______ ____
ROOT
ATOM      1  C   UNL     1       5.198   5.876  17.543  0.00  0.00    +0.000 A 
ATOM      2  C   UNL     1       4.535   7.064  17.219  0.00  0.00    +0.000 A 
ATOM      3  C   UNL     1       3.267   7.320  17.733  0.00  0.00    +0.000 A 
ATOM      4  C   UNL     1       2.647   6.396  18.576  0.00  0.00    +0.000 A 
ATOM      5  C   UNL     1       3.287   5.193  18.911  0.00  0.00    +0.000 A 
ATOM      6  C   UNL     1       4.563   4.939  18.379  0.00  0.00    +0.000 A 
ENDROOT
BRANCH   5   7
ATOM      7  N   UNL     1       2.652   4.247  19.778  0.00  0.00    +0.000 N 
ATOM      8  C   UNL     1       3.247   3.152  20.384  0.00  0.00    +0.000 A 
ATOM      9  C   UNL     1       2.310   2.476  21.138  0.00  0.00    +0.000 A 
ATOM     10  C   UNL     1       1.092   3.168  21.002  0.00  0.00    +0.000 A 
ATOM     11  C   UNL     1       1.325   4.242  20.170  0.00  0.00    +0.000 A 
ENDBRANCH   5   7
BRANCH   1  12
ATOM     12  C   UNL     1       6.563   5.580  16.972  0.00  0.00    +0.000 C 
BRANCH  12  14
ATOM     13  N   UNL     1       7.497   5.810  19.210  0.00  0.00    +0.000 N 
ATOM     14  C   UNL     1       7.532   5.081  18.025  0.00  0.00    +0.000 C 
ATOM     15  O   UNL     1       8.299   4.135  17.836  0.00  0.00    +0.000 OA
ATOM     16  H   UNL     1       6.748   6.479  19.373  0.00  0.00    +0.000 HD
BRANCH  13  17
ATOM     17  N   UNL     1       8.285   5.396  20.304  0.00  0.00    +0.000 NA
ATOM     18  H   UNL     1       7.905   4.517  20.662  0.00  0.00    +0.000 HD
ATOM     19  H   UNL     1       8.123   6.076  21.062  0.00  0.00    +0.000 HD
ENDBRANCH  13  17
ENDBRANCH  12  14
ENDBRANCH   1  12
TORSDOF 4
ENDMDL
MODEL 9
REMARK VINA RESULT:      -6.8      1.518      1.967
REMARK  Name = 
REMARK  4 active torsions:
REMARK  status: ('A' for Active; 'I' for Inactive)
REMARK    1  A    between atoms: N_1  and  N_2
REMARK    2  A    between atoms: C_3  and  C_5
REMARK    3  A    between atoms: C_5  and  C_6
REMARK    4  A    between atoms: C_10  and  N_11
REMARK                            x       y       z     vdW  Elec       q    Type
REMARK                         _______ _______ _______ _____ _____    ______ ____
ROOT
ATOM      1  C   UNL     1       5.254   5.528  16.822  0.00  0.00    +0.000 A 
ATOM      2  C   UNL     1       6.272   5.755  17.753  0.00  0.00    +0.000 A 
ATOM      3  C   UNL     1       6.117   5.343  19.073  0.00  0.00    +0.000 A 
ATOM      4  C   UNL     1       4.946   4.700  19.479  0.00  0.00    +0.000 A 
ATOM      5  C   UNL     1       3.906   4.467  18.567  0.00  0.00    +0.000 A 
ATOM      6  C   UNL     1       4.068   4.895  17.238  0.00  0.00    +0.000 A 
ENDROOT
BRANCH   5   7
ATOM      7  N   UNL     1       2.707   3.804  18.983  0.00  0.00    +0.000 N 
ATOM      8  C   UNL     1       2.197   3.750  20.270  0.00  0.00    +0.000 A 
ATOM      9  C   UNL     1       1.031   3.014  20.274  0.00  0.00    +0.000 A 
ATOM     10  C   UNL     1       0.801   2.595  18.950  0.00  0.00    +0.000 A 
ATOM     11  C   UNL     1       1.834   3.088  18.182  0.00  0.00    +0.000 A 
ENDBRANCH   5   7
BRANCH   1  12
ATOM     12  C   UNL     1       5.405   5.992  15.394  0.00  0.00    +0.000 C 
BRANCH  12  14
ATOM     13  N   UNL     1       5.661   4.070  13.919  0.00  0.00    +0.000 N 
ATOM     14  C   UNL     1       6.324   5.093  14.591  0.00  0.00    +0.000 C 
ATOM     15  O   UNL     1       7.547   5.239  14.561  0.00  0.00    +0.000 OA
ATOM     16  H   UNL     1       4.646   4.081  13.851  0.00  0.00    +0.000 HD
BRANCH  13  17
ATOM     17  N   UNL     1       6.387   3.216  13.063  0.00  0.00    +0.000 NA
ATOM     18  H   UNL     1       7.299   3.641  12.879  0.00  0.00    +0.000 HD
ATOM     19  H   UNL     1       5.907   3.229  12.152  0.00  0.00    +0.000 HD
ENDBRANCH  13  17
ENDBRANCH  12  14
ENDBRANCH   1  12
TORSDOF 4
ENDMDL
