MODEL 1
REMARK VINA RESULT:     -10.2      0.000      0.000
REMARK  Name = 
REMARK  5 active torsions:
REMARK  status: ('A' for Active; 'I' for Inactive)
REMARK    1  A    between atoms: C_2  and  C_23
REMARK    2  A    between atoms: N_3  and  C_4
REMARK    3  A    between atoms: N_11  and  C_12
REMARK    4  A    between atoms: C_12  and  C_13
REMARK    5  A    between atoms: C_17  and  C_18
REMARK                            x       y       z     vdW  Elec       q    Type
REMARK                         _______ _______ _______ _____ _____    ______ ____
ROOT
ATOM      1  C   UNL     1       6.643   6.817  17.194  0.00  0.00    +0.000 C 
ATOM      2  C   UNL     1       5.287   6.824  16.456  0.00  0.00    +0.000 C 
ATOM      3  C   UNL     1       4.839   5.393  16.083  0.00  0.00    +0.000 C 
ATOM      4  C   UNL     1       5.361   4.908  14.710  0.00  0.00    +0.000 C 
ATOM      5  C   UNL     1       6.585   4.044  15.024  0.00  0.00    +0.000 C 
ATOM      6  C   UNL     1       6.853   4.375  16.486  0.00  0.00    +0.000 C 
ATOM      7  C   UNL     1       7.571   5.762  16.574  0.00  0.00    +0.000 C 
ATOM      8  N   UNL     1       5.483   4.481  17.056  0.00  0.00    +0.000 NA
ENDROOT
BRANCH   1  11
ATOM      9  O   UNL     1       8.682   7.599  19.054  0.00  0.00    +0.000 OA
ATOM     10  C   UNL     1       8.219   8.428  18.283  0.00  0.00    +0.000 C 
ATOM     11  N   UNL     1       7.246   8.137  17.358  0.00  0.00    +0.000 N 
ATOM     12  H   UNL     1       6.794   8.899  16.867  0.00  0.00    +0.000 HD
BRANCH  10  13
ATOM     13  C   UNL     1       8.712   9.839  18.329  0.00  0.00    +0.000 A 
ATOM     14  C   UNL     1       8.069  10.762  17.499  0.00  0.00    +0.000 A 
ATOM     15  C   UNL     1       8.364  12.122  17.585  0.00  0.00    +0.000 A 
ATOM     16  C   UNL     1       9.304  12.588  18.511  0.00  0.00    +0.000 A 
ATOM     17  C   UNL     1       9.494  13.963  18.708  0.00  0.00    +0.000 A 
ATOM     18  C   UNL     1      10.418  14.429  19.643  0.00  0.00    +0.000 A 
ATOM     19  C   UNL     1      11.219  13.525  20.331  0.00  0.00    +0.000 A 
ATOM     20  C   UNL     1      11.036  12.150  20.153  0.00  0.00    +0.000 A 
ATOM     21  C   UNL     1      10.038  11.661  19.287  0.00  0.00    +0.000 A 
ATOM     22  C   UNL     1       9.719  10.288  19.202  0.00  0.00    +0.000 A 
ENDBRANCH  10  13
ENDBRANCH   1  11
BRANCH   8  23
ATOM     23  C   UNL     1       4.715   3.227  17.144  0.00  0.00    +0.000 C 
BRANCH  23  24
ATOM     24  C   UNL     1       3.431   3.319  17.932  0.00  0.00    +0.000 A 
ATOM     25  C   UNL     1       2.252   3.737  17.301  0.00  0.00    +0.000 A 
ATOM     26  C   UNL     1       1.080   3.915  18.037  0.00  0.00    +0.000 A 
ATOM     27  C   UNL     1       1.077   3.675  19.411  0.00  0.00    +0.000 A 
ATOM     28  C   UNL     1       2.243   3.250  20.058  0.00  0.00    +0.000 A 
ATOM     29  C   UNL     1       3.415   3.064  19.309  0.00  0.00    +0.000 A 
BRANCH  28  30
ATOM     30  C   UNL     1       2.267   2.997  21.554  0.00  0.00    +0.000 C 
ATOM     31  F   UNL     1       3.231   2.115  21.939  0.00  0.00    +0.000 F 
ATOM     32  F   UNL     1       2.476   4.128  22.277  0.00  0.00    +0.000 F 
ATOM     33  F   UNL     1       1.087   2.475  22.004  0.00  0.00    +0.000 F 
ENDBRANCH  28  30
ENDBRANCH  23  24
ENDBRANCH   8  23
TORSDOF 5
ENDMDL
MODEL 2
REMARK VINA RESULT:      -9.6      1.078      1.382
REMARK  Name = 
REMARK  5 active torsions:
REMARK  status: ('A' for Active; 'I' for Inactive)
REMARK    1  A    between atoms: C_2  and  C_23
REMARK    2  A    between atoms: N_3  and  C_4
REMARK    3  A    between atoms: N_11  and  C_12
REMARK    4  A    between atoms: C_12  and  C_13
REMARK    5  A    between atoms: C_17  and  C_18
REMARK                            x       y       z     vdW  Elec       q    Type
REMARK                         _______ _______ _______ _____ _____    ______ ____
ROOT
ATOM      1  C   UNL     1       6.375   6.858  16.987  0.00  0.00    +0.000 C 
ATOM      2  C   UNL     1       5.319   6.874  15.861  0.00  0.00    +0.000 C 
ATOM      3  C   UNL     1       4.881   5.442  15.478  0.00  0.00    +0.000 C 
ATOM      4  C   UNL     1       5.755   4.789  14.382  0.00  0.00    +0.000 C 
ATOM      5  C   UNL     1       6.738   3.887  15.132  0.00  0.00    +0.000 C 
ATOM      6  C   UNL     1       6.571   4.348  16.573  0.00  0.00    +0.000 C 
ATOM      7  C   UNL     1       7.349   5.689  16.776  0.00  0.00    +0.000 C 
ATOM      8  N   UNL     1       5.108   4.595  16.672  0.00  0.00    +0.000 NA
ENDROOT
BRANCH   1  11
ATOM      9  O   UNL     1       8.494   7.448  18.829  0.00  0.00    +0.000 OA
ATOM     10  C   UNL     1       8.026   8.345  18.141  0.00  0.00    +0.000 C 
ATOM     11  N   UNL     1       7.015   8.147  17.231  0.00  0.00    +0.000 N 
ATOM     12  H   UNL     1       6.565   8.955  16.817  0.00  0.00    +0.000 HD
BRANCH  10  13
ATOM     13  C   UNL     1       8.554   9.737  18.278  0.00  0.00    +0.000 A 
ATOM     14  C   UNL     1       8.017  10.704  17.423  0.00  0.00    +0.000 A 
ATOM     15  C   UNL     1       8.344  12.051  17.581  0.00  0.00    +0.000 A 
ATOM     16  C   UNL     1       9.208  12.458  18.604  0.00  0.00    +0.000 A 
ATOM     17  C   UNL     1       9.419  13.820  18.862  0.00  0.00    +0.000 A 
ATOM     18  C   UNL     1      10.267  14.227  19.892  0.00  0.00    +0.000 A 
ATOM     19  C   UNL     1      10.974  13.277  20.621  0.00  0.00    +0.000 A 
ATOM     20  C   UNL     1      10.767  11.915  20.381  0.00  0.00    +0.000 A 
ATOM     21  C   UNL     1       9.839  11.486  19.413  0.00  0.00    +0.000 A 
ATOM     22  C   UNL     1       9.489  10.127  19.254  0.00  0.00    +0.000 A 
ENDBRANCH  10  13
ENDBRANCH   1  11
BRANCH   8  23
ATOM     23  C   UNL     1       4.240   3.408  16.609  0.00  0.00    +0.000 C 
BRANCH  23  24
ATOM     24  C   UNL     1       3.205   3.314  17.704  0.00  0.00    +0.000 A 
ATOM     25  C   UNL     1       2.322   2.227  17.740  0.00  0.00    +0.000 A 
ATOM     26  C   UNL     1       1.302   2.176  18.690  0.00  0.00    +0.000 A 
ATOM     27  C   UNL     1       1.157   3.210  19.614  0.00  0.00    +0.000 A 
ATOM     28  C   UNL     1       2.033   4.300  19.598  0.00  0.00    +0.000 A 
ATOM     29  C   UNL     1       3.063   4.341  18.646  0.00  0.00    +0.000 A 
BRANCH  28  30
ATOM     30  C   UNL     1       1.886   5.446  20.584  0.00  0.00    +0.000 C 
ATOM     31  F   UNL     1       2.519   6.585  20.190  0.00  0.00    +0.000 F 
ATOM     32  F   UNL     1       0.591   5.787  20.806  0.00  0.00    +0.000 F 
ATOM     33  F   UNL     1       2.408   5.137  21.808  0.00  0.00    +0.000 F 
ENDBRANCH  28  30
ENDBRANCH  23  24
ENDBRANCH   8  23
TORSDOF 5
ENDMDL
MODEL 3
REMARK VINA RESULT:      -9.6      6.020      8.087
REMARK  Name = 
REMARK  5 active torsions:
REMARK  status: ('A' for Active; 'I' for Inactive)
REMARK    1  A    between atoms: C_2  and  C_23
REMARK    2  A    between atoms: N_3  and  C_4
REMARK    3  A    between atoms: N_11  and  C_12
REMARK    4  A    between atoms: C_12  and  C_13
REMARK    5  A    between atoms: C_17  and  C_18
REMARK                            x       y       z     vdW  Elec       q    Type
REMARK                         _______ _______ _______ _____ _____    ______ ____
ROOT
ATOM      1  C   UNL     1       2.683   6.160  18.742  0.00  0.00    +0.000 C 
ATOM      2  C   UNL     1       3.587   5.441  19.767  0.00  0.00    +0.000 C 
ATOM      3  C   UNL     1       4.108   4.095  19.213  0.00  0.00    +0.000 C 
ATOM      4  C   UNL     1       3.171   2.896  19.491  0.00  0.00    +0.000 C 
ATOM      5  C   UNL     1       2.377   2.695  18.199  0.00  0.00    +0.000 C 
ATOM      6  C   UNL     1       2.675   3.973  17.428  0.00  0.00    +0.000 C 
ATOM      7  C   UNL     1       1.805   5.136  18.008  0.00  0.00    +0.000 C 
ATOM      8  N   UNL     1       4.110   4.216  17.737  0.00  0.00    +0.000 NA
ENDROOT
BRANCH   1  11
ATOM      9  O   UNL     1       2.281   8.719  17.509  0.00  0.00    +0.000 OA
ATOM     10  C   UNL     1       1.818   8.506  18.621  0.00  0.00    +0.000 C 
ATOM     11  N   UNL     1       1.959   7.309  19.280  0.00  0.00    +0.000 N 
ATOM     12  H   UNL     1       1.697   7.254  20.257  0.00  0.00    +0.000 HD
BRANCH  10  13
ATOM     13  C   UNL     1       1.062   9.585  19.328  0.00  0.00    +0.000 A 
ATOM     14  C   UNL     1       0.638  10.671  18.555  0.00  0.00    +0.000 A 
ATOM     15  C   UNL     1      -0.196  11.647  19.100  0.00  0.00    +0.000 A 
ATOM     16  C   UNL     1      -0.631  11.551  20.427  0.00  0.00    +0.000 A 
ATOM     17  C   UNL     1      -1.588  12.443  20.932  0.00  0.00    +0.000 A 
ATOM     18  C   UNL     1      -2.035  12.338  22.249  0.00  0.00    +0.000 A 
ATOM     19  C   UNL     1      -1.470  11.393  23.097  0.00  0.00    +0.000 A 
ATOM     20  C   UNL     1      -0.521  10.490  22.605  0.00  0.00    +0.000 A 
ATOM     21  C   UNL     1      -0.133  10.517  21.252  0.00  0.00    +0.000 A 
ATOM     22  C   UNL     1       0.699   9.526  20.686  0.00  0.00    +0.000 A 
ENDBRANCH  10  13
ENDBRANCH   1  11
BRANCH   8  23
ATOM     23  C   UNL     1       5.071   3.260  17.163  0.00  0.00    +0.000 C 
BRANCH  23  24
ATOM     24  C   UNL     1       5.854   3.775  15.979  0.00  0.00    +0.000 A 
ATOM     25  C   UNL     1       6.847   4.745  16.165  0.00  0.00    +0.000 A 
ATOM     26  C   UNL     1       7.512   5.296  15.070  0.00  0.00    +0.000 A 
ATOM     27  C   UNL     1       7.191   4.881  13.778  0.00  0.00    +0.000 A 
ATOM     28  C   UNL     1       6.208   3.908  13.572  0.00  0.00    +0.000 A 
ATOM     29  C   UNL     1       5.549   3.351  14.679  0.00  0.00    +0.000 A 
BRANCH  28  30
ATOM     30  C   UNL     1       5.831   3.450  12.174  0.00  0.00    +0.000 C 
ATOM     31  F   UNL     1       4.540   3.733  11.841  0.00  0.00    +0.000 F 
ATOM     32  F   UNL     1       6.604   4.011  11.210  0.00  0.00    +0.000 F 
ATOM     33  F   UNL     1       5.964   2.099  12.025  0.00  0.00    +0.000 F 
ENDBRANCH  28  30
ENDBRANCH  23  24
ENDBRANCH   8  23
TORSDOF 5
ENDMDL
MODEL 4
REMARK VINA RESULT:      -9.4      0.819      1.286
REMARK  Name = 
REMARK  5 active torsions:
REMARK  status: ('A' for Active; 'I' for Inactive)
REMARK    1  A    between atoms: C_2  and  C_23
REMARK    2  A    between atoms: N_3  and  C_4
REMARK    3  A    between atoms: N_11  and  C_12
REMARK    4  A    between atoms: C_12  and  C_13
REMARK    5  A    between atoms: C_17  and  C_18
REMARK                            x       y       z     vdW  Elec       q    Type
REMARK                         _______ _______ _______ _____ _____    ______ ____
ROOT
ATOM      1  C   UNL     1       6.842   6.965  17.337  0.00  0.00    +0.000 C 
ATOM      2  C   UNL     1       5.432   7.082  16.720  0.00  0.00    +0.000 C 
ATOM      3  C   UNL     1       4.923   5.714  16.211  0.00  0.00    +0.000 C 
ATOM      4  C   UNL     1       5.322   5.400  14.750  0.00  0.00    +0.000 C 
ATOM      5  C   UNL     1       6.547   4.487  14.853  0.00  0.00    +0.000 C 
ATOM      6  C   UNL     1       6.938   4.628  16.317  0.00  0.00    +0.000 C 
ATOM      7  C   UNL     1       7.693   5.983  16.517  0.00  0.00    +0.000 C 
ATOM      8  N   UNL     1       5.621   4.679  17.007  0.00  0.00    +0.000 NA
ENDROOT
BRANCH   1  11
ATOM      9  O   UNL     1       8.829   7.540  19.325  0.00  0.00    +0.000 OA
ATOM     10  C   UNL     1       8.431   8.436  18.594  0.00  0.00    +0.000 C 
ATOM     11  N   UNL     1       7.487   8.246  17.613  0.00  0.00    +0.000 N 
ATOM     12  H   UNL     1       7.085   9.056  17.158  0.00  0.00    +0.000 HD
BRANCH  10  13
ATOM     13  C   UNL     1       8.974   9.820  18.754  0.00  0.00    +0.000 A 
ATOM     14  C   UNL     1       9.077  10.311  20.059  0.00  0.00    +0.000 A 
ATOM     15  C   UNL     1       9.706  11.530  20.311  0.00  0.00    +0.000 A 
ATOM     16  C   UNL     1      10.253  12.278  19.262  0.00  0.00    +0.000 A 
ATOM     17  C   UNL     1      11.018  13.425  19.523  0.00  0.00    +0.000 A 
ATOM     18  C   UNL     1      11.577  14.161  18.479  0.00  0.00    +0.000 A 
ATOM     19  C   UNL     1      11.310  13.806  17.162  0.00  0.00    +0.000 A 
ATOM     20  C   UNL     1      10.557  12.660  16.885  0.00  0.00    +0.000 A 
ATOM     21  C   UNL     1      10.069  11.848  17.928  0.00  0.00    +0.000 A 
ATOM     22  C   UNL     1       9.444  10.605  17.686  0.00  0.00    +0.000 A 
ENDBRANCH  10  13
ENDBRANCH   1  11
BRANCH   8  23
ATOM     23  C   UNL     1       4.834   3.435  17.001  0.00  0.00    +0.000 C 
BRANCH  23  24
ATOM     24  C   UNL     1       3.543   3.492  17.781  0.00  0.00    +0.000 A 
ATOM     25  C   UNL     1       2.363   3.908  17.151  0.00  0.00    +0.000 A 
ATOM     26  C   UNL     1       1.184   4.055  17.882  0.00  0.00    +0.000 A 
ATOM     27  C   UNL     1       1.175   3.785  19.250  0.00  0.00    +0.000 A 
ATOM     28  C   UNL     1       2.341   3.362  19.896  0.00  0.00    +0.000 A 
ATOM     29  C   UNL     1       3.521   3.207  19.152  0.00  0.00    +0.000 A 
BRANCH  28  30
ATOM     30  C   UNL     1       2.358   3.076  21.387  0.00  0.00    +0.000 C 
ATOM     31  F   UNL     1       3.371   2.250  21.769  0.00  0.00    +0.000 F 
ATOM     32  F   UNL     1       2.481   4.201  22.138  0.00  0.00    +0.000 F 
ATOM     33  F   UNL     1       1.208   2.469  21.805  0.00  0.00    +0.000 F 
ENDBRANCH  28  30
ENDBRANCH  23  24
ENDBRANCH   8  23
TORSDOF 5
ENDMDL
MODEL 5
REMARK VINA RESULT:      -9.4      6.059      8.000
REMARK  Name = 
REMARK  5 active torsions:
REMARK  status: ('A' for Active; 'I' for Inactive)
REMARK    1  A    between atoms: C_2  and  C_23
REMARK    2  A    between atoms: N_3  and  C_4
REMARK    3  A    between atoms: N_11  and  C_12
REMARK    4  A    between atoms: C_12  and  C_13
REMARK    5  A    between atoms: C_17  and  C_18
REMARK                            x       y       z     vdW  Elec       q    Type
REMARK                         _______ _______ _______ _____ _____    ______ ____
ROOT
ATOM      1  C   UNL     1       3.250   6.152  18.592  0.00  0.00    +0.000 C 
ATOM      2  C   UNL     1       4.257   5.492  19.558  0.00  0.00    +0.000 C 
ATOM      3  C   UNL     1       4.860   4.204  18.952  0.00  0.00    +0.000 C 
ATOM      4  C   UNL     1       4.039   2.927  19.247  0.00  0.00    +0.000 C 
ATOM      5  C   UNL     1       3.203   2.683  17.988  0.00  0.00    +0.000 C 
ATOM      6  C   UNL     1       3.358   3.996  17.233  0.00  0.00    +0.000 C 
ATOM      7  C   UNL     1       2.424   5.072  17.877  0.00  0.00    +0.000 C 
ATOM      8  N   UNL     1       4.781   4.351  17.481  0.00  0.00    +0.000 NA
ENDROOT
BRANCH   1  11
ATOM      9  O   UNL     1       2.315   8.553  17.330  0.00  0.00    +0.000 OA
ATOM     10  C   UNL     1       2.057   8.351  18.508  0.00  0.00    +0.000 C 
ATOM     11  N   UNL     1       2.460   7.227  19.187  0.00  0.00    +0.000 N 
ATOM     12  H   UNL     1       2.356   7.199  20.194  0.00  0.00    +0.000 HD
BRANCH  10  13
ATOM     13  C   UNL     1       1.271   9.364  19.278  0.00  0.00    +0.000 A 
ATOM     14  C   UNL     1       0.785  10.463  18.565  0.00  0.00    +0.000 A 
ATOM     15  C   UNL     1      -0.078  11.377  19.169  0.00  0.00    +0.000 A 
ATOM     16  C   UNL     1      -0.480  11.203  20.498  0.00  0.00    +0.000 A 
ATOM     17  C   UNL     1      -1.463  12.029  21.063  0.00  0.00    +0.000 A 
ATOM     18  C   UNL     1      -1.876  11.846  22.382  0.00  0.00    +0.000 A 
ATOM     19  C   UNL     1      -1.253  10.889  23.175  0.00  0.00    +0.000 A 
ATOM     20  C   UNL     1      -0.278  10.051  22.624  0.00  0.00    +0.000 A 
ATOM     21  C   UNL     1       0.080  10.156  21.266  0.00  0.00    +0.000 A 
ATOM     22  C   UNL     1       0.941   9.229  20.639  0.00  0.00    +0.000 A 
ENDBRANCH  10  13
ENDBRANCH   1  11
BRANCH   8  23
ATOM     23  C   UNL     1       5.790   3.489  16.842  0.00  0.00    +0.000 C 
BRANCH  23  24
ATOM     24  C   UNL     1       6.160   3.876  15.431  0.00  0.00    +0.000 A 
ATOM     25  C   UNL     1       7.161   4.829  15.207  0.00  0.00    +0.000 A 
ATOM     26  C   UNL     1       7.447   5.264  13.913  0.00  0.00    +0.000 A 
ATOM     27  C   UNL     1       6.736   4.747  12.830  0.00  0.00    +0.000 A 
ATOM     28  C   UNL     1       5.738   3.788  13.033  0.00  0.00    +0.000 A 
ATOM     29  C   UNL     1       5.462   3.349  14.336  0.00  0.00    +0.000 A 
BRANCH  28  30
ATOM     30  C   UNL     1       4.941   3.222  11.871  0.00  0.00    +0.000 C 
ATOM     31  F   UNL     1       5.396   2.013  11.440  0.00  0.00    +0.000 F 
ATOM     32  F   UNL     1       3.627   3.050  12.168  0.00  0.00    +0.000 F 
ATOM     33  F   UNL     1       4.976   4.041  10.779  0.00  0.00    +0.000 F 
ENDBRANCH  28  30
ENDBRANCH  23  24
ENDBRANCH   8  23
TORSDOF 5
ENDMDL
MODEL 6
REMARK VINA RESULT:      -9.2      5.904      8.207
REMARK  Name = 
REMARK  5 active torsions:
REMARK  status: ('A' for Active; 'I' for Inactive)
REMARK    1  A    between atoms: C_2  and  C_23
REMARK    2  A    between atoms: N_3  and  C_4
REMARK    3  A    between atoms: N_11  and  C_12
REMARK    4  A    between atoms: C_12  and  C_13
REMARK    5  A    between atoms: C_17  and  C_18
REMARK                            x       y       z     vdW  Elec       q    Type
REMARK                         _______ _______ _______ _____ _____    ______ ____
ROOT
ATOM      1  C   UNL     1       2.533   5.612  19.125  0.00  0.00    +0.000 C 
ATOM      2  C   UNL     1       3.283   4.644  20.066  0.00  0.00    +0.000 C 
ATOM      3  C   UNL     1       3.874   3.446  19.288  0.00  0.00    +0.000 C 
ATOM      4  C   UNL     1       2.906   2.248  19.147  0.00  0.00    +0.000 C 
ATOM      5  C   UNL     1       2.300   2.380  17.748  0.00  0.00    +0.000 C 
ATOM      6  C   UNL     1       2.706   3.792  17.347  0.00  0.00    +0.000 C 
ATOM      7  C   UNL     1       1.765   4.817  18.059  0.00  0.00    +0.000 C 
ATOM      8  N   UNL     1       4.084   3.906  17.896  0.00  0.00    +0.000 NA
ENDROOT
BRANCH   1  11
ATOM      9  O   UNL     1       2.439   8.428  18.586  0.00  0.00    +0.000 OA
ATOM     10  C   UNL     1       1.761   7.965  19.493  0.00  0.00    +0.000 C 
ATOM     11  N   UNL     1       1.743   6.629  19.814  0.00  0.00    +0.000 N 
ATOM     12  H   UNL     1       1.292   6.338  20.673  0.00  0.00    +0.000 HD
BRANCH  10  13
ATOM     13  C   UNL     1       0.904   8.872  20.316  0.00  0.00    +0.000 A 
ATOM     14  C   UNL     1       0.892   8.652  21.697  0.00  0.00    +0.000 A 
ATOM     15  C   UNL     1       0.239   9.539  22.552  0.00  0.00    +0.000 A 
ATOM     16  C   UNL     1      -0.408  10.671  22.043  0.00  0.00    +0.000 A 
ATOM     17  C   UNL     1      -0.934  11.643  22.906  0.00  0.00    +0.000 A 
ATOM     18  C   UNL     1      -1.565  12.779  22.400  0.00  0.00    +0.000 A 
ATOM     19  C   UNL     1      -1.748  12.915  21.028  0.00  0.00    +0.000 A 
ATOM     20  C   UNL     1      -1.221  11.958  20.154  0.00  0.00    +0.000 A 
ATOM     21  C   UNL     1      -0.494  10.856  20.644  0.00  0.00    +0.000 A 
ATOM     22  C   UNL     1       0.183   9.959  19.789  0.00  0.00    +0.000 A 
ENDBRANCH  10  13
ENDBRANCH   1  11
BRANCH   8  23
ATOM     23  C   UNL     1       5.115   3.077  17.250  0.00  0.00    +0.000 C 
BRANCH  23  24
ATOM     24  C   UNL     1       5.865   3.751  16.127  0.00  0.00    +0.000 A 
ATOM     25  C   UNL     1       6.678   4.859  16.395  0.00  0.00    +0.000 A 
ATOM     26  C   UNL     1       7.302   5.548  15.355  0.00  0.00    +0.000 A 
ATOM     27  C   UNL     1       7.120   5.132  14.036  0.00  0.00    +0.000 A 
ATOM     28  C   UNL     1       6.317   4.023  13.748  0.00  0.00    +0.000 A 
ATOM     29  C   UNL     1       5.700   3.330  14.801  0.00  0.00    +0.000 A 
BRANCH  28  30
ATOM     30  C   UNL     1       6.092   3.561  12.320  0.00  0.00    +0.000 C 
ATOM     31  F   UNL     1       4.799   3.684  11.908  0.00  0.00    +0.000 F 
ATOM     32  F   UNL     1       6.845   4.244  11.420  0.00  0.00    +0.000 F 
ATOM     33  F   UNL     1       6.409   2.243  12.152  0.00  0.00    +0.000 F 
ENDBRANCH  28  30
ENDBRANCH  23  24
ENDBRANCH   8  23
TORSDOF 5
ENDMDL
MODEL 7
REMARK VINA RESULT:      -9.1      5.924      8.116
REMARK  Name = 
REMARK  5 active torsions:
REMARK  status: ('A' for Active; 'I' for Inactive)
REMARK    1  A    between atoms: C_2  and  C_23
REMARK    2  A    between atoms: N_3  and  C_4
REMARK    3  A    between atoms: N_11  and  C_12
REMARK    4  A    between atoms: C_12  and  C_13
REMARK    5  A    between atoms: C_17  and  C_18
REMARK                            x       y       z     vdW  Elec       q    Type
REMARK                         _______ _______ _______ _____ _____    ______ ____
ROOT
ATOM      1  C   UNL     1       3.486   6.387  18.143  0.00  0.00    +0.000 C 
ATOM      2  C   UNL     1       4.677   5.964  19.029  0.00  0.00    +0.000 C 
ATOM      3  C   UNL     1       5.285   4.624  18.556  0.00  0.00    +0.000 C 
ATOM      4  C   UNL     1       4.624   3.376  19.186  0.00  0.00    +0.000 C 
ATOM      5  C   UNL     1       3.632   2.870  18.136  0.00  0.00    +0.000 C 
ATOM      6  C   UNL     1       3.566   4.035  17.159  0.00  0.00    +0.000 C 
ATOM      7  C   UNL     1       2.654   5.155  17.759  0.00  0.00    +0.000 C 
ATOM      8  N   UNL     1       4.976   4.506  17.112  0.00  0.00    +0.000 NA
ENDROOT
BRANCH   1  11
ATOM      9  O   UNL     1       1.901   6.453  20.533  0.00  0.00    +0.000 OA
ATOM     10  C   UNL     1       1.970   7.450  19.828  0.00  0.00    +0.000 C 
ATOM     11  N   UNL     1       2.709   7.506  18.672  0.00  0.00    +0.000 N 
ATOM     12  H   UNL     1       2.592   8.299  18.054  0.00  0.00    +0.000 HD
BRANCH  10  13
ATOM     13  C   UNL     1       1.217   8.683  20.213  0.00  0.00    +0.000 A 
ATOM     14  C   UNL     1       0.965   9.613  19.199  0.00  0.00    +0.000 A 
ATOM     15  C   UNL     1       0.147  10.717  19.436  0.00  0.00    +0.000 A 
ATOM     16  C   UNL     1      -0.445  10.908  20.690  0.00  0.00    +0.000 A 
ATOM     17  C   UNL     1      -1.387  11.928  20.889  0.00  0.00    +0.000 A 
ATOM     18  C   UNL     1      -1.989  12.108  22.133  0.00  0.00    +0.000 A 
ATOM     19  C   UNL     1      -1.597  11.324  23.211  0.00  0.00    +0.000 A 
ATOM     20  C   UNL     1      -0.666  10.296  23.027  0.00  0.00    +0.000 A 
ATOM     21  C   UNL     1      -0.122  10.035  21.754  0.00  0.00    +0.000 A 
ATOM     22  C   UNL     1       0.696   8.913  21.499  0.00  0.00    +0.000 A 
ENDBRANCH  10  13
ENDBRANCH   1  11
BRANCH   8  23
ATOM     23  C   UNL     1       5.944   3.601  16.471  0.00  0.00    +0.000 C 
BRANCH  23  24
ATOM     24  C   UNL     1       6.224   3.892  15.016  0.00  0.00    +0.000 A 
ATOM     25  C   UNL     1       7.282   4.739  14.664  0.00  0.00    +0.000 A 
ATOM     26  C   UNL     1       7.494   5.091  13.331  0.00  0.00    +0.000 A 
ATOM     27  C   UNL     1       6.650   4.595  12.337  0.00  0.00    +0.000 A 
ATOM     28  C   UNL     1       5.593   3.742  12.668  0.00  0.00    +0.000 A 
ATOM     29  C   UNL     1       5.391   3.385  14.010  0.00  0.00    +0.000 A 
BRANCH  28  30
ATOM     30  C   UNL     1       4.652   3.202  11.606  0.00  0.00    +0.000 C 
ATOM     31  F   UNL     1       4.494   4.041  10.544  0.00  0.00    +0.000 F 
ATOM     32  F   UNL     1       5.061   2.014  11.093  0.00  0.00    +0.000 F 
ATOM     33  F   UNL     1       3.395   2.988  12.097  0.00  0.00    +0.000 F 
ENDBRANCH  28  30
ENDBRANCH  23  24
ENDBRANCH   8  23
TORSDOF 5
ENDMDL
MODEL 8
REMARK VINA RESULT:      -9.1      6.686      8.638
REMARK  Name = 
REMARK  5 active torsions:
REMARK  status: ('A' for Active; 'I' for Inactive)
REMARK    1  A    between atoms: C_2  and  C_23
REMARK    2  A    between atoms: N_3  and  C_4
REMARK    3  A    between atoms: N_11  and  C_12
REMARK    4  A    between atoms: C_12  and  C_13
REMARK    5  A    between atoms: C_17  and  C_18
REMARK                            x       y       z     vdW  Elec       q    Type
REMARK                         _______ _______ _______ _____ _____    ______ ____
ROOT
ATOM      1  C   UNL     1       1.763   7.777  20.216  0.00  0.00    +0.000 C 
ATOM      2  C   UNL     1       1.346   6.490  20.959  0.00  0.00    +0.000 C 
ATOM      3  C   UNL     1       2.067   5.248  20.387  0.00  0.00    +0.000 C 
ATOM      4  C   UNL     1       1.322   4.577  19.209  0.00  0.00    +0.000 C 
ATOM      5  C   UNL     1       2.009   5.098  17.945  0.00  0.00    +0.000 C 
ATOM      6  C   UNL     1       2.844   6.254  18.479  0.00  0.00    +0.000 C 
ATOM      7  C   UNL     1       1.916   7.490  18.715  0.00  0.00    +0.000 C 
ATOM      8  N   UNL     1       3.330   5.732  19.784  0.00  0.00    +0.000 NA
ENDROOT
BRANCH   1  11
ATOM      9  O   UNL     1       1.802   9.353  22.614  0.00  0.00    +0.000 OA
ATOM     10  C   UNL     1       1.026   9.643  21.714  0.00  0.00    +0.000 C 
ATOM     11  N   UNL     1       0.947   8.947  20.532  0.00  0.00    +0.000 N 
ATOM     12  H   UNL     1       0.177   9.136  19.903  0.00  0.00    +0.000 HD
BRANCH  10  13
ATOM     13  C   UNL     1       0.100  10.806  21.880  0.00  0.00    +0.000 A 
ATOM     14  C   UNL     1       0.282  11.888  21.014  0.00  0.00    +0.000 A 
ATOM     15  C   UNL     1      -0.625  12.947  21.001  0.00  0.00    +0.000 A 
ATOM     16  C   UNL     1      -1.739  12.940  21.850  0.00  0.00    +0.000 A 
ATOM     17  C   UNL     1      -2.732  13.923  21.735  0.00  0.00    +0.000 A 
ATOM     18  C   UNL     1      -3.850  13.907  22.569  0.00  0.00    +0.000 A 
ATOM     19  C   UNL     1      -3.945  12.956  23.578  0.00  0.00    +0.000 A 
ATOM     20  C   UNL     1      -2.967  11.964  23.700  0.00  0.00    +0.000 A 
ATOM     21  C   UNL     1      -1.884  11.905  22.802  0.00  0.00    +0.000 A 
ATOM     22  C   UNL     1      -0.967  10.831  22.795  0.00  0.00    +0.000 A 
ENDBRANCH  10  13
ENDBRANCH   1  11
BRANCH   8  23
ATOM     23  C   UNL     1       4.304   4.630  19.724  0.00  0.00    +0.000 C 
BRANCH  23  24
ATOM     24  C   UNL     1       5.490   4.874  18.822  0.00  0.00    +0.000 A 
ATOM     25  C   UNL     1       6.641   5.489  19.331  0.00  0.00    +0.000 A 
ATOM     26  C   UNL     1       7.707   5.805  18.488  0.00  0.00    +0.000 A 
ATOM     27  C   UNL     1       7.631   5.505  17.128  0.00  0.00    +0.000 A 
ATOM     28  C   UNL     1       6.494   4.884  16.602  0.00  0.00    +0.000 A 
ATOM     29  C   UNL     1       5.430   4.561  17.458  0.00  0.00    +0.000 A 
BRANCH  28  30
ATOM     30  C   UNL     1       6.383   4.562  15.123  0.00  0.00    +0.000 C 
ATOM     31  F   UNL     1       7.464   4.966  14.398  0.00  0.00    +0.000 F 
ATOM     32  F   UNL     1       6.238   3.234  14.882  0.00  0.00    +0.000 F 
ATOM     33  F   UNL     1       5.304   5.169  14.547  0.00  0.00    +0.000 F 
ENDBRANCH  28  30
ENDBRANCH  23  24
ENDBRANCH   8  23
TORSDOF 5
ENDMDL
MODEL 9
REMARK VINA RESULT:      -9.1      6.061      8.231
REMARK  Name = 
REMARK  5 active torsions:
REMARK  status: ('A' for Active; 'I' for Inactive)
REMARK    1  A    between atoms: C_2  and  C_23
REMARK    2  A    between atoms: N_3  and  C_4
REMARK    3  A    between atoms: N_11  and  C_12
REMARK    4  A    between atoms: C_12  and  C_13
REMARK    5  A    between atoms: C_17  and  C_18
REMARK                            x       y       z     vdW  Elec       q    Type
REMARK                         _______ _______ _______ _____ _____    ______ ____
ROOT
ATOM      1  C   UNL     1       2.749   6.491  18.631  0.00  0.00    +0.000 C 
ATOM      2  C   UNL     1       3.735   5.860  19.637  0.00  0.00    +0.000 C 
ATOM      3  C   UNL     1       4.174   4.448  19.188  0.00  0.00    +0.000 C 
ATOM      4  C   UNL     1       3.247   3.314  19.684  0.00  0.00    +0.000 C 
ATOM      5  C   UNL     1       2.325   2.998  18.503  0.00  0.00    +0.000 C 
ATOM      6  C   UNL     1       2.571   4.177  17.572  0.00  0.00    +0.000 C 
ATOM      7  C   UNL     1       1.784   5.421  18.101  0.00  0.00    +0.000 C 
ATOM      8  N   UNL     1       4.033   4.410  17.714  0.00  0.00    +0.000 NA
ENDROOT
BRANCH   1  11
ATOM      9  O   UNL     1       1.372   6.900  21.115  0.00  0.00    +0.000 OA
ATOM     10  C   UNL     1       1.457   7.821  20.314  0.00  0.00    +0.000 C 
ATOM     11  N   UNL     1       2.103   7.712  19.106  0.00  0.00    +0.000 N 
ATOM     12  H   UNL     1       1.995   8.454  18.425  0.00  0.00    +0.000 HD
BRANCH  10  13
ATOM     13  C   UNL     1       0.832   9.141  20.633  0.00  0.00    +0.000 A 
ATOM     14  C   UNL     1       0.914  10.134  19.652  0.00  0.00    +0.000 A 
ATOM     15  C   UNL     1       0.234  11.342  19.806  0.00  0.00    +0.000 A 
ATOM     16  C   UNL     1      -0.551  11.576  20.941  0.00  0.00    +0.000 A 
ATOM     17  C   UNL     1      -1.355  12.722  21.030  0.00  0.00    +0.000 A 
ATOM     18  C   UNL     1      -2.150  12.948  22.153  0.00  0.00    +0.000 A 
ATOM     19  C   UNL     1      -2.087  12.074  23.232  0.00  0.00    +0.000 A 
ATOM     20  C   UNL     1      -1.296  10.923  23.155  0.00  0.00    +0.000 A 
ATOM     21  C   UNL     1      -0.565  10.627  21.988  0.00  0.00    +0.000 A 
ATOM     22  C   UNL     1       0.116   9.402  21.815  0.00  0.00    +0.000 A 
ENDBRANCH  10  13
ENDBRANCH   1  11
BRANCH   8  23
ATOM     23  C   UNL     1       4.915   3.370  17.159  0.00  0.00    +0.000 C 
BRANCH  23  24
ATOM     24  C   UNL     1       5.759   3.807  15.986  0.00  0.00    +0.000 A 
ATOM     25  C   UNL     1       6.819   4.701  16.182  0.00  0.00    +0.000 A 
ATOM     26  C   UNL     1       7.547   5.186  15.095  0.00  0.00    +0.000 A 
ATOM     27  C   UNL     1       7.222   4.778  13.802  0.00  0.00    +0.000 A 
ATOM     28  C   UNL     1       6.172   3.880  13.586  0.00  0.00    +0.000 A 
ATOM     29  C   UNL     1       5.450   3.390  14.685  0.00  0.00    +0.000 A 
BRANCH  28  30
ATOM     30  C   UNL     1       5.790   3.434  12.186  0.00  0.00    +0.000 C 
ATOM     31  F   UNL     1       6.521   4.037  11.207  0.00  0.00    +0.000 F 
ATOM     32  F   UNL     1       5.936   2.097  12.001  0.00  0.00    +0.000 F 
ATOM     33  F   UNL     1       4.484   3.714  11.898  0.00  0.00    +0.000 F 
ENDBRANCH  28  30
ENDBRANCH  23  24
ENDBRANCH   8  23
TORSDOF 5
ENDMDL
