MODEL 1
REMARK VINA RESULT:      -7.8      0.000      0.000
REMARK  Name = 
REMARK  9 active torsions:
REMARK  status: ('A' for Active; 'I' for Inactive)
REMARK    1  A    between atoms: C_1  and  C_2
REMARK    2  A    between atoms: C_2  and  C_3
REMARK    3  A    between atoms: C_2  and  S_4
REMARK    4  A    between atoms: S_4  and  C_7
REMARK    5  A    between atoms: C_10  and  C_11
REMARK    6  A    between atoms: C_14  and  C_15
REMARK    7  A    between atoms: C_15  and  C_16
REMARK    8  A    between atoms: C_16  and  N_17
REMARK    9  A    between atoms: C_21  and  C_22
REMARK                            x       y       z     vdW  Elec       q    Type
REMARK                         _______ _______ _______ _____ _____    ______ ____
ROOT
ATOM      1  C   UNL     1       0.657   9.466  20.218  0.00  0.00    +0.000 A 
ATOM      2  C   UNL     1       0.943   9.709  18.862  0.00  0.00    +0.000 A 
ATOM      3  C   UNL     1       1.762   8.857  18.118  0.00  0.00    +0.000 A 
ATOM      4  C   UNL     1       2.344   7.737  18.714  0.00  0.00    +0.000 A 
ATOM      5  C   UNL     1       2.095   7.489  20.067  0.00  0.00    +0.000 A 
ATOM      6  C   UNL     1       1.258   8.339  20.805  0.00  0.00    +0.000 A 
ENDROOT
BRANCH   1  10
ATOM      7  C   UNL     1      -2.046  12.046  22.350  0.00  0.00    +0.000 A 
ATOM      8  C   UNL     1      -1.878  12.193  20.977  0.00  0.00    +0.000 A 
ATOM      9  C   UNL     1      -1.011  11.338  20.298  0.00  0.00    +0.000 A 
ATOM     10  C   UNL     1      -0.260  10.355  20.970  0.00  0.00    +0.000 A 
ATOM     11  C   UNL     1      -0.420  10.262  22.367  0.00  0.00    +0.000 A 
ATOM     12  C   UNL     1      -1.310  11.099  23.060  0.00  0.00    +0.000 A 
BRANCH   7  13
ATOM     13  S   UNL     1      -3.189  13.113  23.194  0.00  0.00    +0.000 S 
ATOM     14  O   UNL     1      -3.999  12.275  24.058  0.00  0.00    +0.000 OA
ATOM     15  O   UNL     1      -3.816  13.942  22.178  0.00  0.00    +0.000 OA
BRANCH  13  17
ATOM     16  C   UNL     1      -1.349  15.109  23.323  0.00  0.00    +0.000 C 
ATOM     17  C   UNL     1      -2.160  14.172  24.217  0.00  0.00    +0.000 C 
ATOM     18  C   UNL     1      -2.962  14.985  25.231  0.00  0.00    +0.000 C 
ENDBRANCH  13  17
ENDBRANCH   7  13
ENDBRANCH   1  10
BRANCH   4  19
ATOM     19  C   UNL     1       3.293   6.867  17.921  0.00  0.00    +0.000 C 
BRANCH  19  20
ATOM     20  C   UNL     1       3.338   5.457  18.531  0.00  0.00    +0.000 C 
BRANCH  20  21
ATOM     21  N   UNL     1       2.295   4.545  18.054  0.00  0.00    +0.000 NA
ATOM     22  C   UNL     1       2.788   3.449  17.208  0.00  0.00    +0.000 C 
ATOM     23  C   UNL     1       2.390   2.162  17.902  0.00  0.00    +0.000 C 
ATOM     24  C   UNL     1       1.129   2.553  18.638  0.00  0.00    +0.000 C 
ATOM     25  C   UNL     1       1.432   3.973  19.115  0.00  0.00    +0.000 C 
ATOM     26  C   UNL     1       2.007   3.942  20.539  0.00  0.00    +0.000 C 
ENDBRANCH  20  21
ENDBRANCH  19  20
ENDBRANCH   4  19
TORSDOF 6
ENDMDL
MODEL 2
REMARK VINA RESULT:      -7.7      0.168      1.345
REMARK  Name = 
REMARK  9 active torsions:
REMARK  status: ('A' for Active; 'I' for Inactive)
REMARK    1  A    between atoms: C_1  and  C_2
REMARK    2  A    between atoms: C_2  and  C_3
REMARK    3  A    between atoms: C_2  and  S_4
REMARK    4  A    between atoms: S_4  and  C_7
REMARK    5  A    between atoms: C_10  and  C_11
REMARK    6  A    between atoms: C_14  and  C_15
REMARK    7  A    between atoms: C_15  and  C_16
REMARK    8  A    between atoms: C_16  and  N_17
REMARK    9  A    between atoms: C_21  and  C_22
REMARK                            x       y       z     vdW  Elec       q    Type
REMARK                         _______ _______ _______ _____ _____    ______ ____
ROOT
ATOM      1  C   UNL     1       0.550   9.536  20.054  0.00  0.00    +0.000 A 
ATOM      2  C   UNL     1       1.173   8.439  20.674  0.00  0.00    +0.000 A 
ATOM      3  C   UNL     1       2.076   7.621  19.992  0.00  0.00    +0.000 A 
ATOM      4  C   UNL     1       2.372   7.862  18.649  0.00  0.00    +0.000 A 
ATOM      5  C   UNL     1       1.745   8.932  18.003  0.00  0.00    +0.000 A 
ATOM      6  C   UNL     1       0.852   9.760  18.699  0.00  0.00    +0.000 A 
ENDROOT
BRANCH   1  10
ATOM      7  C   UNL     1      -2.053  12.107  22.319  0.00  0.00    +0.000 A 
ATOM      8  C   UNL     1      -1.314  11.119  22.963  0.00  0.00    +0.000 A 
ATOM      9  C   UNL     1      -0.463  10.305  22.217  0.00  0.00    +0.000 A 
ATOM     10  C   UNL     1      -0.362  10.422  20.817  0.00  0.00    +0.000 A 
ATOM     11  C   UNL     1      -1.156  11.403  20.191  0.00  0.00    +0.000 A 
ATOM     12  C   UNL     1      -1.998  12.247  20.933  0.00  0.00    +0.000 A 
BRANCH   7  13
ATOM     13  S   UNL     1      -3.098  13.166  23.290  0.00  0.00    +0.000 S 
ATOM     14  O   UNL     1      -3.871  12.312  24.172  0.00  0.00    +0.000 OA
ATOM     15  O   UNL     1      -3.767  14.060  22.361  0.00  0.00    +0.000 OA
BRANCH  13  17
ATOM     16  C   UNL     1      -1.062  14.966  23.363  0.00  0.00    +0.000 C 
ATOM     17  C   UNL     1      -1.965  14.144  24.283  0.00  0.00    +0.000 C 
ATOM     18  C   UNL     1      -2.678  15.065  25.270  0.00  0.00    +0.000 C 
ENDBRANCH  13  17
ENDBRANCH   7  13
ENDBRANCH   1  10
BRANCH   4  19
ATOM     19  C   UNL     1       3.288   6.923  17.897  0.00  0.00    +0.000 C 
BRANCH  19  20
ATOM     20  C   UNL     1       3.287   5.543  18.573  0.00  0.00    +0.000 C 
BRANCH  20  21
ATOM     21  N   UNL     1       2.299   4.598  18.046  0.00  0.00    +0.000 NA
ATOM     22  C   UNL     1       2.873   3.498  17.258  0.00  0.00    +0.000 C 
ATOM     23  C   UNL     1       2.457   2.215  17.949  0.00  0.00    +0.000 C 
ATOM     24  C   UNL     1       1.141   2.591  18.591  0.00  0.00    +0.000 C 
ATOM     25  C   UNL     1       1.380   4.026  19.058  0.00  0.00    +0.000 C 
ATOM     26  C   UNL     1       1.857   4.035  20.518  0.00  0.00    +0.000 C 
ENDBRANCH  20  21
ENDBRANCH  19  20
ENDBRANCH   4  19
TORSDOF 6
ENDMDL
MODEL 3
REMARK VINA RESULT:      -7.6      0.946      1.108
REMARK  Name = 
REMARK  9 active torsions:
REMARK  status: ('A' for Active; 'I' for Inactive)
REMARK    1  A    between atoms: C_1  and  C_2
REMARK    2  A    between atoms: C_2  and  C_3
REMARK    3  A    between atoms: C_2  and  S_4
REMARK    4  A    between atoms: S_4  and  C_7
REMARK    5  A    between atoms: C_10  and  C_11
REMARK    6  A    between atoms: C_14  and  C_15
REMARK    7  A    between atoms: C_15  and  C_16
REMARK    8  A    between atoms: C_16  and  N_17
REMARK    9  A    between atoms: C_21  and  C_22
REMARK                            x       y       z     vdW  Elec       q    Type
REMARK                         _______ _______ _______ _____ _____    ______ ____
ROOT
ATOM      1  C   UNL     1       0.594   9.590  19.832  0.00  0.00    +0.000 A 
ATOM      2  C   UNL     1       0.952   9.691  18.476  0.00  0.00    +0.000 A 
ATOM      3  C   UNL     1       1.808   8.770  17.869  0.00  0.00    +0.000 A 
ATOM      4  C   UNL     1       2.357   7.722  18.609  0.00  0.00    +0.000 A 
ATOM      5  C   UNL     1       2.036   7.616  19.966  0.00  0.00    +0.000 A 
ATOM      6  C   UNL     1       1.162   8.534  20.565  0.00  0.00    +0.000 A 
ENDROOT
BRANCH   1  10
ATOM      7  C   UNL     1      -2.223  12.358  21.541  0.00  0.00    +0.000 A 
ATOM      8  C   UNL     1      -2.132  12.217  20.160  0.00  0.00    +0.000 A 
ATOM      9  C   UNL     1      -1.226  11.305  19.622  0.00  0.00    +0.000 A 
ATOM     10  C   UNL     1      -0.361  10.549  20.437  0.00  0.00    +0.000 A 
ATOM     11  C   UNL     1      -0.448  10.747  21.830  0.00  0.00    +0.000 A 
ATOM     12  C   UNL     1      -1.374  11.644  22.386  0.00  0.00    +0.000 A 
BRANCH   7  13
ATOM     13  S   UNL     1      -3.415  13.492  22.212  0.00  0.00    +0.000 S 
ATOM     14  O   UNL     1      -4.728  13.007  21.832  0.00  0.00    +0.000 OA
ATOM     15  O   UNL     1      -2.986  14.826  21.828  0.00  0.00    +0.000 OA
BRANCH  13  17
ATOM     16  C   UNL     1      -3.197  14.738  24.618  0.00  0.00    +0.000 C 
ATOM     17  C   UNL     1      -3.238  13.344  23.994  0.00  0.00    +0.000 C 
ATOM     18  C   UNL     1      -4.348  12.517  24.637  0.00  0.00    +0.000 C 
ENDBRANCH  13  17
ENDBRANCH   7  13
ENDBRANCH   1  10
BRANCH   4  19
ATOM     19  C   UNL     1       3.347   6.778  17.964  0.00  0.00    +0.000 C 
BRANCH  19  20
ATOM     20  C   UNL     1       3.382   5.452  18.740  0.00  0.00    +0.000 C 
BRANCH  20  21
ATOM     21  N   UNL     1       2.744   4.322  18.060  0.00  0.00    +0.000 NA
ATOM     22  C   UNL     1       3.621   3.159  17.862  0.00  0.00    +0.000 C 
ATOM     23  C   UNL     1       2.955   1.996  18.571  0.00  0.00    +0.000 C 
ATOM     24  C   UNL     1       1.486   2.343  18.478  0.00  0.00    +0.000 C 
ATOM     25  C   UNL     1       1.476   3.859  18.673  0.00  0.00    +0.000 C 
ATOM     26  C   UNL     1       1.252   4.201  20.154  0.00  0.00    +0.000 C 
ENDBRANCH  20  21
ENDBRANCH  19  20
ENDBRANCH   4  19
TORSDOF 6
ENDMDL
MODEL 4
REMARK VINA RESULT:      -7.6      1.788      2.795
REMARK  Name = 
REMARK  9 active torsions:
REMARK  status: ('A' for Active; 'I' for Inactive)
REMARK    1  A    between atoms: C_1  and  C_2
REMARK    2  A    between atoms: C_2  and  C_3
REMARK    3  A    between atoms: C_2  and  S_4
REMARK    4  A    between atoms: S_4  and  C_7
REMARK    5  A    between atoms: C_10  and  C_11
REMARK    6  A    between atoms: C_14  and  C_15
REMARK    7  A    between atoms: C_15  and  C_16
REMARK    8  A    between atoms: C_16  and  N_17
REMARK    9  A    between atoms: C_21  and  C_22
REMARK                            x       y       z     vdW  Elec       q    Type
REMARK                         _______ _______ _______ _____ _____    ______ ____
ROOT
ATOM      1  C   UNL     1       2.075   8.091  19.044  0.00  0.00    +0.000 A 
ATOM      2  C   UNL     1       2.300   7.006  19.910  0.00  0.00    +0.000 A 
ATOM      3  C   UNL     1       3.227   6.006  19.612  0.00  0.00    +0.000 A 
ATOM      4  C   UNL     1       3.950   6.045  18.419  0.00  0.00    +0.000 A 
ATOM      5  C   UNL     1       3.724   7.101  17.530  0.00  0.00    +0.000 A 
ATOM      6  C   UNL     1       2.804   8.111  17.843  0.00  0.00    +0.000 A 
ENDROOT
BRANCH   1  10
ATOM      7  C   UNL     1      -0.707  11.217  20.046  0.00  0.00    +0.000 A 
ATOM      8  C   UNL     1      -0.155  11.157  18.771  0.00  0.00    +0.000 A 
ATOM      9  C   UNL     1       0.733  10.129  18.457  0.00  0.00    +0.000 A 
ATOM     10  C   UNL     1       1.125   9.169  19.411  0.00  0.00    +0.000 A 
ATOM     11  C   UNL     1       0.580   9.285  20.705  0.00  0.00    +0.000 A 
ATOM     12  C   UNL     1      -0.334  10.300  21.028  0.00  0.00    +0.000 A 
BRANCH   7  13
ATOM     13  S   UNL     1      -1.872  12.507  20.416  0.00  0.00    +0.000 S 
ATOM     14  O   UNL     1      -3.082  12.218  19.672  0.00  0.00    +0.000 OA
ATOM     15  O   UNL     1      -1.176  13.768  20.224  0.00  0.00    +0.000 OA
BRANCH  13  17
ATOM     16  C   UNL     1      -1.278  13.230  22.969  0.00  0.00    +0.000 C 
ATOM     17  C   UNL     1      -2.216  12.325  22.170  0.00  0.00    +0.000 C 
ATOM     18  C   UNL     1      -3.668  12.634  22.529  0.00  0.00    +0.000 C 
ENDBRANCH  13  17
ENDBRANCH   7  13
ENDBRANCH   1  10
BRANCH   4  19
ATOM     19  C   UNL     1       4.892   4.915  18.068  0.00  0.00    +0.000 C 
BRANCH  19  20
ATOM     20  C   UNL     1       4.167   3.891  17.180  0.00  0.00    +0.000 C 
BRANCH  20  21
ATOM     21  N   UNL     1       3.667   2.708  17.886  0.00  0.00    +0.000 NA
ATOM     22  C   UNL     1       4.162   2.569  19.263  0.00  0.00    +0.000 C 
ATOM     23  C   UNL     1       2.937   2.557  20.157  0.00  0.00    +0.000 C 
ATOM     24  C   UNL     1       1.875   1.960  19.263  0.00  0.00    +0.000 C 
ATOM     25  C   UNL     1       2.192   2.565  17.896  0.00  0.00    +0.000 C 
ATOM     26  C   UNL     1       1.366   3.841  17.677  0.00  0.00    +0.000 C 
ENDBRANCH  20  21
ENDBRANCH  19  20
ENDBRANCH   4  19
TORSDOF 6
ENDMDL
MODEL 5
REMARK VINA RESULT:      -7.6      0.986      1.769
REMARK  Name = 
REMARK  9 active torsions:
REMARK  status: ('A' for Active; 'I' for Inactive)
REMARK    1  A    between atoms: C_1  and  C_2
REMARK    2  A    between atoms: C_2  and  C_3
REMARK    3  A    between atoms: C_2  and  S_4
REMARK    4  A    between atoms: S_4  and  C_7
REMARK    5  A    between atoms: C_10  and  C_11
REMARK    6  A    between atoms: C_14  and  C_15
REMARK    7  A    between atoms: C_15  and  C_16
REMARK    8  A    between atoms: C_16  and  N_17
REMARK    9  A    between atoms: C_21  and  C_22
REMARK                            x       y       z     vdW  Elec       q    Type
REMARK                         _______ _______ _______ _____ _____    ______ ____
ROOT
ATOM      1  C   UNL     1       0.471   9.706  19.769  0.00  0.00    +0.000 A 
ATOM      2  C   UNL     1       1.048   8.680  20.538  0.00  0.00    +0.000 A 
ATOM      3  C   UNL     1       1.950   7.766  19.991  0.00  0.00    +0.000 A 
ATOM      4  C   UNL     1       2.291   7.833  18.639  0.00  0.00    +0.000 A 
ATOM      5  C   UNL     1       1.709   8.828  17.847  0.00  0.00    +0.000 A 
ATOM      6  C   UNL     1       0.818   9.754  18.407  0.00  0.00    +0.000 A 
ENDROOT
BRANCH   1  10
ATOM      7  C   UNL     1      -2.126  12.601  21.609  0.00  0.00    +0.000 A 
ATOM      8  C   UNL     1      -1.230  11.874  22.385  0.00  0.00    +0.000 A 
ATOM      9  C   UNL     1      -0.384  10.952  21.772  0.00  0.00    +0.000 A 
ATOM     10  C   UNL     1      -0.441  10.697  20.388  0.00  0.00    +0.000 A 
ATOM     11  C   UNL     1      -1.390  11.419  19.637  0.00  0.00    +0.000 A 
ATOM     12  C   UNL     1      -2.230  12.370  20.238  0.00  0.00    +0.000 A 
BRANCH   7  13
ATOM     13  S   UNL     1      -3.166  13.806  22.400  0.00  0.00    +0.000 S 
ATOM     14  O   UNL     1      -4.508  13.618  21.883  0.00  0.00    +0.000 OA
ATOM     15  O   UNL     1      -2.499  15.089  22.261  0.00  0.00    +0.000 OA
BRANCH  13  17
ATOM     16  C   UNL     1      -3.165  14.625  24.992  0.00  0.00    +0.000 C 
ATOM     17  C   UNL     1      -3.149  13.357  24.139  0.00  0.00    +0.000 C 
ATOM     18  C   UNL     1      -4.311  12.449  24.533  0.00  0.00    +0.000 C 
ENDBRANCH  13  17
ENDBRANCH   7  13
ENDBRANCH   1  10
BRANCH   4  19
ATOM     19  C   UNL     1       3.205   6.790  18.037  0.00  0.00    +0.000 C 
BRANCH  19  20
ATOM     20  C   UNL     1       3.147   5.502  18.875  0.00  0.00    +0.000 C 
BRANCH  20  21
ATOM     21  N   UNL     1       2.530   4.356  18.202  0.00  0.00    +0.000 NA
ATOM     22  C   UNL     1       3.443   3.230  17.962  0.00  0.00    +0.000 C 
ATOM     23  C   UNL     1       2.845   2.035  18.676  0.00  0.00    +0.000 C 
ATOM     24  C   UNL     1       1.362   2.327  18.636  0.00  0.00    +0.000 C 
ATOM     25  C   UNL     1       1.301   3.839  18.849  0.00  0.00    +0.000 C 
ATOM     26  C   UNL     1       1.113   4.156  20.340  0.00  0.00    +0.000 C 
ENDBRANCH  20  21
ENDBRANCH  19  20
ENDBRANCH   4  19
TORSDOF 6
ENDMDL
MODEL 6
REMARK VINA RESULT:      -7.5      1.187      1.495
REMARK  Name = 
REMARK  9 active torsions:
REMARK  status: ('A' for Active; 'I' for Inactive)
REMARK    1  A    between atoms: C_1  and  C_2
REMARK    2  A    between atoms: C_2  and  C_3
REMARK    3  A    between atoms: C_2  and  S_4
REMARK    4  A    between atoms: S_4  and  C_7
REMARK    5  A    between atoms: C_10  and  C_11
REMARK    6  A    between atoms: C_14  and  C_15
REMARK    7  A    between atoms: C_15  and  C_16
REMARK    8  A    between atoms: C_16  and  N_17
REMARK    9  A    between atoms: C_21  and  C_22
REMARK                            x       y       z     vdW  Elec       q    Type
REMARK                         _______ _______ _______ _____ _____    ______ ____
ROOT
ATOM      1  C   UNL     1       0.687   9.546  20.384  0.00  0.00    +0.000 A 
ATOM      2  C   UNL     1       0.970   9.765  19.024  0.00  0.00    +0.000 A 
ATOM      3  C   UNL     1       1.737   8.868  18.277  0.00  0.00    +0.000 A 
ATOM      4  C   UNL     1       2.268   7.725  18.875  0.00  0.00    +0.000 A 
ATOM      5  C   UNL     1       2.022   7.499  20.233  0.00  0.00    +0.000 A 
ATOM      6  C   UNL     1       1.237   8.395  20.973  0.00  0.00    +0.000 A 
ENDROOT
BRANCH   1  10
ATOM      7  C   UNL     1      -1.848  12.290  22.520  0.00  0.00    +0.000 A 
ATOM      8  C   UNL     1      -1.401  12.604  21.241  0.00  0.00    +0.000 A 
ATOM      9  C   UNL     1      -0.593  11.697  20.556  0.00  0.00    +0.000 A 
ATOM     10  C   UNL     1      -0.176  10.486  21.140  0.00  0.00    +0.000 A 
ATOM     11  C   UNL     1      -0.611  10.218  22.453  0.00  0.00    +0.000 A 
ATOM     12  C   UNL     1      -1.445  11.110  23.145  0.00  0.00    +0.000 A 
BRANCH   7  13
ATOM     13  S   UNL     1      -2.913  13.435  23.362  0.00  0.00    +0.000 S 
ATOM     14  O   UNL     1      -2.105  14.584  23.725  0.00  0.00    +0.000 OA
ATOM     15  O   UNL     1      -3.616  12.680  24.385  0.00  0.00    +0.000 OA
BRANCH  13  17
ATOM     16  C   UNL     1      -5.004  12.754  21.765  0.00  0.00    +0.000 C 
ATOM     17  C   UNL     1      -4.113  13.942  22.124  0.00  0.00    +0.000 C 
ATOM     18  C   UNL     1      -4.972  15.121  22.573  0.00  0.00    +0.000 C 
ENDBRANCH  13  17
ENDBRANCH   7  13
ENDBRANCH   1  10
BRANCH   4  19
ATOM     19  C   UNL     1       3.163   6.802  18.079  0.00  0.00    +0.000 C 
BRANCH  19  20
ATOM     20  C   UNL     1       3.168   5.404  18.717  0.00  0.00    +0.000 C 
BRANCH  20  21
ATOM     21  N   UNL     1       2.143   4.490  18.208  0.00  0.00    +0.000 NA
ATOM     22  C   UNL     1       2.658   3.426  17.335  0.00  0.00    +0.000 C 
ATOM     23  C   UNL     1       2.276   2.113  17.990  0.00  0.00    +0.000 C 
ATOM     24  C   UNL     1       1.005   2.464  18.729  0.00  0.00    +0.000 C 
ATOM     25  C   UNL     1       1.283   3.874  19.247  0.00  0.00    +0.000 C 
ATOM     26  C   UNL     1       1.850   3.812  20.673  0.00  0.00    +0.000 C 
ENDBRANCH  20  21
ENDBRANCH  19  20
ENDBRANCH   4  19
TORSDOF 6
ENDMDL
MODEL 7
REMARK VINA RESULT:      -7.5      2.345      3.672
REMARK  Name = 
REMARK  9 active torsions:
REMARK  status: ('A' for Active; 'I' for Inactive)
REMARK    1  A    between atoms: C_1  and  C_2
REMARK    2  A    between atoms: C_2  and  C_3
REMARK    3  A    between atoms: C_2  and  S_4
REMARK    4  A    between atoms: S_4  and  C_7
REMARK    5  A    between atoms: C_10  and  C_11
REMARK    6  A    between atoms: C_14  and  C_15
REMARK    7  A    between atoms: C_15  and  C_16
REMARK    8  A    between atoms: C_16  and  N_17
REMARK    9  A    between atoms: C_21  and  C_22
REMARK                            x       y       z     vdW  Elec       q    Type
REMARK                         _______ _______ _______ _____ _____    ______ ____
ROOT
ATOM      1  C   UNL     1       1.704   7.618  20.093  0.00  0.00    +0.000 A 
ATOM      2  C   UNL     1       1.776   6.360  20.716  0.00  0.00    +0.000 A 
ATOM      3  C   UNL     1       2.501   5.303  20.162  0.00  0.00    +0.000 A 
ATOM      4  C   UNL     1       3.164   5.464  18.944  0.00  0.00    +0.000 A 
ATOM      5  C   UNL     1       3.085   6.699  18.293  0.00  0.00    +0.000 A 
ATOM      6  C   UNL     1       2.370   7.761  18.864  0.00  0.00    +0.000 A 
ENDROOT
BRANCH   1  10
ATOM      7  C   UNL     1      -0.440  10.890  21.886  0.00  0.00    +0.000 A 
ATOM      8  C   UNL     1       0.110  11.028  20.616  0.00  0.00    +0.000 A 
ATOM      9  C   UNL     1       0.788   9.954  20.042  0.00  0.00    +0.000 A 
ATOM     10  C   UNL     1       0.974   8.740  20.731  0.00  0.00    +0.000 A 
ATOM     11  C   UNL     1       0.442   8.648  22.033  0.00  0.00    +0.000 A 
ATOM     12  C   UNL     1      -0.266   9.713  22.613  0.00  0.00    +0.000 A 
BRANCH   7  13
ATOM     13  S   UNL     1      -1.340  12.253  22.585  0.00  0.00    +0.000 S 
ATOM     14  O   UNL     1      -0.363  13.185  23.115  0.00  0.00    +0.000 OA
ATOM     15  O   UNL     1      -2.357  11.684  23.452  0.00  0.00    +0.000 OA
BRANCH  13  17
ATOM     16  C   UNL     1      -3.672  13.075  21.455  0.00  0.00    +0.000 C 
ATOM     17  C   UNL     1      -2.169  13.021  21.187  0.00  0.00    +0.000 C 
ATOM     18  C   UNL     1      -1.644  14.421  20.878  0.00  0.00    +0.000 C 
ENDBRANCH  13  17
ENDBRANCH   7  13
ENDBRANCH   1  10
BRANCH   4  19
ATOM     19  C   UNL     1       3.879   4.291  18.312  0.00  0.00    +0.000 C 
BRANCH  19  20
ATOM     20  C   UNL     1       5.398   4.511  18.376  0.00  0.00    +0.000 C 
BRANCH  20  21
ATOM     21  N   UNL     1       6.124   4.167  17.151  0.00  0.00    +0.000 NA
ATOM     22  C   UNL     1       5.261   3.869  15.999  0.00  0.00    +0.000 C 
ATOM     23  C   UNL     1       5.637   4.861  14.916  0.00  0.00    +0.000 C 
ATOM     24  C   UNL     1       7.095   5.138  15.206  0.00  0.00    +0.000 C 
ATOM     25  C   UNL     1       7.148   5.154  16.733  0.00  0.00    +0.000 C 
ATOM     26  C   UNL     1       6.985   6.589  17.253  0.00  0.00    +0.000 C 
ENDBRANCH  20  21
ENDBRANCH  19  20
ENDBRANCH   4  19
TORSDOF 6
ENDMDL
MODEL 8
REMARK VINA RESULT:      -7.5      1.255      1.831
REMARK  Name = 
REMARK  9 active torsions:
REMARK  status: ('A' for Active; 'I' for Inactive)
REMARK    1  A    between atoms: C_1  and  C_2
REMARK    2  A    between atoms: C_2  and  C_3
REMARK    3  A    between atoms: C_2  and  S_4
REMARK    4  A    between atoms: S_4  and  C_7
REMARK    5  A    between atoms: C_10  and  C_11
REMARK    6  A    between atoms: C_14  and  C_15
REMARK    7  A    between atoms: C_15  and  C_16
REMARK    8  A    between atoms: C_16  and  N_17
REMARK    9  A    between atoms: C_21  and  C_22
REMARK                            x       y       z     vdW  Elec       q    Type
REMARK                         _______ _______ _______ _____ _____    ______ ____
ROOT
ATOM      1  C   UNL     1       0.736   9.844  20.145  0.00  0.00    +0.000 A 
ATOM      2  C   UNL     1       1.134   8.655  20.782  0.00  0.00    +0.000 A 
ATOM      3  C   UNL     1       1.889   7.683  20.123  0.00  0.00    +0.000 A 
ATOM      4  C   UNL     1       2.257   7.860  18.788  0.00  0.00    +0.000 A 
ATOM      5  C   UNL     1       1.851   9.022  18.126  0.00  0.00    +0.000 A 
ATOM      6  C   UNL     1       1.107  10.002  18.799  0.00  0.00    +0.000 A 
ENDROOT
BRANCH   1  10
ATOM      7  C   UNL     1      -1.487  12.878  22.235  0.00  0.00    +0.000 A 
ATOM      8  C   UNL     1      -1.112  13.076  20.911  0.00  0.00    +0.000 A 
ATOM      9  C   UNL     1      -0.406  12.077  20.243  0.00  0.00    +0.000 A 
ATOM     10  C   UNL     1      -0.019  10.884  20.884  0.00  0.00    +0.000 A 
ATOM     11  C   UNL     1      -0.377  10.734  22.239  0.00  0.00    +0.000 A 
ATOM     12  C   UNL     1      -1.111  11.721  22.917  0.00  0.00    +0.000 A 
BRANCH   7  13
ATOM     13  S   UNL     1      -2.427  14.141  23.059  0.00  0.00    +0.000 S 
ATOM     14  O   UNL     1      -2.509  15.272  22.154  0.00  0.00    +0.000 OA
ATOM     15  O   UNL     1      -1.846  14.300  24.381  0.00  0.00    +0.000 OA
BRANCH  13  17
ATOM     16  C   UNL     1      -4.473  12.725  21.966  0.00  0.00    +0.000 C 
ATOM     17  C   UNL     1      -4.069  13.439  23.255  0.00  0.00    +0.000 C 
ATOM     18  C   UNL     1      -4.170  12.478  24.437  0.00  0.00    +0.000 C 
ENDBRANCH  13  17
ENDBRANCH   7  13
ENDBRANCH   1  10
BRANCH   4  19
ATOM     19  C   UNL     1       3.006   6.766  18.059  0.00  0.00    +0.000 C 
BRANCH  19  20
ATOM     20  C   UNL     1       2.996   5.480  18.901  0.00  0.00    +0.000 C 
BRANCH  20  21
ATOM     21  N   UNL     1       2.398   4.316  18.241  0.00  0.00    +0.000 NA
ATOM     22  C   UNL     1       3.347   3.233  17.946  0.00  0.00    +0.000 C 
ATOM     23  C   UNL     1       2.832   2.005  18.671  0.00  0.00    +0.000 C 
ATOM     24  C   UNL     1       1.338   2.234  18.701  0.00  0.00    +0.000 C 
ATOM     25  C   UNL     1       1.223   3.740  18.936  0.00  0.00    +0.000 C 
ATOM     26  C   UNL     1       1.089   4.032  20.438  0.00  0.00    +0.000 C 
ENDBRANCH  20  21
ENDBRANCH  19  20
ENDBRANCH   4  19
TORSDOF 6
ENDMDL
MODEL 9
REMARK VINA RESULT:      -7.5      1.256      2.141
REMARK  Name = 
REMARK  9 active torsions:
REMARK  status: ('A' for Active; 'I' for Inactive)
REMARK    1  A    between atoms: C_1  and  C_2
REMARK    2  A    between atoms: C_2  and  C_3
REMARK    3  A    between atoms: C_2  and  S_4
REMARK    4  A    between atoms: S_4  and  C_7
REMARK    5  A    between atoms: C_10  and  C_11
REMARK    6  A    between atoms: C_14  and  C_15
REMARK    7  A    between atoms: C_15  and  C_16
REMARK    8  A    between atoms: C_16  and  N_17
REMARK    9  A    between atoms: C_21  and  C_22
REMARK                            x       y       z     vdW  Elec       q    Type
REMARK                         _______ _______ _______ _____ _____    ______ ____
ROOT
ATOM      1  C   UNL     1       0.859   9.456  19.739  0.00  0.00    +0.000 A 
ATOM      2  C   UNL     1       1.366   8.362  20.464  0.00  0.00    +0.000 A 
ATOM      3  C   UNL     1       2.223   7.425  19.882  0.00  0.00    +0.000 A 
ATOM      4  C   UNL     1       2.587   7.540  18.540  0.00  0.00    +0.000 A 
ATOM      5  C   UNL     1       2.075   8.604  17.791  0.00  0.00    +0.000 A 
ATOM      6  C   UNL     1       1.229   9.551  18.386  0.00  0.00    +0.000 A 
ENDROOT
BRANCH   1  10
ATOM      7  C   UNL     1      -1.606  12.387  21.698  0.00  0.00    +0.000 A 
ATOM      8  C   UNL     1      -1.010  11.371  22.437  0.00  0.00    +0.000 A 
ATOM      9  C   UNL     1      -0.201  10.438  21.790  0.00  0.00    +0.000 A 
ATOM     10  C   UNL     1      -0.004  10.466  20.396  0.00  0.00    +0.000 A 
ATOM     11  C   UNL     1      -0.658  11.483  19.671  0.00  0.00    +0.000 A 
ATOM     12  C   UNL     1      -1.455  12.444  20.313  0.00  0.00    +0.000 A 
BRANCH   7  13
ATOM     13  S   UNL     1      -2.597  13.595  22.545  0.00  0.00    +0.000 S 
ATOM     14  O   UNL     1      -2.784  14.709  21.635  0.00  0.00    +0.000 OA
ATOM     15  O   UNL     1      -1.984  13.804  23.845  0.00  0.00    +0.000 OA
BRANCH  13  17
ATOM     16  C   UNL     1      -4.951  13.520  23.903  0.00  0.00    +0.000 C 
ATOM     17  C   UNL     1      -4.183  12.789  22.802  0.00  0.00    +0.000 C 
ATOM     18  C   UNL     1      -5.030  12.720  21.534  0.00  0.00    +0.000 C 
ENDBRANCH  13  17
ENDBRANCH   7  13
ENDBRANCH   1  10
BRANCH   4  19
ATOM     19  C   UNL     1       3.450   6.477  17.898  0.00  0.00    +0.000 C 
BRANCH  19  20
ATOM     20  C   UNL     1       3.304   5.154  18.667  0.00  0.00    +0.000 C 
BRANCH  20  21
ATOM     21  N   UNL     1       2.265   4.256  18.157  0.00  0.00    +0.000 NA
ATOM     22  C   UNL     1       2.779   3.049  17.494  0.00  0.00    +0.000 C 
ATOM     23  C   UNL     1       2.214   1.868  18.258  0.00  0.00    +0.000 C 
ATOM     24  C   UNL     1       0.904   2.406  18.788  0.00  0.00    +0.000 C 
ATOM     25  C   UNL     1       1.246   3.850  19.155  0.00  0.00    +0.000 C 
ATOM     26  C   UNL     1       1.645   3.941  20.635  0.00  0.00    +0.000 C 
ENDBRANCH  20  21
ENDBRANCH  19  20
ENDBRANCH   4  19
TORSDOF 6
ENDMDL
