MODEL 1
REMARK VINA RESULT:      -8.2      0.000      0.000
REMARK  Name = 
REMARK  9 active torsions:
REMARK  status: ('A' for Active; 'I' for Inactive)
REMARK    1  A    between atoms: C_1  and  C_2
REMARK    2  A    between atoms: C_7  and  C_8
REMARK    3  A    between atoms: C_8  and  N_9
REMARK    4  A    between atoms: C_11  and  C_12
REMARK    5  A    between atoms: N_14  and  C_15
REMARK    6  A    between atoms: C_15  and  C_16
REMARK    7  A    between atoms: N_19  and  C_20
REMARK    8  A    between atoms: C_20  and  C_21
REMARK    9  A    between atoms: C_21  and  C_22
REMARK                            x       y       z     vdW  Elec       q    Type
REMARK                         _______ _______ _______ _____ _____    ______ ____
ROOT
ATOM      1  C   UNL     1       6.935   6.229  16.740  0.00  0.00    +0.000 C 
ATOM      2  O   UNL     1       7.427   5.698  15.749  0.00  0.00    +0.000 OA
ATOM      3  N   UNL     1       5.681   5.909  17.221  0.00  0.00    +0.000 N 
ATOM      4  H   UNL     1       5.325   6.458  17.996  0.00  0.00    +0.000 HD
ENDROOT
BRANCH   1   7
ATOM      5  N   UNL     1       8.310   9.190  18.243  0.00  0.00    +0.000 N 
ATOM      6  C   UNL     1       7.665   8.622  17.182  0.00  0.00    +0.000 A 
ATOM      7  C   UNL     1       7.619   7.276  17.488  0.00  0.00    +0.000 A 
ATOM      8  N   UNL     1       8.287   7.070  18.673  0.00  0.00    +0.000 NA
ATOM      9  N   UNL     1       8.698   8.249  19.129  0.00  0.00    +0.000 NA
BRANCH   5  10
ATOM     10  C   UNL     1       8.307  10.598  18.615  0.00  0.00    +0.000 C 
BRANCH  10  17
ATOM     11  C   UNL     1       9.260  11.302  21.442  0.00  0.00    +0.000 C 
ATOM     12  C   UNL     1      10.126  11.460  20.222  0.00  0.00    +0.000 A 
ATOM     13  C   UNL     1      11.433  11.951  20.402  0.00  0.00    +0.000 A 
ATOM     14  C   UNL     1      12.298  12.111  19.321  0.00  0.00    +0.000 A 
ATOM     15  C   UNL     1      11.867  11.801  18.039  0.00  0.00    +0.000 A 
ATOM     16  C   UNL     1      10.567  11.337  17.837  0.00  0.00    +0.000 A 
ATOM     17  C   UNL     1       9.678  11.157  18.916  0.00  0.00    +0.000 A 
ENDBRANCH  10  17
ENDBRANCH   5  10
ENDBRANCH   1   7
BRANCH   3  18
ATOM     18  C   UNL     1       4.845   4.940  16.544  0.00  0.00    +0.000 C 
BRANCH  18  19
ATOM     19  C   UNL     1       4.541   3.689  17.387  0.00  0.00    +0.000 C 
ATOM     20  C   UNL     1       3.084   3.232  17.277  0.00  0.00    +0.000 C 
ATOM     21  C   UNL     1       2.121   4.193  17.970  0.00  0.00    +0.000 C 
ATOM     22  N   UNL     1       2.465   4.372  19.390  0.00  0.00    +0.000 NA
ATOM     23  C   UNL     1       3.844   4.863  19.547  0.00  0.00    +0.000 C 
ATOM     24  C   UNL     1       4.859   3.931  18.872  0.00  0.00    +0.000 C 
BRANCH  22  25
ATOM     25  C   UNL     1       1.516   5.287  20.067  0.00  0.00    +0.000 C 
BRANCH  25  26
ATOM     26  C   UNL     1       2.195   6.546  20.642  0.00  0.00    +0.000 C 
BRANCH  26  27
ATOM     27  C   UNL     1       1.836   7.822  19.918  0.00  0.00    +0.000 A 
ATOM     28  C   UNL     1       2.217   8.019  18.584  0.00  0.00    +0.000 A 
ATOM     29  C   UNL     1       1.842   9.176  17.901  0.00  0.00    +0.000 A 
ATOM     30  C   UNL     1       1.070  10.143  18.541  0.00  0.00    +0.000 A 
ATOM     31  C   UNL     1       0.671   9.951  19.862  0.00  0.00    +0.000 A 
ATOM     32  C   UNL     1       1.051   8.797  20.549  0.00  0.00    +0.000 A 
ENDBRANCH  26  27
ENDBRANCH  25  26
ENDBRANCH  22  25
ENDBRANCH  18  19
ENDBRANCH   3  18
TORSDOF 8
ENDMDL
MODEL 2
REMARK VINA RESULT:      -8.0      3.975      7.850
REMARK  Name = 
REMARK  9 active torsions:
REMARK  status: ('A' for Active; 'I' for Inactive)
REMARK    1  A    between atoms: C_1  and  C_2
REMARK    2  A    between atoms: C_7  and  C_8
REMARK    3  A    between atoms: C_8  and  N_9
REMARK    4  A    between atoms: C_11  and  C_12
REMARK    5  A    between atoms: N_14  and  C_15
REMARK    6  A    between atoms: C_15  and  C_16
REMARK    7  A    between atoms: N_19  and  C_20
REMARK    8  A    between atoms: C_20  and  C_21
REMARK    9  A    between atoms: C_21  and  C_22
REMARK                            x       y       z     vdW  Elec       q    Type
REMARK                         _______ _______ _______ _____ _____    ______ ____
ROOT
ATOM      1  C   UNL     1       2.797   6.391  19.861  0.00  0.00    +0.000 C 
ATOM      2  O   UNL     1       3.968   6.037  19.759  0.00  0.00    +0.000 OA
ATOM      3  N   UNL     1       1.871   5.717  20.632  0.00  0.00    +0.000 N 
ATOM      4  H   UNL     1       0.909   6.035  20.590  0.00  0.00    +0.000 HD
ENDROOT
BRANCH   1   7
ATOM      5  N   UNL     1       1.272   9.404  18.631  0.00  0.00    +0.000 N 
ATOM      6  C   UNL     1       1.348   8.464  19.617  0.00  0.00    +0.000 A 
ATOM      7  C   UNL     1       2.262   7.543  19.146  0.00  0.00    +0.000 A 
ATOM      8  N   UNL     1       2.652   7.917  17.880  0.00  0.00    +0.000 NA
ATOM      9  N   UNL     1       2.046   9.061  17.579  0.00  0.00    +0.000 NA
BRANCH   5  10
ATOM     10  C   UNL     1       0.753  10.759  18.754  0.00  0.00    +0.000 C 
BRANCH  10  17
ATOM     11  C   UNL     1      -1.037  12.728  20.276  0.00  0.00    +0.000 C 
ATOM     12  C   UNL     1      -1.561  11.790  19.222  0.00  0.00    +0.000 A 
ATOM     13  C   UNL     1      -2.937  11.833  18.929  0.00  0.00    +0.000 A 
ATOM     14  C   UNL     1      -3.493  11.005  17.955  0.00  0.00    +0.000 A 
ATOM     15  C   UNL     1      -2.686  10.107  17.270  0.00  0.00    +0.000 A 
ATOM     16  C   UNL     1      -1.325  10.032  17.564  0.00  0.00    +0.000 A 
ATOM     17  C   UNL     1      -0.739  10.867  18.537  0.00  0.00    +0.000 A 
ENDBRANCH  10  17
ENDBRANCH   5  10
ENDBRANCH   1   7
BRANCH   3  18
ATOM     18  C   UNL     1       2.230   4.508  21.345  0.00  0.00    +0.000 C 
BRANCH  18  19
ATOM     19  C   UNL     1       1.635   3.229  20.731  0.00  0.00    +0.000 C 
ATOM     20  C   UNL     1       2.702   2.226  20.287  0.00  0.00    +0.000 C 
ATOM     21  C   UNL     1       3.477   2.707  19.062  0.00  0.00    +0.000 C 
ATOM     22  N   UNL     1       2.579   2.989  17.931  0.00  0.00    +0.000 NA
ATOM     23  C   UNL     1       1.563   3.992  18.293  0.00  0.00    +0.000 C 
ATOM     24  C   UNL     1       0.748   3.557  19.518  0.00  0.00    +0.000 C 
BRANCH  22  25
ATOM     25  C   UNL     1       3.334   3.435  16.737  0.00  0.00    +0.000 C 
BRANCH  25  26
ATOM     26  C   UNL     1       4.859   3.253  16.880  0.00  0.00    +0.000 C 
BRANCH  26  27
ATOM     27  C   UNL     1       5.620   4.549  17.032  0.00  0.00    +0.000 A 
ATOM     28  C   UNL     1       5.134   5.735  16.466  0.00  0.00    +0.000 A 
ATOM     29  C   UNL     1       5.811   6.940  16.650  0.00  0.00    +0.000 A 
ATOM     30  C   UNL     1       6.976   6.975  17.414  0.00  0.00    +0.000 A 
ATOM     31  C   UNL     1       7.460   5.806  17.995  0.00  0.00    +0.000 A 
ATOM     32  C   UNL     1       6.787   4.598  17.807  0.00  0.00    +0.000 A 
ENDBRANCH  26  27
ENDBRANCH  25  26
ENDBRANCH  22  25
ENDBRANCH  18  19
ENDBRANCH   3  18
TORSDOF 8
ENDMDL
MODEL 3
REMARK VINA RESULT:      -7.9      4.051      8.774
REMARK  Name = 
REMARK  9 active torsions:
REMARK  status: ('A' for Active; 'I' for Inactive)
REMARK    1  A    between atoms: C_1  and  C_2
REMARK    2  A    between atoms: C_7  and  C_8
REMARK    3  A    between atoms: C_8  and  N_9
REMARK    4  A    between atoms: C_11  and  C_12
REMARK    5  A    between atoms: N_14  and  C_15
REMARK    6  A    between atoms: C_15  and  C_16
REMARK    7  A    between atoms: N_19  and  C_20
REMARK    8  A    between atoms: C_20  and  C_21
REMARK    9  A    between atoms: C_21  and  C_22
REMARK                            x       y       z     vdW  Elec       q    Type
REMARK                         _______ _______ _______ _____ _____    ______ ____
ROOT
ATOM      1  C   UNL     1       1.305   8.766  20.420  0.00  0.00    +0.000 C 
ATOM      2  O   UNL     1       1.389   9.167  19.263  0.00  0.00    +0.000 OA
ATOM      3  N   UNL     1       1.782   7.534  20.826  0.00  0.00    +0.000 N 
ATOM      4  H   UNL     1       1.595   7.254  21.783  0.00  0.00    +0.000 HD
ENDROOT
BRANCH   1   7
ATOM      5  N   UNL     1      -0.662  10.847  22.591  0.00  0.00    +0.000 N 
ATOM      6  C   UNL     1      -0.291  10.527  21.317  0.00  0.00    +0.000 A 
ATOM      7  C   UNL     1       0.661   9.539  21.474  0.00  0.00    +0.000 A 
ATOM      8  N   UNL     1       0.879   9.346  22.819  0.00  0.00    +0.000 NA
ATOM      9  N   UNL     1       0.058  10.145  23.492  0.00  0.00    +0.000 NA
BRANCH   5  10
ATOM     10  C   UNL     1      -1.872  11.548  22.998  0.00  0.00    +0.000 C 
BRANCH  10  17
ATOM     11  C   UNL     1      -3.276  12.689  20.524  0.00  0.00    +0.000 C 
ATOM     12  C   UNL     1      -2.543  13.548  21.519  0.00  0.00    +0.000 A 
ATOM     13  C   UNL     1      -2.513  14.937  21.294  0.00  0.00    +0.000 A 
ATOM     14  C   UNL     1      -1.866  15.797  22.179  0.00  0.00    +0.000 A 
ATOM     15  C   UNL     1      -1.222  15.282  23.296  0.00  0.00    +0.000 A 
ATOM     16  C   UNL     1      -1.220  13.906  23.523  0.00  0.00    +0.000 A 
ATOM     17  C   UNL     1      -1.877  13.019  22.648  0.00  0.00    +0.000 A 
ENDBRANCH  10  17
ENDBRANCH   5  10
ENDBRANCH   1   7
BRANCH   3  18
ATOM     18  C   UNL     1       2.382   6.616  19.880  0.00  0.00    +0.000 C 
BRANCH  18  19
ATOM     19  C   UNL     1       1.773   5.204  19.919  0.00  0.00    +0.000 C 
ATOM     20  C   UNL     1       2.724   4.157  20.506  0.00  0.00    +0.000 C 
ATOM     21  C   UNL     1       3.898   3.855  19.577  0.00  0.00    +0.000 C 
ATOM     22  N   UNL     1       3.438   3.402  18.255  0.00  0.00    +0.000 NA
ATOM     23  C   UNL     1       2.560   4.402  17.623  0.00  0.00    +0.000 C 
ATOM     24  C   UNL     1       1.356   4.741  18.513  0.00  0.00    +0.000 C 
BRANCH  22  25
ATOM     25  C   UNL     1       4.578   3.089  17.362  0.00  0.00    +0.000 C 
BRANCH  25  26
ATOM     26  C   UNL     1       4.976   4.266  16.450  0.00  0.00    +0.000 C 
BRANCH  26  27
ATOM     27  C   UNL     1       6.007   5.190  17.055  0.00  0.00    +0.000 A 
ATOM     28  C   UNL     1       5.981   6.565  16.786  0.00  0.00    +0.000 A 
ATOM     29  C   UNL     1       6.903   7.423  17.385  0.00  0.00    +0.000 A 
ATOM     30  C   UNL     1       7.853   6.918  18.270  0.00  0.00    +0.000 A 
ATOM     31  C   UNL     1       7.879   5.555  18.557  0.00  0.00    +0.000 A 
ATOM     32  C   UNL     1       6.961   4.694  17.954  0.00  0.00    +0.000 A 
ENDBRANCH  26  27
ENDBRANCH  25  26
ENDBRANCH  22  25
ENDBRANCH  18  19
ENDBRANCH   3  18
TORSDOF 8
ENDMDL
MODEL 4
REMARK VINA RESULT:      -7.7      4.205      9.188
REMARK  Name = 
REMARK  9 active torsions:
REMARK  status: ('A' for Active; 'I' for Inactive)
REMARK    1  A    between atoms: C_1  and  C_2
REMARK    2  A    between atoms: C_7  and  C_8
REMARK    3  A    between atoms: C_8  and  N_9
REMARK    4  A    between atoms: C_11  and  C_12
REMARK    5  A    between atoms: N_14  and  C_15
REMARK    6  A    between atoms: C_15  and  C_16
REMARK    7  A    between atoms: N_19  and  C_20
REMARK    8  A    between atoms: C_20  and  C_21
REMARK    9  A    between atoms: C_21  and  C_22
REMARK                            x       y       z     vdW  Elec       q    Type
REMARK                         _______ _______ _______ _____ _____    ______ ____
ROOT
ATOM      1  C   UNL     1       1.227   8.667  20.471  0.00  0.00    +0.000 C 
ATOM      2  O   UNL     1       1.397   8.955  19.290  0.00  0.00    +0.000 OA
ATOM      3  N   UNL     1       1.658   7.477  21.024  0.00  0.00    +0.000 N 
ATOM      4  H   UNL     1       1.401   7.291  21.988  0.00  0.00    +0.000 HD
ENDROOT
BRANCH   1   7
ATOM      5  N   UNL     1      -0.321  11.269  22.408  0.00  0.00    +0.000 N 
ATOM      6  C   UNL     1       0.623  10.916  21.486  0.00  0.00    +0.000 A 
ATOM      7  C   UNL     1       0.521   9.542  21.397  0.00  0.00    +0.000 A 
ATOM      8  N   UNL     1      -0.419   9.110  22.305  0.00  0.00    +0.000 NA
ATOM      9  N   UNL     1      -0.933  10.176  22.911  0.00  0.00    +0.000 NA
BRANCH   5  10
ATOM     10  C   UNL     1      -0.890  12.593  22.612  0.00  0.00    +0.000 C 
BRANCH  10  17
ATOM     11  C   UNL     1      -1.965  12.663  19.741  0.00  0.00    +0.000 C 
ATOM     12  C   UNL     1      -2.858  12.697  20.952  0.00  0.00    +0.000 A 
ATOM     13  C   UNL     1      -4.248  12.759  20.743  0.00  0.00    +0.000 A 
ATOM     14  C   UNL     1      -5.139  12.779  21.814  0.00  0.00    +0.000 A 
ATOM     15  C   UNL     1      -4.655  12.756  23.115  0.00  0.00    +0.000 A 
ATOM     16  C   UNL     1      -3.280  12.720  23.343  0.00  0.00    +0.000 A 
ATOM     17  C   UNL     1      -2.361  12.688  22.275  0.00  0.00    +0.000 A 
ENDBRANCH  10  17
ENDBRANCH   5  10
ENDBRANCH   1   7
BRANCH   3  18
ATOM     18  C   UNL     1       2.311   6.469  20.215  0.00  0.00    +0.000 C 
BRANCH  18  19
ATOM     19  C   UNL     1       1.659   5.079  20.315  0.00  0.00    +0.000 C 
ATOM     20  C   UNL     1       2.613   4.006  20.845  0.00  0.00    +0.000 C 
ATOM     21  C   UNL     1       3.706   3.654  19.839  0.00  0.00    +0.000 C 
ATOM     22  N   UNL     1       3.138   3.204  18.558  0.00  0.00    +0.000 NA
ATOM     23  C   UNL     1       2.250   4.227  17.979  0.00  0.00    +0.000 C 
ATOM     24  C   UNL     1       1.126   4.617  18.948  0.00  0.00    +0.000 C 
BRANCH  22  25
ATOM     25  C   UNL     1       4.199   2.842  17.590  0.00  0.00    +0.000 C 
BRANCH  25  26
ATOM     26  C   UNL     1       4.534   3.979  16.604  0.00  0.00    +0.000 C 
BRANCH  26  27
ATOM     27  C   UNL     1       5.565   4.955  17.119  0.00  0.00    +0.000 A 
ATOM     28  C   UNL     1       6.704   4.500  17.796  0.00  0.00    +0.000 A 
ATOM     29  C   UNL     1       7.681   5.399  18.226  0.00  0.00    +0.000 A 
ATOM     30  C   UNL     1       7.535   6.761  17.972  0.00  0.00    +0.000 A 
ATOM     31  C   UNL     1       6.414   7.223  17.285  0.00  0.00    +0.000 A 
ATOM     32  C   UNL     1       5.434   6.326  16.859  0.00  0.00    +0.000 A 
ENDBRANCH  26  27
ENDBRANCH  25  26
ENDBRANCH  22  25
ENDBRANCH  18  19
ENDBRANCH   3  18
TORSDOF 8
ENDMDL
MODEL 5
REMARK VINA RESULT:      -7.7      2.687      7.410
REMARK  Name = 
REMARK  9 active torsions:
REMARK  status: ('A' for Active; 'I' for Inactive)
REMARK    1  A    between atoms: C_1  and  C_2
REMARK    2  A    between atoms: C_7  and  C_8
REMARK    3  A    between atoms: C_8  and  N_9
REMARK    4  A    between atoms: C_11  and  C_12
REMARK    5  A    between atoms: N_14  and  C_15
REMARK    6  A    between atoms: C_15  and  C_16
REMARK    7  A    between atoms: N_19  and  C_20
REMARK    8  A    between atoms: C_20  and  C_21
REMARK    9  A    between atoms: C_21  and  C_22
REMARK                            x       y       z     vdW  Elec       q    Type
REMARK                         _______ _______ _______ _____ _____    ______ ____
ROOT
ATOM      1  C   UNL     1       2.612   6.162  19.265  0.00  0.00    +0.000 C 
ATOM      2  O   UNL     1       2.029   5.123  19.559  0.00  0.00    +0.000 OA
ATOM      3  N   UNL     1       3.853   6.182  18.658  0.00  0.00    +0.000 N 
ATOM      4  H   UNL     1       4.294   7.086  18.528  0.00  0.00    +0.000 HD
ENDROOT
BRANCH   1   7
ATOM      5  N   UNL     1       1.251   9.485  19.404  0.00  0.00    +0.000 N 
ATOM      6  C   UNL     1       1.920   8.537  18.686  0.00  0.00    +0.000 A 
ATOM      7  C   UNL     1       2.065   7.479  19.561  0.00  0.00    +0.000 A 
ATOM      8  N   UNL     1       1.546   7.844  20.783  0.00  0.00    +0.000 NA
ATOM      9  N   UNL     1       1.044   9.070  20.672  0.00  0.00    +0.000 NA
BRANCH   5  10
ATOM     10  C   UNL     1       0.525  10.631  18.875  0.00  0.00    +0.000 C 
BRANCH  10  17
ATOM     11  C   UNL     1       0.011  12.491  21.257  0.00  0.00    +0.000 C 
ATOM     12  C   UNL     1       1.015  12.798  20.179  0.00  0.00    +0.000 A 
ATOM     13  C   UNL     1       1.748  13.995  20.284  0.00  0.00    +0.000 A 
ATOM     14  C   UNL     1       2.705  14.341  19.332  0.00  0.00    +0.000 A 
ATOM     15  C   UNL     1       2.935  13.505  18.248  0.00  0.00    +0.000 A 
ATOM     16  C   UNL     1       2.201  12.326  18.114  0.00  0.00    +0.000 A 
ATOM     17  C   UNL     1       1.236  11.951  19.070  0.00  0.00    +0.000 A 
ENDBRANCH  10  17
ENDBRANCH   5  10
ENDBRANCH   1   7
BRANCH   3  18
ATOM     18  C   UNL     1       4.563   4.954  18.366  0.00  0.00    +0.000 C 
BRANCH  18  19
ATOM     19  C   UNL     1       5.463   5.041  17.121  0.00  0.00    +0.000 C 
ATOM     20  C   UNL     1       6.913   4.637  17.401  0.00  0.00    +0.000 C 
ATOM     21  C   UNL     1       7.644   5.664  18.262  0.00  0.00    +0.000 C 
ATOM     22  N   UNL     1       7.626   6.999  17.645  0.00  0.00    +0.000 NA
ATOM     23  C   UNL     1       6.247   7.457  17.403  0.00  0.00    +0.000 C 
ATOM     24  C   UNL     1       5.463   6.462  16.535  0.00  0.00    +0.000 C 
BRANCH  22  25
ATOM     25  C   UNL     1       8.355   7.990  18.471  0.00  0.00    +0.000 C 
BRANCH  25  26
ATOM     26  C   UNL     1       8.277   9.423  17.908  0.00  0.00    +0.000 C 
BRANCH  26  27
ATOM     27  C   UNL     1       9.187  10.407  18.607  0.00  0.00    +0.000 A 
ATOM     28  C   UNL     1       9.217  10.484  20.005  0.00  0.00    +0.000 A 
ATOM     29  C   UNL     1      10.094  11.357  20.649  0.00  0.00    +0.000 A 
ATOM     30  C   UNL     1      10.959  12.153  19.902  0.00  0.00    +0.000 A 
ATOM     31  C   UNL     1      10.949  12.073  18.511  0.00  0.00    +0.000 A 
ATOM     32  C   UNL     1      10.069  11.205  17.865  0.00  0.00    +0.000 A 
ENDBRANCH  26  27
ENDBRANCH  25  26
ENDBRANCH  22  25
ENDBRANCH  18  19
ENDBRANCH   3  18
TORSDOF 8
ENDMDL
MODEL 6
REMARK VINA RESULT:      -7.6      1.053      1.769
REMARK  Name = 
REMARK  9 active torsions:
REMARK  status: ('A' for Active; 'I' for Inactive)
REMARK    1  A    between atoms: C_1  and  C_2
REMARK    2  A    between atoms: C_7  and  C_8
REMARK    3  A    between atoms: C_8  and  N_9
REMARK    4  A    between atoms: C_11  and  C_12
REMARK    5  A    between atoms: N_14  and  C_15
REMARK    6  A    between atoms: C_15  and  C_16
REMARK    7  A    between atoms: N_19  and  C_20
REMARK    8  A    between atoms: C_20  and  C_21
REMARK    9  A    between atoms: C_21  and  C_22
REMARK                            x       y       z     vdW  Elec       q    Type
REMARK                         _______ _______ _______ _____ _____    ______ ____
ROOT
ATOM      1  C   UNL     1       6.914   6.442  16.796  0.00  0.00    +0.000 C 
ATOM      2  O   UNL     1       7.326   6.030  15.716  0.00  0.00    +0.000 OA
ATOM      3  N   UNL     1       5.685   6.086  17.318  0.00  0.00    +0.000 N 
ATOM      4  H   UNL     1       5.394   6.541  18.176  0.00  0.00    +0.000 HD
ENDROOT
BRANCH   1   7
ATOM      5  N   UNL     1       8.471   9.172  18.539  0.00  0.00    +0.000 N 
ATOM      6  C   UNL     1       7.759   8.746  17.455  0.00  0.00    +0.000 A 
ATOM      7  C   UNL     1       7.670   7.377  17.618  0.00  0.00    +0.000 A 
ATOM      8  N   UNL     1       8.378   7.021  18.744  0.00  0.00    +0.000 NA
ATOM      9  N   UNL     1       8.856   8.127  19.302  0.00  0.00    +0.000 NA
BRANCH   5  10
ATOM     10  C   UNL     1       8.540  10.531  19.058  0.00  0.00    +0.000 C 
BRANCH  10  17
ATOM     11  C   UNL     1       7.946  12.911  17.220  0.00  0.00    +0.000 C 
ATOM     12  C   UNL     1       9.342  12.489  17.590  0.00  0.00    +0.000 A 
ATOM     13  C   UNL     1      10.415  13.234  17.064  0.00  0.00    +0.000 A 
ATOM     14  C   UNL     1      11.735  12.913  17.373  0.00  0.00    +0.000 A 
ATOM     15  C   UNL     1      12.008  11.831  18.198  0.00  0.00    +0.000 A 
ATOM     16  C   UNL     1      10.959  11.066  18.709  0.00  0.00    +0.000 A 
ATOM     17  C   UNL     1       9.616  11.379  18.419  0.00  0.00    +0.000 A 
ENDBRANCH  10  17
ENDBRANCH   5  10
ENDBRANCH   1   7
BRANCH   3  18
ATOM     18  C   UNL     1       4.783   5.223  16.585  0.00  0.00    +0.000 C 
BRANCH  18  19
ATOM     19  C   UNL     1       4.285   4.016  17.400  0.00  0.00    +0.000 C 
ATOM     20  C   UNL     1       2.761   3.871  17.383  0.00  0.00    +0.000 C 
ATOM     21  C   UNL     1       2.065   4.969  18.185  0.00  0.00    +0.000 C 
ATOM     22  N   UNL     1       2.532   4.998  19.580  0.00  0.00    +0.000 NA
ATOM     23  C   UNL     1       3.991   5.190  19.651  0.00  0.00    +0.000 C 
ATOM     24  C   UNL     1       4.744   4.108  18.864  0.00  0.00    +0.000 C 
BRANCH  22  25
ATOM     25  C   UNL     1       1.840   6.049  20.362  0.00  0.00    +0.000 C 
BRANCH  25  26
ATOM     26  C   UNL     1       2.106   7.472  19.833  0.00  0.00    +0.000 C 
BRANCH  26  27
ATOM     27  C   UNL     1       1.288   8.543  20.515  0.00  0.00    +0.000 A 
ATOM     28  C   UNL     1       0.640   9.534  19.766  0.00  0.00    +0.000 A 
ATOM     29  C   UNL     1      -0.156  10.493  20.393  0.00  0.00    +0.000 A 
ATOM     30  C   UNL     1      -0.324  10.462  21.776  0.00  0.00    +0.000 A 
ATOM     31  C   UNL     1       0.302   9.472  22.530  0.00  0.00    +0.000 A 
ATOM     32  C   UNL     1       1.104   8.516  21.905  0.00  0.00    +0.000 A 
ENDBRANCH  26  27
ENDBRANCH  25  26
ENDBRANCH  22  25
ENDBRANCH  18  19
ENDBRANCH   3  18
TORSDOF 8
ENDMDL
MODEL 7
REMARK VINA RESULT:      -7.6      5.175      8.227
REMARK  Name = 
REMARK  9 active torsions:
REMARK  status: ('A' for Active; 'I' for Inactive)
REMARK    1  A    between atoms: C_1  and  C_2
REMARK    2  A    between atoms: C_7  and  C_8
REMARK    3  A    between atoms: C_8  and  N_9
REMARK    4  A    between atoms: C_11  and  C_12
REMARK    5  A    between atoms: N_14  and  C_15
REMARK    6  A    between atoms: C_15  and  C_16
REMARK    7  A    between atoms: N_19  and  C_20
REMARK    8  A    between atoms: C_20  and  C_21
REMARK    9  A    between atoms: C_21  and  C_22
REMARK                            x       y       z     vdW  Elec       q    Type
REMARK                         _______ _______ _______ _____ _____    ______ ____
ROOT
ATOM      1  C   UNL     1       2.642   6.426  19.552  0.00  0.00    +0.000 C 
ATOM      2  O   UNL     1       3.825   6.157  19.742  0.00  0.00    +0.000 OA
ATOM      3  N   UNL     1       1.617   5.540  19.821  0.00  0.00    +0.000 N 
ATOM      4  H   UNL     1       0.679   5.819  19.554  0.00  0.00    +0.000 HD
ENDROOT
BRANCH   1   7
ATOM      5  N   UNL     1       1.410   9.698  18.720  0.00  0.00    +0.000 N 
ATOM      6  C   UNL     1       1.424   8.655  19.601  0.00  0.00    +0.000 A 
ATOM      7  C   UNL     1       2.208   7.698  18.988  0.00  0.00    +0.000 A 
ATOM      8  N   UNL     1       2.580   8.161  17.746  0.00  0.00    +0.000 NA
ATOM      9  N   UNL     1       2.093   9.388  17.597  0.00  0.00    +0.000 NA
BRANCH   5  10
ATOM     10  C   UNL     1       1.052  11.079  19.008  0.00  0.00    +0.000 C 
BRANCH  10  17
ATOM     11  C   UNL     1      -0.339  12.747  21.171  0.00  0.00    +0.000 C 
ATOM     12  C   UNL     1      -1.076  12.123  20.018  0.00  0.00    +0.000 A 
ATOM     13  C   UNL     1      -2.466  12.325  19.938  0.00  0.00    +0.000 A 
ATOM     14  C   UNL     1      -3.215  11.791  18.891  0.00  0.00    +0.000 A 
ATOM     15  C   UNL     1      -2.589  11.028  17.914  0.00  0.00    +0.000 A 
ATOM     16  C   UNL     1      -1.216  10.795  17.990  0.00  0.00    +0.000 A 
ATOM     17  C   UNL     1      -0.438  11.335  19.033  0.00  0.00    +0.000 A 
ENDBRANCH  10  17
ENDBRANCH   5  10
ENDBRANCH   1   7
BRANCH   3  18
ATOM     18  C   UNL     1       1.890   4.207  20.315  0.00  0.00    +0.000 C 
BRANCH  18  19
ATOM     19  C   UNL     1       1.631   3.099  19.278  0.00  0.00    +0.000 C 
ATOM     20  C   UNL     1       2.708   2.011  19.282  0.00  0.00    +0.000 C 
ATOM     21  C   UNL     1       4.040   2.512  18.727  0.00  0.00    +0.000 C 
ATOM     22  N   UNL     1       3.892   3.040  17.362  0.00  0.00    +0.000 NA
ATOM     23  C   UNL     1       2.901   4.129  17.314  0.00  0.00    +0.000 C 
ATOM     24  C   UNL     1       1.538   3.679  17.858  0.00  0.00    +0.000 C 
BRANCH  22  25
ATOM     25  C   UNL     1       5.188   3.505  16.815  0.00  0.00    +0.000 C 
BRANCH  25  26
ATOM     26  C   UNL     1       5.040   4.653  15.797  0.00  0.00    +0.000 C 
BRANCH  26  27
ATOM     27  C   UNL     1       5.783   4.425  14.502  0.00  0.00    +0.000 A 
ATOM     28  C   UNL     1       5.246   3.600  13.505  0.00  0.00    +0.000 A 
ATOM     29  C   UNL     1       5.909   3.430  12.290  0.00  0.00    +0.000 A 
ATOM     30  C   UNL     1       7.111   4.094  12.053  0.00  0.00    +0.000 A 
ATOM     31  C   UNL     1       7.647   4.929  13.031  0.00  0.00    +0.000 A 
ATOM     32  C   UNL     1       6.988   5.095  14.250  0.00  0.00    +0.000 A 
ENDBRANCH  26  27
ENDBRANCH  25  26
ENDBRANCH  22  25
ENDBRANCH  18  19
ENDBRANCH   3  18
TORSDOF 8
ENDMDL
MODEL 8
REMARK VINA RESULT:      -7.6      2.521      4.496
REMARK  Name = 
REMARK  9 active torsions:
REMARK  status: ('A' for Active; 'I' for Inactive)
REMARK    1  A    between atoms: C_1  and  C_2
REMARK    2  A    between atoms: C_7  and  C_8
REMARK    3  A    between atoms: C_8  and  N_9
REMARK    4  A    between atoms: C_11  and  C_12
REMARK    5  A    between atoms: N_14  and  C_15
REMARK    6  A    between atoms: C_15  and  C_16
REMARK    7  A    between atoms: N_19  and  C_20
REMARK    8  A    between atoms: C_20  and  C_21
REMARK    9  A    between atoms: C_21  and  C_22
REMARK                            x       y       z     vdW  Elec       q    Type
REMARK                         _______ _______ _______ _____ _____    ______ ____
ROOT
ATOM      1  C   UNL     1       8.250   9.692  18.092  0.00  0.00    +0.000 C 
ATOM      2  O   UNL     1       7.504  10.270  17.307  0.00  0.00    +0.000 OA
ATOM      3  N   UNL     1       8.210   8.327  18.300  0.00  0.00    +0.000 N 
ATOM      4  H   UNL     1       8.807   7.949  19.027  0.00  0.00    +0.000 HD
ENDROOT
BRANCH   1   7
ATOM      5  N   UNL     1      10.857  11.663  19.587  0.00  0.00    +0.000 N 
ATOM      6  C   UNL     1      10.347  11.078  18.464  0.00  0.00    +0.000 A 
ATOM      7  C   UNL     1       9.230  10.398  18.907  0.00  0.00    +0.000 A 
ATOM      8  N   UNL     1       9.142  10.538  20.274  0.00  0.00    +0.000 NA
ATOM      9  N   UNL     1      10.137  11.320  20.677  0.00  0.00    +0.000 NA
BRANCH   5  10
ATOM     10  C   UNL     1      11.797  12.774  19.642  0.00  0.00    +0.000 C 
BRANCH  10  17
ATOM     11  C   UNL     1      12.332  13.576  16.732  0.00  0.00    +0.000 C 
ATOM     12  C   UNL     1      11.504  14.409  17.673  0.00  0.00    +0.000 A 
ATOM     13  C   UNL     1      10.953  15.606  17.180  0.00  0.00    +0.000 A 
ATOM     14  C   UNL     1      10.164  16.423  17.988  0.00  0.00    +0.000 A 
ATOM     15  C   UNL     1       9.926  16.067  19.308  0.00  0.00    +0.000 A 
ATOM     16  C   UNL     1      10.485  14.897  19.822  0.00  0.00    +0.000 A 
ATOM     17  C   UNL     1      11.277  14.050  19.021  0.00  0.00    +0.000 A 
ENDBRANCH  10  17
ENDBRANCH   5  10
ENDBRANCH   1   7
BRANCH   3  18
ATOM     18  C   UNL     1       7.240   7.494  17.620  0.00  0.00    +0.000 C 
BRANCH  18  19
ATOM     19  C   UNL     1       7.664   6.020  17.504  0.00  0.00    +0.000 C 
ATOM     20  C   UNL     1       7.258   5.383  16.172  0.00  0.00    +0.000 C 
ATOM     21  C   UNL     1       5.749   5.177  16.064  0.00  0.00    +0.000 C 
ATOM     22  N   UNL     1       5.235   4.354  17.169  0.00  0.00    +0.000 NA
ATOM     23  C   UNL     1       5.554   4.954  18.476  0.00  0.00    +0.000 C 
ATOM     24  C   UNL     1       7.064   5.179  18.643  0.00  0.00    +0.000 C 
BRANCH  22  25
ATOM     25  C   UNL     1       3.774   4.137  17.051  0.00  0.00    +0.000 C 
BRANCH  25  26
ATOM     26  C   UNL     1       2.950   5.017  18.012  0.00  0.00    +0.000 C 
BRANCH  26  27
ATOM     27  C   UNL     1       2.315   4.255  19.151  0.00  0.00    +0.000 A 
ATOM     28  C   UNL     1       1.591   3.081  18.909  0.00  0.00    +0.000 A 
ATOM     29  C   UNL     1       1.048   2.351  19.967  0.00  0.00    +0.000 A 
ATOM     30  C   UNL     1       1.235   2.781  21.279  0.00  0.00    +0.000 A 
ATOM     31  C   UNL     1       1.967   3.938  21.533  0.00  0.00    +0.000 A 
ATOM     32  C   UNL     1       2.506   4.673  20.475  0.00  0.00    +0.000 A 
ENDBRANCH  26  27
ENDBRANCH  25  26
ENDBRANCH  22  25
ENDBRANCH  18  19
ENDBRANCH   3  18
TORSDOF 8
ENDMDL
MODEL 9
REMARK VINA RESULT:      -7.5      3.715      7.429
REMARK  Name = 
REMARK  9 active torsions:
REMARK  status: ('A' for Active; 'I' for Inactive)
REMARK    1  A    between atoms: C_1  and  C_2
REMARK    2  A    between atoms: C_7  and  C_8
REMARK    3  A    between atoms: C_8  and  N_9
REMARK    4  A    between atoms: C_11  and  C_12
REMARK    5  A    between atoms: N_14  and  C_15
REMARK    6  A    between atoms: C_15  and  C_16
REMARK    7  A    between atoms: N_19  and  C_20
REMARK    8  A    between atoms: C_20  and  C_21
REMARK    9  A    between atoms: C_21  and  C_22
REMARK                            x       y       z     vdW  Elec       q    Type
REMARK                         _______ _______ _______ _____ _____    ______ ____
ROOT
ATOM      1  C   UNL     1       2.314   5.723  20.314  0.00  0.00    +0.000 C 
ATOM      2  O   UNL     1       3.481   5.348  20.386  0.00  0.00    +0.000 OA
ATOM      3  N   UNL     1       1.240   4.861  20.413  0.00  0.00    +0.000 N 
ATOM      4  H   UNL     1       0.315   5.249  20.260  0.00  0.00    +0.000 HD
ENDROOT
BRANCH   1   7
ATOM      5  N   UNL     1       1.559   9.047  19.175  0.00  0.00    +0.000 N 
ATOM      6  C   UNL     1       2.201   7.863  18.950  0.00  0.00    +0.000 A 
ATOM      7  C   UNL     1       1.951   7.115  20.083  0.00  0.00    +0.000 A 
ATOM      8  N   UNL     1       1.234   7.885  20.971  0.00  0.00    +0.000 NA
ATOM      9  N   UNL     1       0.993   9.061  20.401  0.00  0.00    +0.000 NA
BRANCH   5  10
ATOM     10  C   UNL     1       1.188  10.042  18.179  0.00  0.00    +0.000 C 
BRANCH  10  17
ATOM     11  C   UNL     1      -1.874  10.142  18.064  0.00  0.00    +0.000 C 
ATOM     12  C   UNL     1      -1.042  11.224  18.698  0.00  0.00    +0.000 A 
ATOM     13  C   UNL     1      -1.713  12.324  19.265  0.00  0.00    +0.000 A 
ATOM     14  C   UNL     1      -1.011  13.357  19.882  0.00  0.00    +0.000 A 
ATOM     15  C   UNL     1       0.376  13.318  19.929  0.00  0.00    +0.000 A 
ATOM     16  C   UNL     1       1.060  12.249  19.351  0.00  0.00    +0.000 A 
ATOM     17  C   UNL     1       0.371  11.188  18.731  0.00  0.00    +0.000 A 
ENDBRANCH  10  17
ENDBRANCH   5  10
ENDBRANCH   1   7
BRANCH   3  18
ATOM     18  C   UNL     1       1.437   3.434  20.569  0.00  0.00    +0.000 C 
BRANCH  18  19
ATOM     19  C   UNL     1       1.161   2.629  19.288  0.00  0.00    +0.000 C 
ATOM     20  C   UNL     1       2.266   1.618  18.967  0.00  0.00    +0.000 C 
ATOM     21  C   UNL     1       3.558   2.295  18.517  0.00  0.00    +0.000 C 
ATOM     22  N   UNL     1       3.337   3.157  17.345  0.00  0.00    +0.000 NA
ATOM     23  C   UNL     1       2.318   4.184  17.621  0.00  0.00    +0.000 C 
ATOM     24  C   UNL     1       0.991   3.557  18.074  0.00  0.00    +0.000 C 
BRANCH  22  25
ATOM     25  C   UNL     1       4.596   3.796  16.896  0.00  0.00    +0.000 C 
BRANCH  25  26
ATOM     26  C   UNL     1       5.621   3.983  18.032  0.00  0.00    +0.000 C 
BRANCH  26  27
ATOM     27  C   UNL     1       6.338   5.312  17.999  0.00  0.00    +0.000 A 
ATOM     28  C   UNL     1       7.472   5.532  18.792  0.00  0.00    +0.000 A 
ATOM     29  C   UNL     1       8.163   6.742  18.723  0.00  0.00    +0.000 A 
ATOM     30  C   UNL     1       7.734   7.740  17.851  0.00  0.00    +0.000 A 
ATOM     31  C   UNL     1       6.617   7.527  17.046  0.00  0.00    +0.000 A 
ATOM     32  C   UNL     1       5.922   6.319  17.118  0.00  0.00    +0.000 A 
ENDBRANCH  26  27
ENDBRANCH  25  26
ENDBRANCH  22  25
ENDBRANCH  18  19
ENDBRANCH   3  18
TORSDOF 8
ENDMDL
