MODEL 1
REMARK VINA RESULT:      -8.6      0.000      0.000
REMARK  Name = 
REMARK  5 active torsions:
REMARK  status: ('A' for Active; 'I' for Inactive)
REMARK    1  A    between atoms: C_2  and  C_3
REMARK    2  A    between atoms: C_3  and  C_4
REMARK    3  A    between atoms: C_4  and  C_5
REMARK    4  A    between atoms: C_15  and  C_16
REMARK    5  A    between atoms: C_16  and  C_17
REMARK                            x       y       z     vdW  Elec       q    Type
REMARK                         _______ _______ _______ _____ _____    ______ ____
ROOT
ATOM      1  O   UNL     1       3.979   5.162  18.361  0.00  0.00    +0.000 OA
ATOM      2  C   UNL     1       3.185   5.929  18.908  0.00  0.00    +0.000 C 
ATOM      3  N   UNL     1       3.012   7.194  18.395  0.00  0.00    +0.000 N 
ATOM      4  C   UNL     1       2.225   8.159  18.954  0.00  0.00    +0.000 A 
ATOM      5  N   UNL     1       1.690   8.167  20.148  0.00  0.00    +0.000 NA
ATOM      6  C   UNL     1       0.893   9.274  20.298  0.00  0.00    +0.000 A 
ATOM      7  C   UNL     1       0.810  10.102  19.199  0.00  0.00    +0.000 A 
ATOM      8  S   UNL     1       1.878   9.518  17.976  0.00  0.00    +0.000 S 
ATOM      9  H   UNL     1       3.499   7.404  17.538  0.00  0.00    +0.000 HD
ENDROOT
BRANCH   2  10
ATOM     10  C   UNL     1       2.291   5.480  20.072  0.00  0.00    +0.000 C 
BRANCH  10  11
ATOM     11  C   UNL     1       1.045   4.655  19.732  0.00  0.00    +0.000 C 
BRANCH  11  12
ATOM     12  C   UNL     1       1.105   3.172  20.171  0.00  0.00    +0.000 C 
ATOM     13  C   UNL     1       0.942   2.174  19.015  0.00  0.00    +0.000 C 
ATOM     14  C   UNL     1       2.149   2.200  18.085  0.00  0.00    +0.000 C 
ATOM     15  C   UNL     1       3.378   1.719  18.841  0.00  0.00    +0.000 C 
ATOM     16  C   UNL     1       3.638   2.532  20.107  0.00  0.00    +0.000 C 
ATOM     17  C   UNL     1       2.394   2.841  20.953  0.00  0.00    +0.000 C 
ENDBRANCH  11  12
ENDBRANCH  10  11
ENDBRANCH   2  10
BRANCH   7  18
ATOM     18  C   UNL     1      -0.053  11.315  19.029  0.00  0.00    +0.000 C 
BRANCH  18  19
ATOM     19  C   UNL     1      -1.422  10.971  18.455  0.00  0.00    +0.000 A 
ATOM     20  C   UNL     1      -1.472  10.055  17.386  0.00  0.00    +0.000 A 
ATOM     21  C   UNL     1      -2.675   9.753  16.756  0.00  0.00    +0.000 A 
ATOM     22  C   UNL     1      -3.847  10.369  17.176  0.00  0.00    +0.000 A 
ATOM     23  C   UNL     1      -3.839  11.273  18.247  0.00  0.00    +0.000 A 
ATOM     24  C   UNL     1      -5.041  11.872  18.658  0.00  0.00    +0.000 A 
ATOM     25  C   UNL     1      -5.069  12.758  19.733  0.00  0.00    +0.000 A 
ATOM     26  C   UNL     1      -3.894  13.056  20.408  0.00  0.00    +0.000 A 
ATOM     27  C   UNL     1      -2.689  12.480  19.999  0.00  0.00    +0.000 A 
ATOM     28  C   UNL     1      -2.623  11.581  18.912  0.00  0.00    +0.000 A 
ENDBRANCH  18  19
ENDBRANCH   7  18
TORSDOF 5
ENDMDL
MODEL 2
REMARK VINA RESULT:      -8.2      6.312     10.225
REMARK  Name = 
REMARK  5 active torsions:
REMARK  status: ('A' for Active; 'I' for Inactive)
REMARK    1  A    between atoms: C_2  and  C_3
REMARK    2  A    between atoms: C_3  and  C_4
REMARK    3  A    between atoms: C_4  and  C_5
REMARK    4  A    between atoms: C_15  and  C_16
REMARK    5  A    between atoms: C_16  and  C_17
REMARK                            x       y       z     vdW  Elec       q    Type
REMARK                         _______ _______ _______ _____ _____    ______ ____
ROOT
ATOM      1  O   UNL     1       9.904  10.373  20.105  0.00  0.00    +0.000 OA
ATOM      2  C   UNL     1       9.233   9.858  19.207  0.00  0.00    +0.000 C 
ATOM      3  N   UNL     1       8.884   8.531  19.310  0.00  0.00    +0.000 N 
ATOM      4  C   UNL     1       8.215   7.828  18.351  0.00  0.00    +0.000 A 
ATOM      5  N   UNL     1       7.987   8.177  17.110  0.00  0.00    +0.000 NA
ATOM      6  C   UNL     1       7.202   7.235  16.493  0.00  0.00    +0.000 A 
ATOM      7  C   UNL     1       6.816   6.172  17.282  0.00  0.00    +0.000 A 
ATOM      8  S   UNL     1       7.579   6.312  18.823  0.00  0.00    +0.000 S 
ATOM      9  H   UNL     1       9.137   8.062  20.165  0.00  0.00    +0.000 HD
ENDROOT
BRANCH   2  10
ATOM     10  C   UNL     1       8.672  10.677  18.038  0.00  0.00    +0.000 C 
BRANCH  10  11
ATOM     11  C   UNL     1       8.711  12.205  18.159  0.00  0.00    +0.000 C 
BRANCH  11  12
ATOM     12  C   UNL     1       9.853  12.893  17.374  0.00  0.00    +0.000 C 
ATOM     13  C   UNL     1      10.113  14.346  17.798  0.00  0.00    +0.000 C 
ATOM     14  C   UNL     1      10.705  14.418  19.200  0.00  0.00    +0.000 C 
ATOM     15  C   UNL     1      12.079  13.764  19.200  0.00  0.00    +0.000 C 
ATOM     16  C   UNL     1      12.039  12.325  18.690  0.00  0.00    +0.000 C 
ATOM     17  C   UNL     1      11.175  12.098  17.441  0.00  0.00    +0.000 C 
ENDBRANCH  11  12
ENDBRANCH  10  11
ENDBRANCH   2  10
BRANCH   7  18
ATOM     18  C   UNL     1       5.884   5.055  16.921  0.00  0.00    +0.000 C 
BRANCH  18  19
ATOM     19  C   UNL     1       4.456   5.330  17.374  0.00  0.00    +0.000 A 
ATOM     20  C   UNL     1       4.059   6.676  17.510  0.00  0.00    +0.000 A 
ATOM     21  C   UNL     1       2.799   7.006  17.997  0.00  0.00    +0.000 A 
ATOM     22  C   UNL     1       1.915   5.999  18.365  0.00  0.00    +0.000 A 
ATOM     23  C   UNL     1       2.267   4.650  18.227  0.00  0.00    +0.000 A 
ATOM     24  C   UNL     1       1.350   3.653  18.596  0.00  0.00    +0.000 A 
ATOM     25  C   UNL     1       1.662   2.303  18.450  0.00  0.00    +0.000 A 
ATOM     26  C   UNL     1       2.897   1.935  17.936  0.00  0.00    +0.000 A 
ATOM     27  C   UNL     1       3.825   2.916  17.581  0.00  0.00    +0.000 A 
ATOM     28  C   UNL     1       3.544   4.294  17.718  0.00  0.00    +0.000 A 
ENDBRANCH  18  19
ENDBRANCH   7  18
TORSDOF 5
ENDMDL
MODEL 3
REMARK VINA RESULT:      -8.1      1.426      2.904
REMARK  Name = 
REMARK  5 active torsions:
REMARK  status: ('A' for Active; 'I' for Inactive)
REMARK    1  A    between atoms: C_2  and  C_3
REMARK    2  A    between atoms: C_3  and  C_4
REMARK    3  A    between atoms: C_4  and  C_5
REMARK    4  A    between atoms: C_15  and  C_16
REMARK    5  A    between atoms: C_16  and  C_17
REMARK                            x       y       z     vdW  Elec       q    Type
REMARK                         _______ _______ _______ _____ _____    ______ ____
ROOT
ATOM      1  O   UNL     1       2.537   4.583  21.507  0.00  0.00    +0.000 OA
ATOM      2  C   UNL     1       2.623   5.460  20.645  0.00  0.00    +0.000 C 
ATOM      3  N   UNL     1       1.849   6.592  20.760  0.00  0.00    +0.000 N 
ATOM      4  C   UNL     1       1.795   7.594  19.835  0.00  0.00    +0.000 A 
ATOM      5  N   UNL     1       2.253   7.581  18.609  0.00  0.00    +0.000 NA
ATOM      6  C   UNL     1       2.082   8.814  18.030  0.00  0.00    +0.000 A 
ATOM      7  C   UNL     1       1.506   9.775  18.835  0.00  0.00    +0.000 A 
ATOM      8  S   UNL     1       1.054   9.052  20.334  0.00  0.00    +0.000 S 
ATOM      9  H   UNL     1       1.298   6.679  21.599  0.00  0.00    +0.000 HD
ENDROOT
BRANCH   2  10
ATOM     10  C   UNL     1       3.652   5.387  19.509  0.00  0.00    +0.000 C 
BRANCH  10  11
ATOM     11  C   UNL     1       4.378   4.053  19.294  0.00  0.00    +0.000 C 
BRANCH  11  12
ATOM     12  C   UNL     1       3.834   3.195  18.128  0.00  0.00    +0.000 C 
ATOM     13  C   UNL     1       3.347   1.803  18.555  0.00  0.00    +0.000 C 
ATOM     14  C   UNL     1       2.082   1.891  19.400  0.00  0.00    +0.000 C 
ATOM     15  C   UNL     1       0.950   2.454  18.555  0.00  0.00    +0.000 C 
ATOM     16  C   UNL     1       1.300   3.808  17.940  0.00  0.00    +0.000 C 
ATOM     17  C   UNL     1       2.712   3.910  17.345  0.00  0.00    +0.000 C 
ENDBRANCH  11  12
ENDBRANCH  10  11
ENDBRANCH   2  10
BRANCH   7  18
ATOM     18  C   UNL     1       1.290  11.223  18.519  0.00  0.00    +0.000 C 
BRANCH  18  19
ATOM     19  C   UNL     1      -0.078  11.713  18.975  0.00  0.00    +0.000 A 
ATOM     20  C   UNL     1      -0.126  12.600  20.070  0.00  0.00    +0.000 A 
ATOM     21  C   UNL     1      -1.340  13.026  20.596  0.00  0.00    +0.000 A 
ATOM     22  C   UNL     1      -2.531  12.566  20.045  0.00  0.00    +0.000 A 
ATOM     23  C   UNL     1      -2.524  11.698  18.945  0.00  0.00    +0.000 A 
ATOM     24  C   UNL     1      -3.741  11.259  18.401  0.00  0.00    +0.000 A 
ATOM     25  C   UNL     1      -3.768  10.412  17.295  0.00  0.00    +0.000 A 
ATOM     26  C   UNL     1      -2.576   9.993  16.722  0.00  0.00    +0.000 A 
ATOM     27  C   UNL     1      -1.357  10.409  17.263  0.00  0.00    +0.000 A 
ATOM     28  C   UNL     1      -1.293  11.264  18.385  0.00  0.00    +0.000 A 
ENDBRANCH  18  19
ENDBRANCH   7  18
TORSDOF 5
ENDMDL
MODEL 4
REMARK VINA RESULT:      -8.1      0.722      1.128
REMARK  Name = 
REMARK  5 active torsions:
REMARK  status: ('A' for Active; 'I' for Inactive)
REMARK    1  A    between atoms: C_2  and  C_3
REMARK    2  A    between atoms: C_3  and  C_4
REMARK    3  A    between atoms: C_4  and  C_5
REMARK    4  A    between atoms: C_15  and  C_16
REMARK    5  A    between atoms: C_16  and  C_17
REMARK                            x       y       z     vdW  Elec       q    Type
REMARK                         _______ _______ _______ _____ _____    ______ ____
ROOT
ATOM      1  O   UNL     1       4.327   5.348  17.235  0.00  0.00    +0.000 OA
ATOM      2  C   UNL     1       3.462   5.959  17.866  0.00  0.00    +0.000 C 
ATOM      3  N   UNL     1       3.348   7.321  17.702  0.00  0.00    +0.000 N 
ATOM      4  C   UNL     1       2.488   8.118  18.399  0.00  0.00    +0.000 A 
ATOM      5  N   UNL     1       1.802   7.815  19.472  0.00  0.00    +0.000 NA
ATOM      6  C   UNL     1       0.984   8.861  19.818  0.00  0.00    +0.000 A 
ATOM      7  C   UNL     1       1.038   9.960  18.986  0.00  0.00    +0.000 A 
ATOM      8  S   UNL     1       2.260   9.702  17.796  0.00  0.00    +0.000 S 
ATOM      9  H   UNL     1       3.940   7.742  17.004  0.00  0.00    +0.000 HD
ENDROOT
BRANCH   2  10
ATOM     10  C   UNL     1       2.429   5.235  18.739  0.00  0.00    +0.000 C 
BRANCH  10  11
ATOM     11  C   UNL     1       1.504   4.224  18.053  0.00  0.00    +0.000 C 
BRANCH  11  12
ATOM     12  C   UNL     1       1.127   2.995  18.914  0.00  0.00    +0.000 C 
ATOM     13  C   UNL     1       2.209   1.906  18.952  0.00  0.00    +0.000 C 
ATOM     14  C   UNL     1       3.440   2.372  19.721  0.00  0.00    +0.000 C 
ATOM     15  C   UNL     1       3.067   2.597  21.178  0.00  0.00    +0.000 C 
ATOM     16  C   UNL     1       1.909   3.581  21.338  0.00  0.00    +0.000 C 
ATOM     17  C   UNL     1       0.744   3.383  20.358  0.00  0.00    +0.000 C 
ENDBRANCH  11  12
ENDBRANCH  10  11
ENDBRANCH   2  10
BRANCH   7  18
ATOM     18  C   UNL     1       0.195  11.197  19.048  0.00  0.00    +0.000 C 
BRANCH  18  19
ATOM     19  C   UNL     1      -1.220  10.955  18.538  0.00  0.00    +0.000 A 
ATOM     20  C   UNL     1      -1.382  10.073  17.450  0.00  0.00    +0.000 A 
ATOM     21  C   UNL     1      -2.631   9.864  16.876  0.00  0.00    +0.000 A 
ATOM     22  C   UNL     1      -3.740  10.539  17.372  0.00  0.00    +0.000 A 
ATOM     23  C   UNL     1      -3.621  11.410  18.463  0.00  0.00    +0.000 A 
ATOM     24  C   UNL     1      -4.761  12.070  18.951  0.00  0.00    +0.000 A 
ATOM     25  C   UNL     1      -4.679  12.925  20.048  0.00  0.00    +0.000 A 
ATOM     26  C   UNL     1      -3.455  13.132  20.668  0.00  0.00    +0.000 A 
ATOM     27  C   UNL     1      -2.311  12.494  20.183  0.00  0.00    +0.000 A 
ATOM     28  C   UNL     1      -2.356  11.624  19.071  0.00  0.00    +0.000 A 
ENDBRANCH  18  19
ENDBRANCH   7  18
TORSDOF 5
ENDMDL
MODEL 5
REMARK VINA RESULT:      -8.0      2.584      3.765
REMARK  Name = 
REMARK  5 active torsions:
REMARK  status: ('A' for Active; 'I' for Inactive)
REMARK    1  A    between atoms: C_2  and  C_3
REMARK    2  A    between atoms: C_3  and  C_4
REMARK    3  A    between atoms: C_4  and  C_5
REMARK    4  A    between atoms: C_15  and  C_16
REMARK    5  A    between atoms: C_16  and  C_17
REMARK                            x       y       z     vdW  Elec       q    Type
REMARK                         _______ _______ _______ _____ _____    ______ ____
ROOT
ATOM      1  O   UNL     1       3.021   4.246  20.382  0.00  0.00    +0.000 OA
ATOM      2  C   UNL     1       2.878   5.342  19.836  0.00  0.00    +0.000 C 
ATOM      3  N   UNL     1       2.103   6.300  20.449  0.00  0.00    +0.000 N 
ATOM      4  C   UNL     1       1.805   7.519  19.912  0.00  0.00    +0.000 A 
ATOM      5  N   UNL     1       1.981   7.918  18.678  0.00  0.00    +0.000 NA
ATOM      6  C   UNL     1       1.636   9.241  18.558  0.00  0.00    +0.000 A 
ATOM      7  C   UNL     1       1.212   9.854  19.719  0.00  0.00    +0.000 A 
ATOM      8  S   UNL     1       1.133   8.676  20.977  0.00  0.00    +0.000 S 
ATOM      9  H   UNL     1       1.748   6.076  21.365  0.00  0.00    +0.000 HD
ENDROOT
BRANCH   2  10
ATOM     10  C   UNL     1       3.633   5.718  18.555  0.00  0.00    +0.000 C 
BRANCH  10  11
ATOM     11  C   UNL     1       5.166   5.686  18.599  0.00  0.00    +0.000 C 
BRANCH  11  12
ATOM     12  C   UNL     1       5.867   6.430  17.437  0.00  0.00    +0.000 C 
ATOM     13  C   UNL     1       7.345   6.053  17.260  0.00  0.00    +0.000 C 
ATOM     14  C   UNL     1       7.497   4.623  16.757  0.00  0.00    +0.000 C 
ATOM     15  C   UNL     1       6.900   4.513  15.362  0.00  0.00    +0.000 C 
ATOM     16  C   UNL     1       5.441   4.963  15.316  0.00  0.00    +0.000 C 
ATOM     17  C   UNL     1       5.130   6.251  16.093  0.00  0.00    +0.000 C 
ENDBRANCH  11  12
ENDBRANCH  10  11
ENDBRANCH   2  10
BRANCH   7  18
ATOM     18  C   UNL     1       0.873  11.299  19.920  0.00  0.00    +0.000 C 
BRANCH  18  19
ATOM     19  C   UNL     1      -0.625  11.559  19.808  0.00  0.00    +0.000 A 
ATOM     20  C   UNL     1      -1.222  11.409  18.540  0.00  0.00    +0.000 A 
ATOM     21  C   UNL     1      -2.566  11.707  18.341  0.00  0.00    +0.000 A 
ATOM     22  C   UNL     1      -3.335  12.169  19.403  0.00  0.00    +0.000 A 
ATOM     23  C   UNL     1      -2.780  12.314  20.682  0.00  0.00    +0.000 A 
ATOM     24  C   UNL     1      -3.583  12.771  21.738  0.00  0.00    +0.000 A 
ATOM     25  C   UNL     1      -3.066  12.905  23.025  0.00  0.00    +0.000 A 
ATOM     26  C   UNL     1      -1.739  12.584  23.269  0.00  0.00    +0.000 A 
ATOM     27  C   UNL     1      -0.924  12.144  22.223  0.00  0.00    +0.000 A 
ATOM     28  C   UNL     1      -1.414  12.000  20.906  0.00  0.00    +0.000 A 
ENDBRANCH  18  19
ENDBRANCH   7  18
TORSDOF 5
ENDMDL
MODEL 6
REMARK VINA RESULT:      -8.0      2.459      3.650
REMARK  Name = 
REMARK  5 active torsions:
REMARK  status: ('A' for Active; 'I' for Inactive)
REMARK    1  A    between atoms: C_2  and  C_3
REMARK    2  A    between atoms: C_3  and  C_4
REMARK    3  A    between atoms: C_4  and  C_5
REMARK    4  A    between atoms: C_15  and  C_16
REMARK    5  A    between atoms: C_16  and  C_17
REMARK                            x       y       z     vdW  Elec       q    Type
REMARK                         _______ _______ _______ _____ _____    ______ ____
ROOT
ATOM      1  O   UNL     1       2.859   3.768  21.179  0.00  0.00    +0.000 OA
ATOM      2  C   UNL     1       2.829   4.704  20.378  0.00  0.00    +0.000 C 
ATOM      3  N   UNL     1       2.117   5.837  20.697  0.00  0.00    +0.000 N 
ATOM      4  C   UNL     1       1.942   6.905  19.866  0.00  0.00    +0.000 A 
ATOM      5  N   UNL     1       2.194   6.975  18.584  0.00  0.00    +0.000 NA
ATOM      6  C   UNL     1       1.967   8.250  18.129  0.00  0.00    +0.000 A 
ATOM      7  C   UNL     1       1.557   9.159  19.082  0.00  0.00    +0.000 A 
ATOM      8  S   UNL     1       1.334   8.335  20.581  0.00  0.00    +0.000 S 
ATOM      9  H   UNL     1       1.712   5.871  21.620  0.00  0.00    +0.000 HD
ENDROOT
BRANCH   2  10
ATOM     10  C   UNL     1       3.657   4.697  19.086  0.00  0.00    +0.000 C 
BRANCH  10  11
ATOM     11  C   UNL     1       5.148   5.035  19.198  0.00  0.00    +0.000 C 
BRANCH  11  12
ATOM     12  C   UNL     1       5.682   6.000  18.113  0.00  0.00    +0.000 C 
ATOM     13  C   UNL     1       7.199   5.915  17.896  0.00  0.00    +0.000 C 
ATOM     14  C   UNL     1       7.597   4.590  17.257  0.00  0.00    +0.000 C 
ATOM     15  C   UNL     1       7.001   4.506  15.860  0.00  0.00    +0.000 C 
ATOM     16  C   UNL     1       5.485   4.687  15.861  0.00  0.00    +0.000 C 
ATOM     17  C   UNL     1       4.962   5.818  16.759  0.00  0.00    +0.000 C 
ENDBRANCH  11  12
ENDBRANCH  10  11
ENDBRANCH   2  10
BRANCH   7  18
ATOM     18  C   UNL     1       1.335  10.630  18.908  0.00  0.00    +0.000 C 
BRANCH  18  19
ATOM     19  C   UNL     1      -0.139  11.004  19.007  0.00  0.00    +0.000 A 
ATOM     20  C   UNL     1      -1.005  10.524  18.004  0.00  0.00    +0.000 A 
ATOM     21  C   UNL     1      -2.347  10.890  17.980  0.00  0.00    +0.000 A 
ATOM     22  C   UNL     1      -2.846  11.750  18.951  0.00  0.00    +0.000 A 
ATOM     23  C   UNL     1      -2.019  12.233  19.974  0.00  0.00    +0.000 A 
ATOM     24  C   UNL     1      -2.552  13.091  20.949  0.00  0.00    +0.000 A 
ATOM     25  C   UNL     1      -1.761  13.571  21.991  0.00  0.00    +0.000 A 
ATOM     26  C   UNL     1      -0.426  13.200  22.067  0.00  0.00    +0.000 A 
ATOM     27  C   UNL     1       0.121  12.361  21.095  0.00  0.00    +0.000 A 
ATOM     28  C   UNL     1      -0.650  11.858  20.023  0.00  0.00    +0.000 A 
ENDBRANCH  18  19
ENDBRANCH   7  18
TORSDOF 5
ENDMDL
MODEL 7
REMARK VINA RESULT:      -7.9      2.362      3.893
REMARK  Name = 
REMARK  5 active torsions:
REMARK  status: ('A' for Active; 'I' for Inactive)
REMARK    1  A    between atoms: C_2  and  C_3
REMARK    2  A    between atoms: C_3  and  C_4
REMARK    3  A    between atoms: C_4  and  C_5
REMARK    4  A    between atoms: C_15  and  C_16
REMARK    5  A    between atoms: C_16  and  C_17
REMARK                            x       y       z     vdW  Elec       q    Type
REMARK                         _______ _______ _______ _____ _____    ______ ____
ROOT
ATOM      1  O   UNL     1       2.778   4.435  20.724  0.00  0.00    +0.000 OA
ATOM      2  C   UNL     1       2.750   5.403  19.962  0.00  0.00    +0.000 C 
ATOM      3  N   UNL     1       2.048   6.527  20.332  0.00  0.00    +0.000 N 
ATOM      4  C   UNL     1       1.876   7.630  19.546  0.00  0.00    +0.000 A 
ATOM      5  N   UNL     1       2.122   7.751  18.267  0.00  0.00    +0.000 NA
ATOM      6  C   UNL     1       1.902   9.045  17.866  0.00  0.00    +0.000 A 
ATOM      7  C   UNL     1       1.503   9.916  18.858  0.00  0.00    +0.000 A 
ATOM      8  S   UNL     1       1.282   9.033  20.323  0.00  0.00    +0.000 S 
ATOM      9  H   UNL     1       1.648   6.526  21.257  0.00  0.00    +0.000 HD
ENDROOT
BRANCH   2  10
ATOM     10  C   UNL     1       3.572   5.444  18.667  0.00  0.00    +0.000 C 
BRANCH  10  11
ATOM     11  C   UNL     1       5.092   5.604  18.796  0.00  0.00    +0.000 C 
BRANCH  11  12
ATOM     12  C   UNL     1       5.766   6.382  17.641  0.00  0.00    +0.000 C 
ATOM     13  C   UNL     1       7.258   6.065  17.465  0.00  0.00    +0.000 C 
ATOM     14  C   UNL     1       7.468   4.645  16.954  0.00  0.00    +0.000 C 
ATOM     15  C   UNL     1       6.879   4.519  15.558  0.00  0.00    +0.000 C 
ATOM     16  C   UNL     1       5.404   4.911  15.511  0.00  0.00    +0.000 C 
ATOM     17  C   UNL     1       5.039   6.181  16.293  0.00  0.00    +0.000 C 
ENDBRANCH  11  12
ENDBRANCH  10  11
ENDBRANCH   2  10
BRANCH   7  18
ATOM     18  C   UNL     1       1.290  11.395  18.746  0.00  0.00    +0.000 C 
BRANCH  18  19
ATOM     19  C   UNL     1       0.053  11.856  19.506  0.00  0.00    +0.000 A 
ATOM     20  C   UNL     1       0.232  12.346  20.815  0.00  0.00    +0.000 A 
ATOM     21  C   UNL     1      -0.856  12.709  21.601  0.00  0.00    +0.000 A 
ATOM     22  C   UNL     1      -2.145  12.579  21.097  0.00  0.00    +0.000 A 
ATOM     23  C   UNL     1      -2.362  12.113  19.794  0.00  0.00    +0.000 A 
ATOM     24  C   UNL     1      -3.674  12.003  19.307  0.00  0.00    +0.000 A 
ATOM     25  C   UNL     1      -3.922  11.563  18.008  0.00  0.00    +0.000 A 
ATOM     26  C   UNL     1      -2.859  11.225  17.183  0.00  0.00    +0.000 A 
ATOM     27  C   UNL     1      -1.549  11.314  17.661  0.00  0.00    +0.000 A 
ATOM     28  C   UNL     1      -1.262  11.752  18.972  0.00  0.00    +0.000 A 
ENDBRANCH  18  19
ENDBRANCH   7  18
TORSDOF 5
ENDMDL
MODEL 8
REMARK VINA RESULT:      -7.9      3.362      9.557
REMARK  Name = 
REMARK  5 active torsions:
REMARK  status: ('A' for Active; 'I' for Inactive)
REMARK    1  A    between atoms: C_2  and  C_3
REMARK    2  A    between atoms: C_3  and  C_4
REMARK    3  A    between atoms: C_4  and  C_5
REMARK    4  A    between atoms: C_15  and  C_16
REMARK    5  A    between atoms: C_16  and  C_17
REMARK                            x       y       z     vdW  Elec       q    Type
REMARK                         _______ _______ _______ _____ _____    ______ ____
ROOT
ATOM      1  O   UNL     1       0.238   9.458  22.460  0.00  0.00    +0.000 OA
ATOM      2  C   UNL     1       0.699   9.062  21.388  0.00  0.00    +0.000 C 
ATOM      3  N   UNL     1       1.349   7.849  21.345  0.00  0.00    +0.000 N 
ATOM      4  C   UNL     1       1.969   7.339  20.241  0.00  0.00    +0.000 A 
ATOM      5  N   UNL     1       2.266   7.959  19.128  0.00  0.00    +0.000 NA
ATOM      6  C   UNL     1       2.805   7.075  18.227  0.00  0.00    +0.000 A 
ATOM      7  C   UNL     1       2.899   5.768  18.658  0.00  0.00    +0.000 A 
ATOM      8  S   UNL     1       2.399   5.685  20.307  0.00  0.00    +0.000 S 
ATOM      9  H   UNL     1       1.347   7.306  22.193  0.00  0.00    +0.000 HD
ENDROOT
BRANCH   2  10
ATOM     10  C   UNL     1       0.469   9.819  20.073  0.00  0.00    +0.000 C 
BRANCH  10  11
ATOM     11  C   UNL     1      -0.970   9.915  19.552  0.00  0.00    +0.000 C 
BRANCH  11  12
ATOM     12  C   UNL     1      -1.239  11.098  18.593  0.00  0.00    +0.000 C 
ATOM     13  C   UNL     1      -2.049  10.717  17.345  0.00  0.00    +0.000 C 
ATOM     14  C   UNL     1      -3.488  10.364  17.703  0.00  0.00    +0.000 C 
ATOM     15  C   UNL     1      -4.186  11.598  18.254  0.00  0.00    +0.000 C 
ATOM     16  C   UNL     1      -3.450  12.198  19.451  0.00  0.00    +0.000 C 
ATOM     17  C   UNL     1      -1.924  12.287  19.302  0.00  0.00    +0.000 C 
ENDBRANCH  11  12
ENDBRANCH  10  11
ENDBRANCH   2  10
BRANCH   7  18
ATOM     18  C   UNL     1       3.343   4.574  17.869  0.00  0.00    +0.000 C 
BRANCH  18  19
ATOM     19  C   UNL     1       4.849   4.568  17.635  0.00  0.00    +0.000 A 
ATOM     20  C   UNL     1       5.687   4.688  18.761  0.00  0.00    +0.000 A 
ATOM     21  C   UNL     1       7.068   4.773  18.621  0.00  0.00    +0.000 A 
ATOM     22  C   UNL     1       7.636   4.750  17.353  0.00  0.00    +0.000 A 
ATOM     23  C   UNL     1       6.836   4.614  16.210  0.00  0.00    +0.000 A 
ATOM     24  C   UNL     1       7.437   4.582  14.943  0.00  0.00    +0.000 A 
ATOM     25  C   UNL     1       6.670   4.426  13.790  0.00  0.00    +0.000 A 
ATOM     26  C   UNL     1       5.292   4.304  13.893  0.00  0.00    +0.000 A 
ATOM     27  C   UNL     1       4.679   4.351  15.147  0.00  0.00    +0.000 A 
ATOM     28  C   UNL     1       5.425   4.511  16.336  0.00  0.00    +0.000 A 
ENDBRANCH  18  19
ENDBRANCH   7  18
TORSDOF 5
ENDMDL
MODEL 9
REMARK VINA RESULT:      -7.9      2.593      8.738
REMARK  Name = 
REMARK  5 active torsions:
REMARK  status: ('A' for Active; 'I' for Inactive)
REMARK    1  A    between atoms: C_2  and  C_3
REMARK    2  A    between atoms: C_3  and  C_4
REMARK    3  A    between atoms: C_4  and  C_5
REMARK    4  A    between atoms: C_15  and  C_16
REMARK    5  A    between atoms: C_16  and  C_17
REMARK                            x       y       z     vdW  Elec       q    Type
REMARK                         _______ _______ _______ _____ _____    ______ ____
ROOT
ATOM      1  O   UNL     1      -0.467  12.703  20.506  0.00  0.00    +0.000 OA
ATOM      2  C   UNL     1      -0.060  11.648  20.016  0.00  0.00    +0.000 C 
ATOM      3  N   UNL     1       0.479  10.689  20.843  0.00  0.00    +0.000 N 
ATOM      4  C   UNL     1       1.035   9.518  20.416  0.00  0.00    +0.000 A 
ATOM      5  N   UNL     1       1.369   9.185  19.195  0.00  0.00    +0.000 NA
ATOM      6  C   UNL     1       1.814   7.887  19.167  0.00  0.00    +0.000 A 
ATOM      7  C   UNL     1       1.798   7.225  20.377  0.00  0.00    +0.000 A 
ATOM      8  S   UNL     1       1.318   8.329  21.612  0.00  0.00    +0.000 S 
ATOM      9  H   UNL     1       0.443  10.873  21.833  0.00  0.00    +0.000 HD
ENDROOT
BRANCH   2  10
ATOM     10  C   UNL     1      -0.242  11.317  18.529  0.00  0.00    +0.000 C 
BRANCH  10  11
ATOM     11  C   UNL     1      -1.618  11.584  17.907  0.00  0.00    +0.000 C 
BRANCH  11  12
ATOM     12  C   UNL     1      -2.485  10.324  17.675  0.00  0.00    +0.000 C 
ATOM     13  C   UNL     1      -3.995  10.599  17.682  0.00  0.00    +0.000 C 
ATOM     14  C   UNL     1      -4.419  11.411  16.464  0.00  0.00    +0.000 C 
ATOM     15  C   UNL     1      -4.182  10.591  15.205  0.00  0.00    +0.000 C 
ATOM     16  C   UNL     1      -2.733  10.121  15.081  0.00  0.00    +0.000 C 
ATOM     17  C   UNL     1      -2.108   9.581  16.375  0.00  0.00    +0.000 C 
ENDBRANCH  11  12
ENDBRANCH  10  11
ENDBRANCH   2  10
BRANCH   7  18
ATOM     18  C   UNL     1       2.122   5.785  20.637  0.00  0.00    +0.000 C 
BRANCH  18  19
ATOM     19  C   UNL     1       2.449   5.029  19.355  0.00  0.00    +0.000 A 
ATOM     20  C   UNL     1       1.399   4.337  18.717  0.00  0.00    +0.000 A 
ATOM     21  C   UNL     1       1.635   3.558  17.590  0.00  0.00    +0.000 A 
ATOM     22  C   UNL     1       2.925   3.447  17.084  0.00  0.00    +0.000 A 
ATOM     23  C   UNL     1       3.991   4.135  17.681  0.00  0.00    +0.000 A 
ATOM     24  C   UNL     1       5.281   4.014  17.142  0.00  0.00    +0.000 A 
ATOM     25  C   UNL     1       6.357   4.702  17.700  0.00  0.00    +0.000 A 
ATOM     26  C   UNL     1       6.154   5.516  18.804  0.00  0.00    +0.000 A 
ATOM     27  C   UNL     1       4.878   5.632  19.360  0.00  0.00    +0.000 A 
ATOM     28  C   UNL     1       3.766   4.947  18.824  0.00  0.00    +0.000 A 
ENDBRANCH  18  19
ENDBRANCH   7  18
TORSDOF 5
ENDMDL
