MODEL 1
REMARK VINA RESULT:      -7.6      0.000      0.000
REMARK  Name = 
REMARK  10 active torsions:
REMARK  status: ('A' for Active; 'I' for Inactive)
REMARK    1  A    between atoms: C_1  and  C_2
REMARK    2  A    between atoms: C_2  and  C_3
REMARK    3  A    between atoms: C_3  and  C_4
REMARK    4  A    between atoms: C_4  and  C_5
REMARK    5  A    between atoms: C_5  and  C_6
REMARK    6  A    between atoms: C_6  and  C_7
REMARK    7  A    between atoms: C_7  and  C_8
REMARK    8  A    between atoms: C_8  and  N_9
REMARK    9  A    between atoms: C_11  and  C_12
REMARK   10  A    between atoms: C_12  and  N_13
REMARK                            x       y       z     vdW  Elec       q    Type
REMARK                         _______ _______ _______ _____ _____    ______ ____
ROOT
ATOM      1  N   UNL     1       5.372   4.769  16.904  0.00  0.00    +0.000 N 
ATOM      2  C   UNL     1       4.837   3.510  16.989  0.00  0.00    +0.000 A 
ATOM      3  C   UNL     1       3.528   3.612  17.414  0.00  0.00    +0.000 A 
ATOM      4  C   UNL     1       3.264   5.013  17.591  0.00  0.00    +0.000 A 
ATOM      5  C   UNL     1       2.132   5.753  18.001  0.00  0.00    +0.000 A 
ATOM      6  C   UNL     1       2.198   7.148  18.075  0.00  0.00    +0.000 A 
ATOM      7  C   UNL     1       3.368   7.818  17.741  0.00  0.00    +0.000 A 
ATOM      8  C   UNL     1       4.498   7.114  17.317  0.00  0.00    +0.000 A 
ATOM      9  C   UNL     1       4.429   5.712  17.254  0.00  0.00    +0.000 A 
ENDROOT
BRANCH   1  10
ATOM     10  C   UNL     1       6.746   5.043  16.509  0.00  0.00    +0.000 C 
BRANCH  10  11
ATOM     11  C   UNL     1       7.187   4.315  15.239  0.00  0.00    +0.000 C 
BRANCH  11  12
ATOM     12  C   UNL     1       6.536   4.881  13.978  0.00  0.00    +0.000 C 
BRANCH  12  13
ATOM     13  C   UNL     1       5.493   3.920  13.419  0.00  0.00    +0.000 C 
BRANCH  13  14
ATOM     14  C   UNL     1       6.114   3.014  12.360  0.00  0.00    +0.000 C 
BRANCH  14  15
ATOM     15  C   UNL     1       5.086   2.624  11.303  0.00  0.00    +0.000 C 
BRANCH  15  17
ATOM     16  C   UNL     1       3.124   3.495  10.000  0.00  0.00    +0.000 C 
ATOM     17  C   UNL     1       3.914   3.604  11.294  0.00  0.00    +0.000 C 
ENDBRANCH  15  17
ENDBRANCH  14  15
ENDBRANCH  13  14
ENDBRANCH  12  13
ENDBRANCH  11  12
ENDBRANCH  10  11
ENDBRANCH   1  10
BRANCH   3  18
ATOM     18  C   UNL     1       2.560   2.484  17.607  0.00  0.00    +0.000 C 
BRANCH  18  19
ATOM     19  N   UNL     1       2.322   2.180  19.039  0.00  0.00    +0.000 NA
ATOM     20  C   UNL     1       3.515   2.485  19.847  0.00  0.00    +0.000 C 
ATOM     21  C   UNL     1       3.267   2.345  21.350  0.00  0.00    +0.000 C 
ATOM     22  C   UNL     1       2.089   3.200  21.794  0.00  0.00    +0.000 C 
ATOM     23  C   UNL     1       0.862   2.823  20.980  0.00  0.00    +0.000 C 
ATOM     24  C   UNL     1       1.141   2.946  19.482  0.00  0.00    +0.000 C 
ENDBRANCH  18  19
ENDBRANCH   3  18
TORSDOF 9
ENDMDL
MODEL 2
REMARK VINA RESULT:      -7.4      3.659      6.554
REMARK  Name = 
REMARK  10 active torsions:
REMARK  status: ('A' for Active; 'I' for Inactive)
REMARK    1  A    between atoms: C_1  and  C_2
REMARK    2  A    between atoms: C_2  and  C_3
REMARK    3  A    between atoms: C_3  and  C_4
REMARK    4  A    between atoms: C_4  and  C_5
REMARK    5  A    between atoms: C_5  and  C_6
REMARK    6  A    between atoms: C_6  and  C_7
REMARK    7  A    between atoms: C_7  and  C_8
REMARK    8  A    between atoms: C_8  and  N_9
REMARK    9  A    between atoms: C_11  and  C_12
REMARK   10  A    between atoms: C_12  and  N_13
REMARK                            x       y       z     vdW  Elec       q    Type
REMARK                         _______ _______ _______ _____ _____    ______ ____
ROOT
ATOM      1  N   UNL     1       6.608   5.479  17.646  0.00  0.00    +0.000 N 
ATOM      2  C   UNL     1       5.539   4.946  18.319  0.00  0.00    +0.000 A 
ATOM      3  C   UNL     1       4.776   4.214  17.432  0.00  0.00    +0.000 A 
ATOM      4  C   UNL     1       5.426   4.314  16.155  0.00  0.00    +0.000 A 
ATOM      5  C   UNL     1       5.146   3.799  14.869  0.00  0.00    +0.000 A 
ATOM      6  C   UNL     1       5.999   4.088  13.799  0.00  0.00    +0.000 A 
ATOM      7  C   UNL     1       7.128   4.875  13.989  0.00  0.00    +0.000 A 
ATOM      8  C   UNL     1       7.438   5.385  15.252  0.00  0.00    +0.000 A 
ATOM      9  C   UNL     1       6.573   5.099  16.320  0.00  0.00    +0.000 A 
ENDROOT
BRANCH   1  10
ATOM     10  C   UNL     1       7.614   6.330  18.263  0.00  0.00    +0.000 C 
BRANCH  10  11
ATOM     11  C   UNL     1       7.677   7.743  17.682  0.00  0.00    +0.000 C 
BRANCH  11  12
ATOM     12  C   UNL     1       8.650   8.649  18.434  0.00  0.00    +0.000 C 
BRANCH  12  13
ATOM     13  C   UNL     1       8.476  10.106  18.023  0.00  0.00    +0.000 C 
BRANCH  13  14
ATOM     14  C   UNL     1       9.014  11.035  19.108  0.00  0.00    +0.000 C 
BRANCH  14  15
ATOM     15  C   UNL     1      10.539  11.090  19.073  0.00  0.00    +0.000 C 
BRANCH  15  17
ATOM     16  C   UNL     1       9.978  12.278  21.212  0.00  0.00    +0.000 C 
ATOM     17  C   UNL     1      11.081  11.933  20.225  0.00  0.00    +0.000 C 
ENDBRANCH  15  17
ENDBRANCH  14  15
ENDBRANCH  13  14
ENDBRANCH  12  13
ENDBRANCH  11  12
ENDBRANCH  10  11
ENDBRANCH   1  10
BRANCH   3  18
ATOM     18  C   UNL     1       3.538   3.432  17.750  0.00  0.00    +0.000 C 
BRANCH  18  19
ATOM     19  N   UNL     1       3.022   3.716  19.111  0.00  0.00    +0.000 NA
ATOM     20  C   UNL     1       1.578   4.008  19.076  0.00  0.00    +0.000 C 
ATOM     21  C   UNL     1       0.965   4.145  20.471  0.00  0.00    +0.000 C 
ATOM     22  C   UNL     1       1.238   2.908  21.314  0.00  0.00    +0.000 C 
ATOM     23  C   UNL     1       2.737   2.665  21.375  0.00  0.00    +0.000 C 
ATOM     24  C   UNL     1       3.331   2.558  19.972  0.00  0.00    +0.000 C 
ENDBRANCH  18  19
ENDBRANCH   3  18
TORSDOF 9
ENDMDL
MODEL 3
REMARK VINA RESULT:      -7.3      2.271      4.452
REMARK  Name = 
REMARK  10 active torsions:
REMARK  status: ('A' for Active; 'I' for Inactive)
REMARK    1  A    between atoms: C_1  and  C_2
REMARK    2  A    between atoms: C_2  and  C_3
REMARK    3  A    between atoms: C_3  and  C_4
REMARK    4  A    between atoms: C_4  and  C_5
REMARK    5  A    between atoms: C_5  and  C_6
REMARK    6  A    between atoms: C_6  and  C_7
REMARK    7  A    between atoms: C_7  and  C_8
REMARK    8  A    between atoms: C_8  and  N_9
REMARK    9  A    between atoms: C_11  and  C_12
REMARK   10  A    between atoms: C_12  and  N_13
REMARK                            x       y       z     vdW  Elec       q    Type
REMARK                         _______ _______ _______ _____ _____    ______ ____
ROOT
ATOM      1  N   UNL     1       4.963   5.406  18.713  0.00  0.00    +0.000 N 
ATOM      2  C   UNL     1       4.427   6.654  18.535  0.00  0.00    +0.000 A 
ATOM      3  C   UNL     1       3.112   6.519  18.137  0.00  0.00    +0.000 A 
ATOM      4  C   UNL     1       2.846   5.110  18.075  0.00  0.00    +0.000 A 
ATOM      5  C   UNL     1       1.709   4.340  17.740  0.00  0.00    +0.000 A 
ATOM      6  C   UNL     1       1.775   2.944  17.777  0.00  0.00    +0.000 A 
ATOM      7  C   UNL     1       2.950   2.301  18.147  0.00  0.00    +0.000 A 
ATOM      8  C   UNL     1       4.085   3.036  18.499  0.00  0.00    +0.000 A 
ATOM      9  C   UNL     1       4.016   4.438  18.451  0.00  0.00    +0.000 A 
ENDROOT
BRANCH   1  10
ATOM     10  C   UNL     1       6.343   5.163  19.110  0.00  0.00    +0.000 C 
BRANCH  10  11
ATOM     11  C   UNL     1       7.376   5.579  18.062  0.00  0.00    +0.000 C 
BRANCH  11  12
ATOM     12  C   UNL     1       7.673   4.472  17.053  0.00  0.00    +0.000 C 
BRANCH  12  13
ATOM     13  C   UNL     1       7.084   4.800  15.686  0.00  0.00    +0.000 C 
BRANCH  13  14
ATOM     14  C   UNL     1       5.899   3.888  15.383  0.00  0.00    +0.000 C 
BRANCH  14  15
ATOM     15  C   UNL     1       5.331   4.173  13.996  0.00  0.00    +0.000 C 
BRANCH  15  17
ATOM     16  C   UNL     1       5.656   2.770  11.940  0.00  0.00    +0.000 C 
ATOM     17  C   UNL     1       6.310   3.743  12.906  0.00  0.00    +0.000 C 
ENDBRANCH  15  17
ENDBRANCH  14  15
ENDBRANCH  13  14
ENDBRANCH  12  13
ENDBRANCH  11  12
ENDBRANCH  10  11
ENDBRANCH   1  10
BRANCH   3  18
ATOM     18  C   UNL     1       2.141   7.629  17.868  0.00  0.00    +0.000 C 
BRANCH  18  19
ATOM     19  N   UNL     1       1.981   8.537  19.029  0.00  0.00    +0.000 NA
ATOM     20  C   UNL     1       1.024   9.617  18.725  0.00  0.00    +0.000 C 
ATOM     21  C   UNL     1       0.699  10.484  19.942  0.00  0.00    +0.000 C 
ATOM     22  C   UNL     1       0.196   9.636  21.101  0.00  0.00    +0.000 C 
ATOM     23  C   UNL     1       1.228   8.568  21.426  0.00  0.00    +0.000 C 
ATOM     24  C   UNL     1       1.555   7.731  20.189  0.00  0.00    +0.000 C 
ENDBRANCH  18  19
ENDBRANCH   3  18
TORSDOF 9
ENDMDL
MODEL 4
REMARK VINA RESULT:      -7.3      2.030      4.331
REMARK  Name = 
REMARK  10 active torsions:
REMARK  status: ('A' for Active; 'I' for Inactive)
REMARK    1  A    between atoms: C_1  and  C_2
REMARK    2  A    between atoms: C_2  and  C_3
REMARK    3  A    between atoms: C_3  and  C_4
REMARK    4  A    between atoms: C_4  and  C_5
REMARK    5  A    between atoms: C_5  and  C_6
REMARK    6  A    between atoms: C_6  and  C_7
REMARK    7  A    between atoms: C_7  and  C_8
REMARK    8  A    between atoms: C_8  and  N_9
REMARK    9  A    between atoms: C_11  and  C_12
REMARK   10  A    between atoms: C_12  and  N_13
REMARK                            x       y       z     vdW  Elec       q    Type
REMARK                         _______ _______ _______ _____ _____    ______ ____
ROOT
ATOM      1  N   UNL     1       3.945   4.345  17.588  0.00  0.00    +0.000 N 
ATOM      2  C   UNL     1       4.098   5.599  18.120  0.00  0.00    +0.000 A 
ATOM      3  C   UNL     1       3.108   5.808  19.057  0.00  0.00    +0.000 A 
ATOM      4  C   UNL     1       2.316   4.610  19.090  0.00  0.00    +0.000 A 
ATOM      5  C   UNL     1       1.180   4.205  19.826  0.00  0.00    +0.000 A 
ATOM      6  C   UNL     1       0.628   2.937  19.619  0.00  0.00    +0.000 A 
ATOM      7  C   UNL     1       1.191   2.064  18.697  0.00  0.00    +0.000 A 
ATOM      8  C   UNL     1       2.324   2.431  17.966  0.00  0.00    +0.000 A 
ATOM      9  C   UNL     1       2.868   3.709  18.171  0.00  0.00    +0.000 A 
ENDROOT
BRANCH   1  10
ATOM     10  C   UNL     1       4.800   3.792  16.548  0.00  0.00    +0.000 C 
BRANCH  10  11
ATOM     11  C   UNL     1       5.400   4.841  15.611  0.00  0.00    +0.000 C 
BRANCH  11  12
ATOM     12  C   UNL     1       6.266   4.225  14.513  0.00  0.00    +0.000 C 
BRANCH  12  13
ATOM     13  C   UNL     1       5.496   4.113  13.202  0.00  0.00    +0.000 C 
BRANCH  13  14
ATOM     14  C   UNL     1       6.114   3.040  12.310  0.00  0.00    +0.000 C 
BRANCH  14  15
ATOM     15  C   UNL     1       5.135   2.600  11.226  0.00  0.00    +0.000 C 
BRANCH  15  17
ATOM     16  C   UNL     1       3.247   3.701   9.992  0.00  0.00    +0.000 C 
ATOM     17  C   UNL     1       3.806   3.340  11.358  0.00  0.00    +0.000 C 
ENDBRANCH  15  17
ENDBRANCH  14  15
ENDBRANCH  13  14
ENDBRANCH  12  13
ENDBRANCH  11  12
ENDBRANCH  10  11
ENDBRANCH   1  10
BRANCH   3  18
ATOM     18  C   UNL     1       2.924   7.029  19.907  0.00  0.00    +0.000 C 
BRANCH  18  19
ATOM     19  N   UNL     1       1.725   7.813  19.522  0.00  0.00    +0.000 NA
ATOM     20  C   UNL     1       1.281   8.674  20.633  0.00  0.00    +0.000 C 
ATOM     21  C   UNL     1       0.150   9.624  20.233  0.00  0.00    +0.000 C 
ATOM     22  C   UNL     1       0.541  10.466  19.028  0.00  0.00    +0.000 C 
ATOM     23  C   UNL     1       0.941   9.548  17.884  0.00  0.00    +0.000 C 
ATOM     24  C   UNL     1       2.054   8.593  18.314  0.00  0.00    +0.000 C 
ENDBRANCH  18  19
ENDBRANCH   3  18
TORSDOF 9
ENDMDL
MODEL 5
REMARK VINA RESULT:      -7.2      2.370      6.188
REMARK  Name = 
REMARK  10 active torsions:
REMARK  status: ('A' for Active; 'I' for Inactive)
REMARK    1  A    between atoms: C_1  and  C_2
REMARK    2  A    between atoms: C_2  and  C_3
REMARK    3  A    between atoms: C_3  and  C_4
REMARK    4  A    between atoms: C_4  and  C_5
REMARK    5  A    between atoms: C_5  and  C_6
REMARK    6  A    between atoms: C_6  and  C_7
REMARK    7  A    between atoms: C_7  and  C_8
REMARK    8  A    between atoms: C_8  and  N_9
REMARK    9  A    between atoms: C_11  and  C_12
REMARK   10  A    between atoms: C_12  and  N_13
REMARK                            x       y       z     vdW  Elec       q    Type
REMARK                         _______ _______ _______ _____ _____    ______ ____
ROOT
ATOM      1  N   UNL     1       2.147   6.592  19.865  0.00  0.00    +0.000 N 
ATOM      2  C   UNL     1       3.122   6.179  18.996  0.00  0.00    +0.000 A 
ATOM      3  C   UNL     1       3.347   7.180  18.073  0.00  0.00    +0.000 A 
ATOM      4  C   UNL     1       2.456   8.254  18.410  0.00  0.00    +0.000 A 
ATOM      5  C   UNL     1       2.208   9.531  17.859  0.00  0.00    +0.000 A 
ATOM      6  C   UNL     1       1.244  10.366  18.435  0.00  0.00    +0.000 A 
ATOM      7  C   UNL     1       0.530   9.953  19.552  0.00  0.00    +0.000 A 
ATOM      8  C   UNL     1       0.765   8.702  20.128  0.00  0.00    +0.000 A 
ATOM      9  C   UNL     1       1.727   7.865  19.540  0.00  0.00    +0.000 A 
ENDROOT
BRANCH   1  10
ATOM     10  C   UNL     1       1.635   5.779  20.960  0.00  0.00    +0.000 C 
BRANCH  10  11
ATOM     11  C   UNL     1       2.458   4.521  21.240  0.00  0.00    +0.000 C 
BRANCH  11  12
ATOM     12  C   UNL     1       1.652   3.236  21.059  0.00  0.00    +0.000 C 
BRANCH  12  13
ATOM     13  C   UNL     1       0.653   3.369  19.915  0.00  0.00    +0.000 C 
BRANCH  13  14
ATOM     14  C   UNL     1       1.079   2.505  18.732  0.00  0.00    +0.000 C 
BRANCH  14  15
ATOM     15  C   UNL     1       1.880   3.320  17.721  0.00  0.00    +0.000 C 
BRANCH  15  17
ATOM     16  C   UNL     1       3.485   1.524  18.428  0.00  0.00    +0.000 C 
ATOM     17  C   UNL     1       3.285   2.746  17.548  0.00  0.00    +0.000 C 
ENDBRANCH  15  17
ENDBRANCH  14  15
ENDBRANCH  13  14
ENDBRANCH  12  13
ENDBRANCH  11  12
ENDBRANCH  10  11
ENDBRANCH   1  10
BRANCH   3  18
ATOM     18  C   UNL     1       4.357   7.164  16.965  0.00  0.00    +0.000 C 
BRANCH  18  19
ATOM     19  N   UNL     1       5.032   5.851  16.831  0.00  0.00    +0.000 NA
ATOM     20  C   UNL     1       5.114   5.444  15.417  0.00  0.00    +0.000 C 
ATOM     21  C   UNL     1       5.947   4.177  15.210  0.00  0.00    +0.000 C 
ATOM     22  C   UNL     1       7.340   4.334  15.802  0.00  0.00    +0.000 C 
ATOM     23  C   UNL     1       7.221   4.700  17.273  0.00  0.00    +0.000 C 
ATOM     24  C   UNL     1       6.365   5.952  17.456  0.00  0.00    +0.000 C 
ENDBRANCH  18  19
ENDBRANCH   3  18
TORSDOF 9
ENDMDL
MODEL 6
REMARK VINA RESULT:      -7.2      4.102      6.681
REMARK  Name = 
REMARK  10 active torsions:
REMARK  status: ('A' for Active; 'I' for Inactive)
REMARK    1  A    between atoms: C_1  and  C_2
REMARK    2  A    between atoms: C_2  and  C_3
REMARK    3  A    between atoms: C_3  and  C_4
REMARK    4  A    between atoms: C_4  and  C_5
REMARK    5  A    between atoms: C_5  and  C_6
REMARK    6  A    between atoms: C_6  and  C_7
REMARK    7  A    between atoms: C_7  and  C_8
REMARK    8  A    between atoms: C_8  and  N_9
REMARK    9  A    between atoms: C_11  and  C_12
REMARK   10  A    between atoms: C_12  and  N_13
REMARK                            x       y       z     vdW  Elec       q    Type
REMARK                         _______ _______ _______ _____ _____    ______ ____
ROOT
ATOM      1  N   UNL     1       6.556   6.263  17.661  0.00  0.00    +0.000 N 
ATOM      2  C   UNL     1       5.350   6.259  18.312  0.00  0.00    +0.000 A 
ATOM      3  C   UNL     1       4.432   5.574  17.542  0.00  0.00    +0.000 A 
ATOM      4  C   UNL     1       5.128   5.141  16.364  0.00  0.00    +0.000 A 
ATOM      5  C   UNL     1       4.752   4.410  15.215  0.00  0.00    +0.000 A 
ATOM      6  C   UNL     1       5.692   4.147  14.214  0.00  0.00    +0.000 A 
ATOM      7  C   UNL     1       7.001   4.593  14.340  0.00  0.00    +0.000 A 
ATOM      8  C   UNL     1       7.407   5.305  15.472  0.00  0.00    +0.000 A 
ATOM      9  C   UNL     1       6.456   5.574  16.469  0.00  0.00    +0.000 A 
ENDROOT
BRANCH   1  10
ATOM     10  C   UNL     1       7.753   6.916  18.169  0.00  0.00    +0.000 C 
BRANCH  10  11
ATOM     11  C   UNL     1       7.925   8.360  17.694  0.00  0.00    +0.000 C 
BRANCH  11  12
ATOM     12  C   UNL     1       8.718   9.215  18.680  0.00  0.00    +0.000 C 
BRANCH  12  13
ATOM     13  C   UNL     1       8.971  10.610  18.119  0.00  0.00    +0.000 C 
BRANCH  13  14
ATOM     14  C   UNL     1      10.259  11.192  18.695  0.00  0.00    +0.000 C 
BRANCH  14  15
ATOM     15  C   UNL     1      10.886  12.193  17.729  0.00  0.00    +0.000 C 
BRANCH  15  17
ATOM     16  C   UNL     1      11.385  13.393  19.876  0.00  0.00    +0.000 C 
ATOM     17  C   UNL     1      11.072  13.553  18.398  0.00  0.00    +0.000 C 
ENDBRANCH  15  17
ENDBRANCH  14  15
ENDBRANCH  13  14
ENDBRANCH  12  13
ENDBRANCH  11  12
ENDBRANCH  10  11
ENDBRANCH   1  10
BRANCH   3  18
ATOM     18  C   UNL     1       3.001   5.298  17.892  0.00  0.00    +0.000 C 
BRANCH  18  19
ATOM     19  N   UNL     1       2.864   4.289  18.970  0.00  0.00    +0.000 NA
ATOM     20  C   UNL     1       2.458   4.924  20.236  0.00  0.00    +0.000 C 
ATOM     21  C   UNL     1       2.143   3.909  21.336  0.00  0.00    +0.000 C 
ATOM     22  C   UNL     1       1.090   2.911  20.878  0.00  0.00    +0.000 C 
ATOM     23  C   UNL     1       1.563   2.235  19.601  0.00  0.00    +0.000 C 
ATOM     24  C   UNL     1       1.895   3.269  18.526  0.00  0.00    +0.000 C 
ENDBRANCH  18  19
ENDBRANCH   3  18
TORSDOF 9
ENDMDL
MODEL 7
REMARK VINA RESULT:      -7.2      4.008      6.513
REMARK  Name = 
REMARK  10 active torsions:
REMARK  status: ('A' for Active; 'I' for Inactive)
REMARK    1  A    between atoms: C_1  and  C_2
REMARK    2  A    between atoms: C_2  and  C_3
REMARK    3  A    between atoms: C_3  and  C_4
REMARK    4  A    between atoms: C_4  and  C_5
REMARK    5  A    between atoms: C_5  and  C_6
REMARK    6  A    between atoms: C_6  and  C_7
REMARK    7  A    between atoms: C_7  and  C_8
REMARK    8  A    between atoms: C_8  and  N_9
REMARK    9  A    between atoms: C_11  and  C_12
REMARK   10  A    between atoms: C_12  and  N_13
REMARK                            x       y       z     vdW  Elec       q    Type
REMARK                         _______ _______ _______ _____ _____    ______ ____
ROOT
ATOM      1  N   UNL     1       7.076   5.979  18.174  0.00  0.00    +0.000 N 
ATOM      2  C   UNL     1       6.394   5.355  19.185  0.00  0.00    +0.000 A 
ATOM      3  C   UNL     1       5.603   4.363  18.641  0.00  0.00    +0.000 A 
ATOM      4  C   UNL     1       5.825   4.395  17.223  0.00  0.00    +0.000 A 
ATOM      5  C   UNL     1       5.322   3.648  16.135  0.00  0.00    +0.000 A 
ATOM      6  C   UNL     1       5.747   3.934  14.834  0.00  0.00    +0.000 A 
ATOM      7  C   UNL     1       6.669   4.946  14.599  0.00  0.00    +0.000 A 
ATOM      8  C   UNL     1       7.196   5.691  15.657  0.00  0.00    +0.000 A 
ATOM      9  C   UNL     1       6.758   5.406  16.960  0.00  0.00    +0.000 A 
ENDROOT
BRANCH   1  10
ATOM     10  C   UNL     1       7.989   7.094  18.376  0.00  0.00    +0.000 C 
BRANCH  10  11
ATOM     11  C   UNL     1       7.474   8.429  17.837  0.00  0.00    +0.000 C 
BRANCH  11  12
ATOM     12  C   UNL     1       8.577   9.477  17.701  0.00  0.00    +0.000 C 
BRANCH  12  13
ATOM     13  C   UNL     1       8.968  10.045  19.061  0.00  0.00    +0.000 C 
BRANCH  13  14
ATOM     14  C   UNL     1      10.122  11.032  18.915  0.00  0.00    +0.000 C 
BRANCH  14  15
ATOM     15  C   UNL     1       9.820  12.071  17.840  0.00  0.00    +0.000 C 
BRANCH  15  17
ATOM     16  C   UNL     1      11.900  13.279  18.556  0.00  0.00    +0.000 C 
ATOM     17  C   UNL     1      11.100  12.762  17.373  0.00  0.00    +0.000 C 
ENDBRANCH  15  17
ENDBRANCH  14  15
ENDBRANCH  13  14
ENDBRANCH  12  13
ENDBRANCH  11  12
ENDBRANCH  10  11
ENDBRANCH   1  10
BRANCH   3  18
ATOM     18  C   UNL     1       4.721   3.411  19.391  0.00  0.00    +0.000 C 
BRANCH  18  19
ATOM     19  N   UNL     1       3.280   3.715  19.217  0.00  0.00    +0.000 NA
ATOM     20  C   UNL     1       2.550   2.536  18.718  0.00  0.00    +0.000 C 
ATOM     21  C   UNL     1       1.035   2.748  18.679  0.00  0.00    +0.000 C 
ATOM     22  C   UNL     1       0.504   3.168  20.041  0.00  0.00    +0.000 C 
ATOM     23  C   UNL     1       1.239   4.416  20.502  0.00  0.00    +0.000 C 
ATOM     24  C   UNL     1       2.750   4.190  20.509  0.00  0.00    +0.000 C 
ENDBRANCH  18  19
ENDBRANCH   3  18
TORSDOF 9
ENDMDL
MODEL 8
REMARK VINA RESULT:      -7.2      2.181      4.518
REMARK  Name = 
REMARK  10 active torsions:
REMARK  status: ('A' for Active; 'I' for Inactive)
REMARK    1  A    between atoms: C_1  and  C_2
REMARK    2  A    between atoms: C_2  and  C_3
REMARK    3  A    between atoms: C_3  and  C_4
REMARK    4  A    between atoms: C_4  and  C_5
REMARK    5  A    between atoms: C_5  and  C_6
REMARK    6  A    between atoms: C_6  and  C_7
REMARK    7  A    between atoms: C_7  and  C_8
REMARK    8  A    between atoms: C_8  and  N_9
REMARK    9  A    between atoms: C_11  and  C_12
REMARK   10  A    between atoms: C_12  and  N_13
REMARK                            x       y       z     vdW  Elec       q    Type
REMARK                         _______ _______ _______ _____ _____    ______ ____
ROOT
ATOM      1  N   UNL     1       4.421   4.632  18.814  0.00  0.00    +0.000 N 
ATOM      2  C   UNL     1       4.014   5.777  19.448  0.00  0.00    +0.000 A 
ATOM      3  C   UNL     1       2.682   5.648  19.785  0.00  0.00    +0.000 A 
ATOM      4  C   UNL     1       2.269   4.351  19.328  0.00  0.00    +0.000 A 
ATOM      5  C   UNL     1       1.049   3.639  19.371  0.00  0.00    +0.000 A 
ATOM      6  C   UNL     1       0.968   2.357  18.819  0.00  0.00    +0.000 A 
ATOM      7  C   UNL     1       2.082   1.769  18.232  0.00  0.00    +0.000 A 
ATOM      8  C   UNL     1       3.305   2.443  18.189  0.00  0.00    +0.000 A 
ATOM      9  C   UNL     1       3.377   3.734  18.736  0.00  0.00    +0.000 A 
ENDROOT
BRANCH   1  10
ATOM     10  C   UNL     1       5.765   4.424  18.295  0.00  0.00    +0.000 C 
BRANCH  10  11
ATOM     11  C   UNL     1       5.963   4.914  16.860  0.00  0.00    +0.000 C 
BRANCH  11  12
ATOM     12  C   UNL     1       5.686   3.827  15.822  0.00  0.00    +0.000 C 
BRANCH  12  13
ATOM     13  C   UNL     1       5.547   4.422  14.426  0.00  0.00    +0.000 C 
BRANCH  13  14
ATOM     14  C   UNL     1       6.896   4.427  13.712  0.00  0.00    +0.000 C 
BRANCH  14  15
ATOM     15  C   UNL     1       6.756   3.925  12.278  0.00  0.00    +0.000 C 
BRANCH  15  17
ATOM     16  C   UNL     1       5.802   1.778  11.397  0.00  0.00    +0.000 C 
ATOM     17  C   UNL     1       5.494   3.081  12.115  0.00  0.00    +0.000 C 
ENDBRANCH  15  17
ENDBRANCH  14  15
ENDBRANCH  13  14
ENDBRANCH  12  13
ENDBRANCH  11  12
ENDBRANCH  10  11
ENDBRANCH   1  10
BRANCH   3  18
ATOM     18  C   UNL     1       1.846   6.648  20.525  0.00  0.00    +0.000 C 
BRANCH  18  19
ATOM     19  N   UNL     1       1.967   8.015  19.963  0.00  0.00    +0.000 NA
ATOM     20  C   UNL     1       1.834   7.994  18.495  0.00  0.00    +0.000 C 
ATOM     21  C   UNL     1       1.786   9.395  17.882  0.00  0.00    +0.000 C 
ATOM     22  C   UNL     1       0.678  10.230  18.507  0.00  0.00    +0.000 C 
ATOM     23  C   UNL     1       0.874  10.277  20.014  0.00  0.00    +0.000 C 
ATOM     24  C   UNL     1       0.944   8.867  20.599  0.00  0.00    +0.000 C 
ENDBRANCH  18  19
ENDBRANCH   3  18
TORSDOF 9
ENDMDL
MODEL 9
REMARK VINA RESULT:      -7.1      1.093      1.605
REMARK  Name = 
REMARK  10 active torsions:
REMARK  status: ('A' for Active; 'I' for Inactive)
REMARK    1  A    between atoms: C_1  and  C_2
REMARK    2  A    between atoms: C_2  and  C_3
REMARK    3  A    between atoms: C_3  and  C_4
REMARK    4  A    between atoms: C_4  and  C_5
REMARK    5  A    between atoms: C_5  and  C_6
REMARK    6  A    between atoms: C_6  and  C_7
REMARK    7  A    between atoms: C_7  and  C_8
REMARK    8  A    between atoms: C_8  and  N_9
REMARK    9  A    between atoms: C_11  and  C_12
REMARK   10  A    between atoms: C_12  and  N_13
REMARK                            x       y       z     vdW  Elec       q    Type
REMARK                         _______ _______ _______ _____ _____    ______ ____
ROOT
ATOM      1  N   UNL     1       5.387   5.373  17.092  0.00  0.00    +0.000 N 
ATOM      2  C   UNL     1       5.620   4.257  17.853  0.00  0.00    +0.000 A 
ATOM      3  C   UNL     1       4.785   4.286  18.951  0.00  0.00    +0.000 A 
ATOM      4  C   UNL     1       4.006   5.487  18.841  0.00  0.00    +0.000 A 
ATOM      5  C   UNL     1       2.996   6.077  19.634  0.00  0.00    +0.000 A 
ATOM      6  C   UNL     1       2.419   7.290  19.243  0.00  0.00    +0.000 A 
ATOM      7  C   UNL     1       2.827   7.921  18.075  0.00  0.00    +0.000 A 
ATOM      8  C   UNL     1       3.812   7.354  17.263  0.00  0.00    +0.000 A 
ATOM      9  C   UNL     1       4.394   6.141  17.665  0.00  0.00    +0.000 A 
ENDROOT
BRANCH   1  10
ATOM     10  C   UNL     1       6.106   5.686  15.867  0.00  0.00    +0.000 C 
BRANCH  10  11
ATOM     11  C   UNL     1       5.462   5.117  14.602  0.00  0.00    +0.000 C 
BRANCH  11  12
ATOM     12  C   UNL     1       6.139   3.835  14.121  0.00  0.00    +0.000 C 
BRANCH  12  13
ATOM     13  C   UNL     1       6.358   3.861  12.612  0.00  0.00    +0.000 C 
BRANCH  13  14
ATOM     14  C   UNL     1       6.238   2.456  12.031  0.00  0.00    +0.000 C 
BRANCH  14  15
ATOM     15  C   UNL     1       4.954   2.308  11.220  0.00  0.00    +0.000 C 
BRANCH  15  17
ATOM     16  C   UNL     1       3.096   3.568  10.097  0.00  0.00    +0.000 C 
ATOM     17  C   UNL     1       4.211   3.639  11.126  0.00  0.00    +0.000 C 
ENDBRANCH  15  17
ENDBRANCH  14  15
ENDBRANCH  13  14
ENDBRANCH  12  13
ENDBRANCH  11  12
ENDBRANCH  10  11
ENDBRANCH   1  10
BRANCH   3  18
ATOM     18  C   UNL     1       4.680   3.243  20.023  0.00  0.00    +0.000 C 
BRANCH  18  19
ATOM     19  N   UNL     1       3.336   2.619  20.079  0.00  0.00    +0.000 NA
ATOM     20  C   UNL     1       2.494   3.273  21.096  0.00  0.00    +0.000 C 
ATOM     21  C   UNL     1       1.047   2.776  21.079  0.00  0.00    +0.000 C 
ATOM     22  C   UNL     1       0.431   2.929  19.697  0.00  0.00    +0.000 C 
ATOM     23  C   UNL     1       1.293   2.199  18.680  0.00  0.00    +0.000 C 
ATOM     24  C   UNL     1       2.738   2.693  18.733  0.00  0.00    +0.000 C 
ENDBRANCH  18  19
ENDBRANCH   3  18
TORSDOF 9
ENDMDL
