MODEL 1
REMARK VINA RESULT:      -7.4      0.000      0.000
REMARK  Name = 
REMARK  4 active torsions:
REMARK  status: ('A' for Active; 'I' for Inactive)
REMARK    1  A    between atoms: C_1  and  N_2
REMARK    2  A    between atoms: N_2  and  C_3
REMARK    3  A    between atoms: C_4  and  C_6
REMARK    4  A    between atoms: C_17  and  C_18
REMARK                            x       y       z     vdW  Elec       q    Type
REMARK                         _______ _______ _______ _____ _____    ______ ____
ROOT
ATOM      1  C   UNL     1      -3.842  13.869  22.779  0.00  0.00    +0.000 A 
ATOM      2  C   UNL     1      -3.428  15.157  23.194  0.00  0.00    +0.000 A 
ATOM      3  N   UNL     1      -2.445  15.667  22.454  0.00  0.00    +0.000 NA
ATOM      4  N   UNL     1      -2.211  14.715  21.526  0.00  0.00    +0.000 N 
ATOM      5  C   UNL     1      -1.188  14.684  20.587  0.00  0.00    +0.000 A 
ATOM      6  C   UNL     1      -1.079  13.658  19.737  0.00  0.00    +0.000 A 
ATOM      7  C   UNL     1      -2.168  12.625  19.782  0.00  0.00    +0.000 A 
ATOM      8  N   UNL     1      -2.195  11.594  18.867  0.00  0.00    +0.000 N 
ATOM      9  C   UNL     1      -3.372  11.374  18.036  0.00  0.00    +0.000 C 
ATOM     10  C   UNL     1      -3.135   9.992  17.457  0.00  0.00    +0.000 C 
ATOM     11  C   UNL     1      -1.630   9.975  17.218  0.00  0.00    +0.000 C 
ATOM     12  C   UNL     1      -1.038  10.874  18.326  0.00  0.00    +0.000 C 
ATOM     13  N   UNL     1      -3.141  12.669  20.667  0.00  0.00    +0.000 NA
ATOM     14  C   UNL     1      -3.125  13.657  21.609  0.00  0.00    +0.000 A 
ENDROOT
BRANCH  12  15
ATOM     15  C   UNL     1      -0.313  10.051  19.368  0.00  0.00    +0.000 A 
ATOM     16  C   UNL     1      -0.853   9.766  20.632  0.00  0.00    +0.000 A 
ATOM     17  C   UNL     1      -0.159   8.953  21.526  0.00  0.00    +0.000 A 
ATOM     18  F   UNL     1      -0.688   8.701  22.731  0.00  0.00    +0.000 F 
ATOM     19  C   UNL     1       1.067   8.392  21.188  0.00  0.00    +0.000 A 
ATOM     20  C   UNL     1       1.617   8.661  19.937  0.00  0.00    +0.000 A 
ATOM     21  C   UNL     1       0.929   9.484  19.046  0.00  0.00    +0.000 A 
ATOM     22  F   UNL     1       1.473   9.722  17.843  0.00  0.00    +0.000 F 
ENDBRANCH  12  15
BRANCH   1  26
ATOM     23  C   UNL     1      -7.137  12.352  23.874  0.00  0.00    +0.000 C 
ATOM     24  N   UNL     1      -6.207  13.229  23.183  0.00  0.00    +0.000 N 
ATOM     25  C   UNL     1      -6.765  14.129  22.190  0.00  0.00    +0.000 C 
ATOM     26  C   UNL     1      -4.845  13.070  23.466  0.00  0.00    +0.000 C 
ATOM     27  O   UNL     1      -4.473  12.183  24.238  0.00  0.00    +0.000 OA
ENDBRANCH   1  26
TORSDOF 2
ENDMDL
MODEL 2
REMARK VINA RESULT:      -7.0      1.368      1.628
REMARK  Name = 
REMARK  4 active torsions:
REMARK  status: ('A' for Active; 'I' for Inactive)
REMARK    1  A    between atoms: C_1  and  N_2
REMARK    2  A    between atoms: N_2  and  C_3
REMARK    3  A    between atoms: C_4  and  C_6
REMARK    4  A    between atoms: C_17  and  C_18
REMARK                            x       y       z     vdW  Elec       q    Type
REMARK                         _______ _______ _______ _____ _____    ______ ____
ROOT
ATOM      1  C   UNL     1      -2.634  14.685  22.196  0.00  0.00    +0.000 A 
ATOM      2  C   UNL     1      -2.009  15.947  22.342  0.00  0.00    +0.000 A 
ATOM      3  N   UNL     1      -1.092  16.201  21.409  0.00  0.00    +0.000 NA
ATOM      4  N   UNL     1      -1.117  15.102  20.624  0.00  0.00    +0.000 N 
ATOM      5  C   UNL     1      -0.256  14.792  19.578  0.00  0.00    +0.000 A 
ATOM      6  C   UNL     1      -0.400  13.651  18.898  0.00  0.00    +0.000 A 
ATOM      7  C   UNL     1      -1.587  12.801  19.249  0.00  0.00    +0.000 A 
ATOM      8  N   UNL     1      -1.876  11.665  18.523  0.00  0.00    +0.000 N 
ATOM      9  C   UNL     1      -3.181  11.499  17.896  0.00  0.00    +0.000 C 
ATOM     10  C   UNL     1      -3.203  10.029  17.522  0.00  0.00    +0.000 C 
ATOM     11  C   UNL     1      -1.764   9.763  17.097  0.00  0.00    +0.000 C 
ATOM     12  C   UNL     1      -0.908  10.717  17.961  0.00  0.00    +0.000 C 
ATOM     13  N   UNL     1      -2.406  13.109  20.232  0.00  0.00    +0.000 NA
ATOM     14  C   UNL     1      -2.130  14.209  20.993  0.00  0.00    +0.000 A 
ENDROOT
BRANCH  12  15
ATOM     15  C   UNL     1      -0.142   9.955  19.020  0.00  0.00    +0.000 A 
ATOM     16  C   UNL     1      -0.617   9.773  20.328  0.00  0.00    +0.000 A 
ATOM     17  C   UNL     1       0.110   9.012  21.241  0.00  0.00    +0.000 A 
ATOM     18  F   UNL     1      -0.357   8.858  22.487  0.00  0.00    +0.000 F 
ATOM     19  C   UNL     1       1.306   8.403  20.880  0.00  0.00    +0.000 A 
ATOM     20  C   UNL     1       1.792   8.570  19.585  0.00  0.00    +0.000 A 
ATOM     21  C   UNL     1       1.071   9.341  18.675  0.00  0.00    +0.000 A 
ATOM     22  F   UNL     1       1.553   9.481  17.431  0.00  0.00    +0.000 F 
ENDBRANCH  12  15
BRANCH   1  26
ATOM     23  C   UNL     1      -4.451  12.423  24.632  0.00  0.00    +0.000 C 
ATOM     24  N   UNL     1      -3.457  12.864  23.669  0.00  0.00    +0.000 N 
ATOM     25  C   UNL     1      -2.336  11.973  23.426  0.00  0.00    +0.000 C 
ATOM     26  C   UNL     1      -3.613  14.145  23.126  0.00  0.00    +0.000 C 
ATOM     27  O   UNL     1      -4.539  14.868  23.502  0.00  0.00    +0.000 OA
ENDBRANCH   1  26
TORSDOF 2
ENDMDL
MODEL 3
REMARK VINA RESULT:      -6.9      3.219      6.410
REMARK  Name = 
REMARK  4 active torsions:
REMARK  status: ('A' for Active; 'I' for Inactive)
REMARK    1  A    between atoms: C_1  and  N_2
REMARK    2  A    between atoms: N_2  and  C_3
REMARK    3  A    between atoms: C_4  and  C_6
REMARK    4  A    between atoms: C_17  and  C_18
REMARK                            x       y       z     vdW  Elec       q    Type
REMARK                         _______ _______ _______ _____ _____    ______ ____
ROOT
ATOM      1  C   UNL     1      -0.760  12.323  22.033  0.00  0.00    +0.000 A 
ATOM      2  C   UNL     1       0.247  13.273  21.741  0.00  0.00    +0.000 A 
ATOM      3  N   UNL     1      -0.224  14.493  21.491  0.00  0.00    +0.000 NA
ATOM      4  N   UNL     1      -1.561  14.359  21.633  0.00  0.00    +0.000 N 
ATOM      5  C   UNL     1      -2.539  15.303  21.349  0.00  0.00    +0.000 A 
ATOM      6  C   UNL     1      -3.832  15.015  21.529  0.00  0.00    +0.000 A 
ATOM      7  C   UNL     1      -4.147  13.683  22.148  0.00  0.00    +0.000 A 
ATOM      8  N   UNL     1      -5.444  13.350  22.473  0.00  0.00    +0.000 N 
ATOM      9  C   UNL     1      -5.789  12.960  23.835  0.00  0.00    +0.000 C 
ATOM     10  C   UNL     1      -7.173  12.358  23.683  0.00  0.00    +0.000 C 
ATOM     11  C   UNL     1      -7.816  13.242  22.621  0.00  0.00    +0.000 C 
ATOM     12  C   UNL     1      -6.651  13.686  21.710  0.00  0.00    +0.000 C 
ATOM     13  N   UNL     1      -3.212  12.800  22.426  0.00  0.00    +0.000 NA
ATOM     14  C   UNL     1      -1.920  13.083  22.086  0.00  0.00    +0.000 A 
ENDROOT
BRANCH  12  15
ATOM     15  C   UNL     1      -6.713  12.994  20.366  0.00  0.00    +0.000 A 
ATOM     16  C   UNL     1      -6.893  11.610  20.224  0.00  0.00    +0.000 A 
ATOM     17  C   UNL     1      -7.000  11.041  18.957  0.00  0.00    +0.000 A 
ATOM     18  F   UNL     1      -7.163   9.715  18.843  0.00  0.00    +0.000 F 
ATOM     19  C   UNL     1      -6.951  11.823  17.809  0.00  0.00    +0.000 A 
ATOM     20  C   UNL     1      -6.776  13.200  17.930  0.00  0.00    +0.000 A 
ATOM     21  C   UNL     1      -6.657  13.768  19.198  0.00  0.00    +0.000 A 
ATOM     22  F   UNL     1      -6.498  15.097  19.291  0.00  0.00    +0.000 F 
ENDBRANCH  12  15
BRANCH   1  26
ATOM     23  C   UNL     1      -0.127   8.622  21.521  0.00  0.00    +0.000 C 
ATOM     24  N   UNL     1      -0.436  10.005  21.202  0.00  0.00    +0.000 N 
ATOM     25  C   UNL     1      -0.550  10.346  19.795  0.00  0.00    +0.000 C 
ATOM     26  C   UNL     1      -0.509  10.909  22.269  0.00  0.00    +0.000 C 
ATOM     27  O   UNL     1      -0.269  10.531  23.418  0.00  0.00    +0.000 OA
ENDBRANCH   1  26
TORSDOF 2
ENDMDL
MODEL 4
REMARK VINA RESULT:      -6.8      3.638      4.694
REMARK  Name = 
REMARK  4 active torsions:
REMARK  status: ('A' for Active; 'I' for Inactive)
REMARK    1  A    between atoms: C_1  and  N_2
REMARK    2  A    between atoms: N_2  and  C_3
REMARK    3  A    between atoms: C_4  and  C_6
REMARK    4  A    between atoms: C_17  and  C_18
REMARK                            x       y       z     vdW  Elec       q    Type
REMARK                         _______ _______ _______ _____ _____    ______ ____
ROOT
ATOM      1  C   UNL     1       1.183  16.297  19.778  0.00  0.00    +0.000 A 
ATOM      2  C   UNL     1       2.473  16.807  19.496  0.00  0.00    +0.000 A 
ATOM      3  N   UNL     1       3.285  15.919  18.925  0.00  0.00    +0.000 NA
ATOM      4  N   UNL     1       2.523  14.810  18.810  0.00  0.00    +0.000 N 
ATOM      5  C   UNL     1       2.929  13.546  18.401  0.00  0.00    +0.000 A 
ATOM      6  C   UNL     1       2.053  12.536  18.352  0.00  0.00    +0.000 A 
ATOM      7  C   UNL     1       0.619  12.871  18.649  0.00  0.00    +0.000 A 
ATOM      8  N   UNL     1      -0.366  11.917  18.513  0.00  0.00    +0.000 N 
ATOM      9  C   UNL     1      -1.515  12.159  17.649  0.00  0.00    +0.000 C 
ATOM     10  C   UNL     1      -2.486  11.063  18.048  0.00  0.00    +0.000 C 
ATOM     11  C   UNL     1      -1.570   9.874  18.313  0.00  0.00    +0.000 C 
ATOM     12  C   UNL     1      -0.255  10.491  18.838  0.00  0.00    +0.000 C 
ATOM     13  N   UNL     1       0.243  14.075  19.024  0.00  0.00    +0.000 NA
ATOM     14  C   UNL     1       1.198  15.034  19.202  0.00  0.00    +0.000 A 
ENDROOT
BRANCH  12  15
ATOM     15  C   UNL     1      -0.083  10.233  20.319  0.00  0.00    +0.000 A 
ATOM     16  C   UNL     1      -0.850  10.877  21.303  0.00  0.00    +0.000 A 
ATOM     17  C   UNL     1      -0.683  10.553  22.648  0.00  0.00    +0.000 A 
ATOM     18  F   UNL     1      -1.419  11.185  23.572  0.00  0.00    +0.000 F 
ATOM     19  C   UNL     1       0.225   9.579  23.047  0.00  0.00    +0.000 A 
ATOM     20  C   UNL     1       0.992   8.927  22.084  0.00  0.00    +0.000 A 
ATOM     21  C   UNL     1       0.835   9.260  20.740  0.00  0.00    +0.000 A 
ATOM     22  F   UNL     1       1.578   8.613  19.829  0.00  0.00    +0.000 F 
ENDBRANCH  12  15
BRANCH   1  26
ATOM     23  C   UNL     1      -1.115  17.687  22.451  0.00  0.00    +0.000 C 
ATOM     24  N   UNL     1      -0.092  16.861  21.833  0.00  0.00    +0.000 N 
ATOM     25  C   UNL     1       0.664  15.984  22.709  0.00  0.00    +0.000 C 
ATOM     26  C   UNL     1       0.140  17.044  20.465  0.00  0.00    +0.000 C 
ATOM     27  O   UNL     1      -0.478  17.911  19.843  0.00  0.00    +0.000 OA
ENDBRANCH   1  26
TORSDOF 2
ENDMDL
MODEL 5
REMARK VINA RESULT:      -6.7      4.289      7.022
REMARK  Name = 
REMARK  4 active torsions:
REMARK  status: ('A' for Active; 'I' for Inactive)
REMARK    1  A    between atoms: C_1  and  N_2
REMARK    2  A    between atoms: N_2  and  C_3
REMARK    3  A    between atoms: C_4  and  C_6
REMARK    4  A    between atoms: C_17  and  C_18
REMARK                            x       y       z     vdW  Elec       q    Type
REMARK                         _______ _______ _______ _____ _____    ______ ____
ROOT
ATOM      1  C   UNL     1       0.125  11.250  20.944  0.00  0.00    +0.000 A 
ATOM      2  C   UNL     1       0.177  10.069  20.166  0.00  0.00    +0.000 A 
ATOM      3  N   UNL     1       0.963  10.168  19.095  0.00  0.00    +0.000 NA
ATOM      4  N   UNL     1       1.453  11.424  19.169  0.00  0.00    +0.000 N 
ATOM      5  C   UNL     1       2.221  12.087  18.220  0.00  0.00    +0.000 A 
ATOM      6  C   UNL     1       2.621  13.345  18.432  0.00  0.00    +0.000 A 
ATOM      7  C   UNL     1       2.296  13.941  19.772  0.00  0.00    +0.000 A 
ATOM      8  N   UNL     1       2.767  15.190  20.117  0.00  0.00    +0.000 N 
ATOM      9  C   UNL     1       3.559  15.372  21.327  0.00  0.00    +0.000 C 
ATOM     10  C   UNL     1       3.567  16.878  21.513  0.00  0.00    +0.000 C 
ATOM     11  C   UNL     1       3.650  17.399  20.083  0.00  0.00    +0.000 C 
ATOM     12  C   UNL     1       2.902  16.350  19.231  0.00  0.00    +0.000 C 
ATOM     13  N   UNL     1       1.578  13.300  20.669  0.00  0.00    +0.000 NA
ATOM     14  C   UNL     1       1.067  12.076  20.347  0.00  0.00    +0.000 A 
ENDROOT
BRANCH  12  15
ATOM     15  C   UNL     1       1.571  16.885  18.749  0.00  0.00    +0.000 A 
ATOM     16  C   UNL     1       0.398  16.827  19.518  0.00  0.00    +0.000 A 
ATOM     17  C   UNL     1      -0.784  17.390  19.041  0.00  0.00    +0.000 A 
ATOM     18  F   UNL     1      -1.895  17.315  19.788  0.00  0.00    +0.000 F 
ATOM     19  C   UNL     1      -0.830  18.035  17.811  0.00  0.00    +0.000 A 
ATOM     20  C   UNL     1       0.325  18.106  17.036  0.00  0.00    +0.000 A 
ATOM     21  C   UNL     1       1.505  17.532  17.507  0.00  0.00    +0.000 A 
ATOM     22  F   UNL     1       2.607  17.620  16.747  0.00  0.00    +0.000 F 
ENDBRANCH  12  15
BRANCH   1  26
ATOM     23  C   UNL     1      -2.751  12.156  23.239  0.00  0.00    +0.000 C 
ATOM     24  N   UNL     1      -1.949  12.078  22.030  0.00  0.00    +0.000 N 
ATOM     25  C   UNL     1      -2.539  12.610  20.814  0.00  0.00    +0.000 C 
ATOM     26  C   UNL     1      -0.717  11.420  22.119  0.00  0.00    +0.000 C 
ATOM     27  O   UNL     1      -0.371  10.893  23.179  0.00  0.00    +0.000 OA
ENDBRANCH   1  26
TORSDOF 2
ENDMDL
MODEL 6
REMARK VINA RESULT:      -6.6      1.171      1.381
REMARK  Name = 
REMARK  4 active torsions:
REMARK  status: ('A' for Active; 'I' for Inactive)
REMARK    1  A    between atoms: C_1  and  N_2
REMARK    2  A    between atoms: N_2  and  C_3
REMARK    3  A    between atoms: C_4  and  C_6
REMARK    4  A    between atoms: C_17  and  C_18
REMARK                            x       y       z     vdW  Elec       q    Type
REMARK                         _______ _______ _______ _____ _____    ______ ____
ROOT
ATOM      1  C   UNL     1      -4.186  14.688  21.970  0.00  0.00    +0.000 A 
ATOM      2  C   UNL     1      -3.815  16.026  22.244  0.00  0.00    +0.000 A 
ATOM      3  N   UNL     1      -2.683  16.400  21.650  0.00  0.00    +0.000 NA
ATOM      4  N   UNL     1      -2.302  15.303  20.960  0.00  0.00    +0.000 N 
ATOM      5  C   UNL     1      -1.110  15.110  20.273  0.00  0.00    +0.000 A 
ATOM      6  C   UNL     1      -0.870  13.954  19.646  0.00  0.00    +0.000 A 
ATOM      7  C   UNL     1      -1.985  12.947  19.634  0.00  0.00    +0.000 A 
ATOM      8  N   UNL     1      -1.865  11.777  18.916  0.00  0.00    +0.000 N 
ATOM      9  C   UNL     1      -2.855  11.424  17.906  0.00  0.00    +0.000 C 
ATOM     10  C   UNL     1      -2.559   9.963  17.626  0.00  0.00    +0.000 C 
ATOM     11  C   UNL     1      -1.039   9.899  17.710  0.00  0.00    +0.000 C 
ATOM     12  C   UNL     1      -0.651  10.970  18.754  0.00  0.00    +0.000 C 
ATOM     13  N   UNL     1      -3.116  13.145  20.277  0.00  0.00    +0.000 NA
ATOM     14  C   UNL     1      -3.254  14.278  21.026  0.00  0.00    +0.000 A 
ENDROOT
BRANCH  12  15
ATOM     15  C   UNL     1      -0.187  10.333  20.045  0.00  0.00    +0.000 A 
ATOM     16  C   UNL     1      -0.815  10.556  21.279  0.00  0.00    +0.000 A 
ATOM     17  C   UNL     1      -0.375   9.894  22.423  0.00  0.00    +0.000 A 
ATOM     18  F   UNL     1      -0.984  10.128  23.594  0.00  0.00    +0.000 F 
ATOM     19  C   UNL     1       0.678   8.987  22.371  0.00  0.00    +0.000 A 
ATOM     20  C   UNL     1       1.312   8.751  21.153  0.00  0.00    +0.000 A 
ATOM     21  C   UNL     1       0.879   9.422  20.011  0.00  0.00    +0.000 A 
ATOM     22  F   UNL     1       1.499   9.172  18.848  0.00  0.00    +0.000 F 
ENDBRANCH  12  15
BRANCH   1  26
ATOM     23  C   UNL     1      -6.398  12.566  24.197  0.00  0.00    +0.000 C 
ATOM     24  N   UNL     1      -5.189  13.146  23.637  0.00  0.00    +0.000 N 
ATOM     25  C   UNL     1      -3.939  12.837  24.309  0.00  0.00    +0.000 C 
ATOM     26  C   UNL     1      -5.339  14.022  22.556  0.00  0.00    +0.000 C 
ATOM     27  O   UNL     1      -6.465  14.311  22.145  0.00  0.00    +0.000 OA
ENDBRANCH   1  26
TORSDOF 2
ENDMDL
MODEL 7
REMARK VINA RESULT:      -6.6      2.478      4.918
REMARK  Name = 
REMARK  4 active torsions:
REMARK  status: ('A' for Active; 'I' for Inactive)
REMARK    1  A    between atoms: C_1  and  N_2
REMARK    2  A    between atoms: N_2  and  C_3
REMARK    3  A    between atoms: C_4  and  C_6
REMARK    4  A    between atoms: C_17  and  C_18
REMARK                            x       y       z     vdW  Elec       q    Type
REMARK                         _______ _______ _______ _____ _____    ______ ____
ROOT
ATOM      1  C   UNL     1      -5.413  12.189  18.686  0.00  0.00    +0.000 A 
ATOM      2  C   UNL     1      -6.680  12.104  19.310  0.00  0.00    +0.000 A 
ATOM      3  N   UNL     1      -6.638  12.271  20.632  0.00  0.00    +0.000 NA
ATOM      4  N   UNL     1      -5.330  12.485  20.889  0.00  0.00    +0.000 N 
ATOM      5  C   UNL     1      -4.719  12.582  22.133  0.00  0.00    +0.000 A 
ATOM      6  C   UNL     1      -3.401  12.783  22.227  0.00  0.00    +0.000 A 
ATOM      7  C   UNL     1      -2.658  13.004  20.940  0.00  0.00    +0.000 A 
ATOM      8  N   UNL     1      -1.319  13.329  20.950  0.00  0.00    +0.000 N 
ATOM      9  C   UNL     1      -0.846  14.538  20.287  0.00  0.00    +0.000 C 
ATOM     10  C   UNL     1       0.657  14.338  20.231  0.00  0.00    +0.000 C 
ATOM     11  C   UNL     1       0.960  13.648  21.556  0.00  0.00    +0.000 C 
ATOM     12  C   UNL     1      -0.300  12.811  21.869  0.00  0.00    +0.000 C 
ATOM     13  N   UNL     1      -3.248  12.923  19.766  0.00  0.00    +0.000 NA
ATOM     14  C   UNL     1      -4.566  12.569  19.718  0.00  0.00    +0.000 A 
ENDROOT
BRANCH  12  15
ATOM     15  C   UNL     1      -0.033  11.333  21.684  0.00  0.00    +0.000 A 
ATOM     16  C   UNL     1       0.720  10.817  20.618  0.00  0.00    +0.000 A 
ATOM     17  C   UNL     1       0.979   9.450  20.537  0.00  0.00    +0.000 A 
ATOM     18  F   UNL     1       1.692   8.977  19.506  0.00  0.00    +0.000 F 
ATOM     19  C   UNL     1       0.518   8.570  21.509  0.00  0.00    +0.000 A 
ATOM     20  C   UNL     1      -0.228   9.065  22.576  0.00  0.00    +0.000 A 
ATOM     21  C   UNL     1      -0.498  10.430  22.652  0.00  0.00    +0.000 A 
ATOM     22  F   UNL     1      -1.211  10.885  23.693  0.00  0.00    +0.000 F 
ENDBRANCH  12  15
BRANCH   1  26
ATOM     23  C   UNL     1      -4.157  10.802  15.391  0.00  0.00    +0.000 C 
ATOM     24  N   UNL     1      -4.285  10.993  16.826  0.00  0.00    +0.000 N 
ATOM     25  C   UNL     1      -3.537  10.085  17.679  0.00  0.00    +0.000 C 
ATOM     26  C   UNL     1      -5.184  11.971  17.266  0.00  0.00    +0.000 C 
ATOM     27  O   UNL     1      -5.863  12.599  16.450  0.00  0.00    +0.000 OA
ENDBRANCH   1  26
TORSDOF 2
ENDMDL
MODEL 8
REMARK VINA RESULT:      -6.5      8.579     10.562
REMARK  Name = 
REMARK  4 active torsions:
REMARK  status: ('A' for Active; 'I' for Inactive)
REMARK    1  A    between atoms: C_1  and  N_2
REMARK    2  A    between atoms: N_2  and  C_3
REMARK    3  A    between atoms: C_4  and  C_6
REMARK    4  A    between atoms: C_17  and  C_18
REMARK                            x       y       z     vdW  Elec       q    Type
REMARK                         _______ _______ _______ _____ _____    ______ ____
ROOT
ATOM      1  C   UNL     1       4.285  15.938  21.214  0.00  0.00    +0.000 A 
ATOM      2  C   UNL     1       3.480  15.563  22.315  0.00  0.00    +0.000 A 
ATOM      3  N   UNL     1       4.145  14.909  23.267  0.00  0.00    +0.000 NA
ATOM      4  N   UNL     1       5.412  14.862  22.802  0.00  0.00    +0.000 N 
ATOM      5  C   UNL     1       6.486  14.171  23.348  0.00  0.00    +0.000 A 
ATOM      6  C   UNL     1       7.686  14.210  22.760  0.00  0.00    +0.000 A 
ATOM      7  C   UNL     1       7.825  15.115  21.569  0.00  0.00    +0.000 A 
ATOM      8  N   UNL     1       9.052  15.302  20.970  0.00  0.00    +0.000 N 
ATOM      9  C   UNL     1       9.604  16.643  20.817  0.00  0.00    +0.000 C 
ATOM     10  C   UNL     1      10.743  16.440  19.836  0.00  0.00    +0.000 C 
ATOM     11  C   UNL     1      11.307  15.085  20.243  0.00  0.00    +0.000 C 
ATOM     12  C   UNL     1      10.095  14.290  20.776  0.00  0.00    +0.000 C 
ATOM     13  N   UNL     1       6.804  15.776  21.067  0.00  0.00    +0.000 NA
ATOM     14  C   UNL     1       5.568  15.587  21.614  0.00  0.00    +0.000 A 
ENDROOT
BRANCH  12  15
ATOM     15  C   UNL     1       9.688  13.199  19.809  0.00  0.00    +0.000 A 
ATOM     16  C   UNL     1       8.850  13.425  18.707  0.00  0.00    +0.000 A 
ATOM     17  C   UNL     1       8.559  12.391  17.820  0.00  0.00    +0.000 A 
ATOM     18  F   UNL     1       7.749  12.626  16.779  0.00  0.00    +0.000 F 
ATOM     19  C   UNL     1       9.101  11.122  17.991  0.00  0.00    +0.000 A 
ATOM     20  C   UNL     1       9.938  10.880  19.077  0.00  0.00    +0.000 A 
ATOM     21  C   UNL     1      10.220  11.911  19.972  0.00  0.00    +0.000 A 
ATOM     22  F   UNL     1      11.036  11.657  21.006  0.00  0.00    +0.000 F 
ENDBRANCH  12  15
BRANCH   1  26
ATOM     23  C   UNL     1       2.878  16.580  17.755  0.00  0.00    +0.000 C 
ATOM     24  N   UNL     1       3.423  15.851  18.887  0.00  0.00    +0.000 N 
ATOM     25  C   UNL     1       3.461  14.403  18.780  0.00  0.00    +0.000 C 
ATOM     26  C   UNL     1       3.782  16.594  20.017  0.00  0.00    +0.000 C 
ATOM     27  O   UNL     1       3.588  17.812  20.044  0.00  0.00    +0.000 OA
ENDBRANCH   1  26
TORSDOF 2
ENDMDL
MODEL 9
REMARK VINA RESULT:      -6.5      2.244      3.829
REMARK  Name = 
REMARK  4 active torsions:
REMARK  status: ('A' for Active; 'I' for Inactive)
REMARK    1  A    between atoms: C_1  and  N_2
REMARK    2  A    between atoms: N_2  and  C_3
REMARK    3  A    between atoms: C_4  and  C_6
REMARK    4  A    between atoms: C_17  and  C_18
REMARK                            x       y       z     vdW  Elec       q    Type
REMARK                         _______ _______ _______ _____ _____    ______ ____
ROOT
ATOM      1  C   UNL     1      -4.760  13.746  22.898  0.00  0.00    +0.000 A 
ATOM      2  C   UNL     1      -5.039  13.077  24.113  0.00  0.00    +0.000 A 
ATOM      3  N   UNL     1      -4.084  12.226  24.487  0.00  0.00    +0.000 NA
ATOM      4  N   UNL     1      -3.151  12.341  23.516  0.00  0.00    +0.000 N 
ATOM      5  C   UNL     1      -2.007  11.570  23.350  0.00  0.00    +0.000 A 
ATOM      6  C   UNL     1      -1.182  11.797  22.323  0.00  0.00    +0.000 A 
ATOM      7  C   UNL     1      -1.497  12.978  21.451  0.00  0.00    +0.000 A 
ATOM      8  N   UNL     1      -0.639  13.352  20.439  0.00  0.00    +0.000 N 
ATOM      9  C   UNL     1      -0.099  14.705  20.390  0.00  0.00    +0.000 C 
ATOM     10  C   UNL     1       0.482  14.796  18.992  0.00  0.00    +0.000 C 
ATOM     11  C   UNL     1       1.053  13.401  18.767  0.00  0.00    +0.000 C 
ATOM     12  C   UNL     1       0.130  12.457  19.568  0.00  0.00    +0.000 C 
ATOM     13  N   UNL     1      -2.576  13.711  21.625  0.00  0.00    +0.000 NA
ATOM     14  C   UNL     1      -3.465  13.348  22.595  0.00  0.00    +0.000 A 
ENDROOT
BRANCH  12  15
ATOM     15  C   UNL     1      -0.743  11.634  18.647  0.00  0.00    +0.000 A 
ATOM     16  C   UNL     1      -1.932  12.120  18.082  0.00  0.00    +0.000 A 
ATOM     17  C   UNL     1      -2.662  11.332  17.193  0.00  0.00    +0.000 A 
ATOM     18  F   UNL     1      -3.799  11.812  16.672  0.00  0.00    +0.000 F 
ATOM     19  C   UNL     1      -2.228  10.062  16.832  0.00  0.00    +0.000 A 
ATOM     20  C   UNL     1      -1.048   9.565  17.380  0.00  0.00    +0.000 A 
ATOM     21  C   UNL     1      -0.324  10.348  18.278  0.00  0.00    +0.000 A 
ATOM     22  F   UNL     1       0.814   9.851  18.787  0.00  0.00    +0.000 F 
ENDBRANCH  12  15
BRANCH   1  26
ATOM     23  C   UNL     1      -6.513  16.899  21.738  0.00  0.00    +0.000 C 
ATOM     24  N   UNL     1      -5.598  16.045  22.475  0.00  0.00    +0.000 N 
ATOM     25  C   UNL     1      -4.619  16.706  23.321  0.00  0.00    +0.000 C 
ATOM     26  C   UNL     1      -5.676  14.667  22.242  0.00  0.00    +0.000 C 
ATOM     27  O   UNL     1      -6.465  14.225  21.404  0.00  0.00    +0.000 OA
ENDBRANCH   1  26
TORSDOF 2
ENDMDL
