MODEL 1
REMARK VINA RESULT:      -7.4      0.000      0.000
REMARK  Name = 
REMARK  5 active torsions:
REMARK  status: ('A' for Active; 'I' for Inactive)
REMARK    1  A    between atoms: C_1  and  C_2
REMARK    2  A    between atoms: C_8  and  C_9
REMARK    3  A    between atoms: C_9  and  C_10
REMARK    4  A    between atoms: C_11  and  C_12
REMARK    5  A    between atoms: N_26  and  C_27
REMARK                            x       y       z     vdW  Elec       q    Type
REMARK                         _______ _______ _______ _____ _____    ______ ____
ROOT
ATOM      1  C   UNL     1      -0.319  11.786  20.251  0.00  0.00    +0.000 A 
ATOM      2  C   UNL     1      -1.540  12.474  20.182  0.00  0.00    +0.000 A 
ATOM      3  C   UNL     1      -2.332  11.793  19.209  0.00  0.00    +0.000 A 
ATOM      4  C   UNL     1      -3.568  12.085  18.589  0.00  0.00    +0.000 A 
ATOM      5  C   UNL     1      -4.189  11.161  17.753  0.00  0.00    +0.000 A 
ATOM      6  C   UNL     1      -3.558   9.964  17.468  0.00  0.00    +0.000 A 
ATOM      7  C   UNL     1      -2.294   9.680  17.993  0.00  0.00    +0.000 A 
ATOM      8  C   UNL     1      -1.662  10.624  18.838  0.00  0.00    +0.000 A 
ATOM      9  N   UNL     1      -0.403  10.636  19.444  0.00  0.00    +0.000 N 
ENDROOT
BRANCH   2  10
ATOM     10  C   UNL     1      -1.841  13.764  20.849  0.00  0.00    +0.000 C 
ATOM     11  O   UNL     1      -1.602  14.824  20.271  0.00  0.00    +0.000 OA
ATOM     12  N   UNL     1      -2.463  13.768  22.101  0.00  0.00    +0.000 N 
ATOM     13  C   UNL     1      -3.018  15.026  22.598  0.00  0.00    +0.000 C 
ATOM     14  C   UNL     1      -4.396  14.765  23.226  0.00  0.00    +0.000 C 
ATOM     15  N   UNL     1      -4.332  13.802  24.341  0.00  0.00    +0.000 NA
ATOM     16  C   UNL     1      -3.664  12.554  23.928  0.00  0.00    +0.000 C 
ATOM     17  C   UNL     1      -2.330  12.753  23.158  0.00  0.00    +0.000 C 
ATOM     18  H   UNL     1      -5.282  13.587  24.645  0.00  0.00    +0.000 HD
ENDBRANCH   2  10
BRANCH   9  19
ATOM     19  C   UNL     1       0.653   9.689  19.195  0.00  0.00    +0.000 A 
ATOM     20  C   UNL     1       1.017   8.748  20.168  0.00  0.00    +0.000 A 
ATOM     21  C   UNL     1       1.994   7.782  19.901  0.00  0.00    +0.000 A 
ATOM     22  C   UNL     1       2.604   7.726  18.651  0.00  0.00    +0.000 A 
ATOM     23  C   UNL     1       2.265   8.658  17.679  0.00  0.00    +0.000 A 
ATOM     24  C   UNL     1       1.319   9.643  17.960  0.00  0.00    +0.000 A 
ENDBRANCH   9  19
BRANCH   1  25
ATOM     25  C   UNL     1       0.969  12.259  20.873  0.00  0.00    +0.000 C 
BRANCH  25  33
ATOM     26  C   UNL     1       1.475  15.219  22.028  0.00  0.00    +0.000 C 
ATOM     27  C   UNL     1       1.954  14.708  20.698  0.00  0.00    +0.000 A 
ATOM     28  C   UNL     1       2.697  15.603  19.905  0.00  0.00    +0.000 A 
ATOM     29  F   UNL     1       2.859  16.874  20.304  0.00  0.00    +0.000 F 
ATOM     30  C   UNL     1       3.301  15.219  18.712  0.00  0.00    +0.000 A 
ATOM     31  C   UNL     1       3.179  13.912  18.278  0.00  0.00    +0.000 A 
ATOM     32  C   UNL     1       2.415  13.015  19.022  0.00  0.00    +0.000 A 
ATOM     33  C   UNL     1       1.770  13.387  20.231  0.00  0.00    +0.000 A 
ENDBRANCH  25  33
ENDBRANCH   1  25
TORSDOF 4
ENDMDL
MODEL 2
REMARK VINA RESULT:      -7.3      0.655      1.369
REMARK  Name = 
REMARK  5 active torsions:
REMARK  status: ('A' for Active; 'I' for Inactive)
REMARK    1  A    between atoms: C_1  and  C_2
REMARK    2  A    between atoms: C_8  and  C_9
REMARK    3  A    between atoms: C_9  and  C_10
REMARK    4  A    between atoms: C_11  and  C_12
REMARK    5  A    between atoms: N_26  and  C_27
REMARK                            x       y       z     vdW  Elec       q    Type
REMARK                         _______ _______ _______ _____ _____    ______ ____
ROOT
ATOM      1  C   UNL     1      -0.297  11.702  20.286  0.00  0.00    +0.000 A 
ATOM      2  C   UNL     1      -1.498  12.420  20.186  0.00  0.00    +0.000 A 
ATOM      3  C   UNL     1      -2.266  11.781  19.165  0.00  0.00    +0.000 A 
ATOM      4  C   UNL     1      -3.468  12.117  18.504  0.00  0.00    +0.000 A 
ATOM      5  C   UNL     1      -4.075  11.229  17.621  0.00  0.00    +0.000 A 
ATOM      6  C   UNL     1      -3.460  10.024  17.331  0.00  0.00    +0.000 A 
ATOM      7  C   UNL     1      -2.226   9.698  17.899  0.00  0.00    +0.000 A 
ATOM      8  C   UNL     1      -1.608  10.606  18.792  0.00  0.00    +0.000 A 
ATOM      9  N   UNL     1      -0.374  10.574  19.448  0.00  0.00    +0.000 N 
ENDROOT
BRANCH   2  10
ATOM     10  C   UNL     1      -1.797  13.700  20.873  0.00  0.00    +0.000 C 
ATOM     11  O   UNL     1      -1.559  14.768  20.311  0.00  0.00    +0.000 OA
ATOM     12  N   UNL     1      -2.416  13.685  22.127  0.00  0.00    +0.000 N 
ATOM     13  C   UNL     1      -2.970  14.936  22.643  0.00  0.00    +0.000 C 
ATOM     14  C   UNL     1      -4.346  14.666  23.270  0.00  0.00    +0.000 C 
ATOM     15  N   UNL     1      -4.281  13.687  24.371  0.00  0.00    +0.000 NA
ATOM     16  C   UNL     1      -3.614  12.444  23.938  0.00  0.00    +0.000 C 
ATOM     17  C   UNL     1      -2.281  12.655  23.168  0.00  0.00    +0.000 C 
ATOM     18  H   UNL     1      -5.230  13.468  24.674  0.00  0.00    +0.000 HD
ENDBRANCH   2  10
BRANCH   9  19
ATOM     19  C   UNL     1       0.669   9.609  19.218  0.00  0.00    +0.000 A 
ATOM     20  C   UNL     1       1.043   8.702  20.219  0.00  0.00    +0.000 A 
ATOM     21  C   UNL     1       2.007   7.718  19.973  0.00  0.00    +0.000 A 
ATOM     22  C   UNL     1       2.595   7.609  18.716  0.00  0.00    +0.000 A 
ATOM     23  C   UNL     1       2.247   8.506  17.715  0.00  0.00    +0.000 A 
ATOM     24  C   UNL     1       1.314   9.510  17.975  0.00  0.00    +0.000 A 
ENDBRANCH   9  19
BRANCH   1  25
ATOM     25  C   UNL     1       0.975  12.129  20.972  0.00  0.00    +0.000 C 
BRANCH  25  33
ATOM     26  C   UNL     1       2.367  12.760  18.140  0.00  0.00    +0.000 C 
ATOM     27  C   UNL     1       2.354  13.678  19.330  0.00  0.00    +0.000 A 
ATOM     28  C   UNL     1       2.997  14.922  19.178  0.00  0.00    +0.000 A 
ATOM     29  F   UNL     1       3.666  15.195  18.047  0.00  0.00    +0.000 F 
ATOM     30  C   UNL     1       2.953  15.909  20.156  0.00  0.00    +0.000 A 
ATOM     31  C   UNL     1       2.252  15.677  21.326  0.00  0.00    +0.000 A 
ATOM     32  C   UNL     1       1.642  14.439  21.521  0.00  0.00    +0.000 A 
ATOM     33  C   UNL     1       1.691  13.407  20.547  0.00  0.00    +0.000 A 
ENDBRANCH  25  33
ENDBRANCH   1  25
TORSDOF 4
ENDMDL
MODEL 3
REMARK VINA RESULT:      -7.2      2.770      5.940
REMARK  Name = 
REMARK  5 active torsions:
REMARK  status: ('A' for Active; 'I' for Inactive)
REMARK    1  A    between atoms: C_1  and  C_2
REMARK    2  A    between atoms: C_8  and  C_9
REMARK    3  A    between atoms: C_9  and  C_10
REMARK    4  A    between atoms: C_11  and  C_12
REMARK    5  A    between atoms: N_26  and  C_27
REMARK                            x       y       z     vdW  Elec       q    Type
REMARK                         _______ _______ _______ _____ _____    ______ ____
ROOT
ATOM      1  C   UNL     1      -1.971  13.452  22.164  0.00  0.00    +0.000 A 
ATOM      2  C   UNL     1      -2.804  13.688  23.268  0.00  0.00    +0.000 A 
ATOM      3  C   UNL     1      -2.174  14.714  24.037  0.00  0.00    +0.000 A 
ATOM      4  C   UNL     1      -2.431  15.264  25.312  0.00  0.00    +0.000 A 
ATOM      5  C   UNL     1      -1.722  16.370  25.774  0.00  0.00    +0.000 A 
ATOM      6  C   UNL     1      -0.703  16.901  25.003  0.00  0.00    +0.000 A 
ATOM      7  C   UNL     1      -0.364  16.326  23.775  0.00  0.00    +0.000 A 
ATOM      8  C   UNL     1      -1.082  15.197  23.311  0.00  0.00    +0.000 A 
ATOM      9  N   UNL     1      -0.927  14.395  22.177  0.00  0.00    +0.000 N 
ENDROOT
BRANCH   2  10
ATOM     10  C   UNL     1      -3.989  12.879  23.642  0.00  0.00    +0.000 C 
ATOM     11  O   UNL     1      -3.850  11.865  24.325  0.00  0.00    +0.000 OA
ATOM     12  N   UNL     1      -5.267  13.313  23.277  0.00  0.00    +0.000 N 
ATOM     13  C   UNL     1      -6.424  12.675  23.905  0.00  0.00    +0.000 C 
ATOM     14  C   UNL     1      -7.454  13.748  24.289  0.00  0.00    +0.000 C 
ATOM     15  N   UNL     1      -7.916  14.526  23.125  0.00  0.00    +0.000 NA
ATOM     16  C   UNL     1      -6.777  15.092  22.378  0.00  0.00    +0.000 C 
ATOM     17  C   UNL     1      -5.630  14.087  22.080  0.00  0.00    +0.000 C 
ATOM     18  H   UNL     1      -8.511  15.288  23.453  0.00  0.00    +0.000 HD
ENDBRANCH   2  10
BRANCH   9  19
ATOM     19  C   UNL     1       0.173  14.464  21.250  0.00  0.00    +0.000 A 
ATOM     20  C   UNL     1       1.409  13.877  21.558  0.00  0.00    +0.000 A 
ATOM     21  C   UNL     1       2.456  13.882  20.630  0.00  0.00    +0.000 A 
ATOM     22  C   UNL     1       2.278  14.451  19.372  0.00  0.00    +0.000 A 
ATOM     23  C   UNL     1       1.065  15.048  19.054  0.00  0.00    +0.000 A 
ATOM     24  C   UNL     1       0.036  15.075  19.994  0.00  0.00    +0.000 A 
ENDBRANCH   9  19
BRANCH   1  25
ATOM     25  C   UNL     1      -2.001  12.275  21.224  0.00  0.00    +0.000 C 
BRANCH  25  33
ATOM     26  C   UNL     1      -0.001  11.156  18.966  0.00  0.00    +0.000 C 
ATOM     27  C   UNL     1      -0.131  10.613  20.361  0.00  0.00    +0.000 A 
ATOM     28  C   UNL     1       0.705   9.533  20.703  0.00  0.00    +0.000 A 
ATOM     29  F   UNL     1       1.492   8.976  19.770  0.00  0.00    +0.000 F 
ATOM     30  C   UNL     1       0.771   9.019  21.993  0.00  0.00    +0.000 A 
ATOM     31  C   UNL     1      -0.006   9.582  22.990  0.00  0.00    +0.000 A 
ATOM     32  C   UNL     1      -0.874  10.625  22.671  0.00  0.00    +0.000 A 
ATOM     33  C   UNL     1      -0.976  11.153  21.357  0.00  0.00    +0.000 A 
ENDBRANCH  25  33
ENDBRANCH   1  25
TORSDOF 4
ENDMDL
MODEL 4
REMARK VINA RESULT:      -7.2      3.062      6.660
REMARK  Name = 
REMARK  5 active torsions:
REMARK  status: ('A' for Active; 'I' for Inactive)
REMARK    1  A    between atoms: C_1  and  C_2
REMARK    2  A    between atoms: C_8  and  C_9
REMARK    3  A    between atoms: C_9  and  C_10
REMARK    4  A    between atoms: C_11  and  C_12
REMARK    5  A    between atoms: N_26  and  C_27
REMARK                            x       y       z     vdW  Elec       q    Type
REMARK                         _______ _______ _______ _____ _____    ______ ____
ROOT
ATOM      1  C   UNL     1      -2.884  12.354  20.100  0.00  0.00    +0.000 A 
ATOM      2  C   UNL     1      -1.826  11.873  19.315  0.00  0.00    +0.000 A 
ATOM      3  C   UNL     1      -2.411  11.373  18.113  0.00  0.00    +0.000 A 
ATOM      4  C   UNL     1      -1.902  10.634  17.022  0.00  0.00    +0.000 A 
ATOM      5  C   UNL     1      -2.680  10.387  15.894  0.00  0.00    +0.000 A 
ATOM      6  C   UNL     1      -3.997  10.811  15.865  0.00  0.00    +0.000 A 
ATOM      7  C   UNL     1      -4.560  11.467  16.963  0.00  0.00    +0.000 A 
ATOM      8  C   UNL     1      -3.767  11.711  18.111  0.00  0.00    +0.000 A 
ATOM      9  N   UNL     1      -4.073  12.278  19.352  0.00  0.00    +0.000 N 
ENDROOT
BRANCH   2  10
ATOM     10  C   UNL     1      -0.417  11.738  19.758  0.00  0.00    +0.000 C 
ATOM     11  O   UNL     1      -0.003  10.654  20.166  0.00  0.00    +0.000 OA
ATOM     12  N   UNL     1       0.454  12.826  19.638  0.00  0.00    +0.000 N 
ATOM     13  C   UNL     1       1.888  12.588  19.791  0.00  0.00    +0.000 C 
ATOM     14  C   UNL     1       2.654  13.367  18.710  0.00  0.00    +0.000 C 
ATOM     15  N   UNL     1       2.404  14.818  18.779  0.00  0.00    +0.000 NA
ATOM     16  C   UNL     1       0.959  15.110  18.755  0.00  0.00    +0.000 C 
ATOM     17  C   UNL     1       0.105  14.252  19.728  0.00  0.00    +0.000 C 
ATOM     18  H   UNL     1       2.848  15.267  17.977  0.00  0.00    +0.000 HD
ENDBRANCH   2  10
BRANCH   9  19
ATOM     19  C   UNL     1      -5.395  12.621  19.810  0.00  0.00    +0.000 A 
ATOM     20  C   UNL     1      -6.190  11.678  20.476  0.00  0.00    +0.000 A 
ATOM     21  C   UNL     1      -7.446  12.029  20.983  0.00  0.00    +0.000 A 
ATOM     22  C   UNL     1      -7.916  13.334  20.855  0.00  0.00    +0.000 A 
ATOM     23  C   UNL     1      -7.147  14.278  20.187  0.00  0.00    +0.000 A 
ATOM     24  C   UNL     1      -5.913  13.915  19.650  0.00  0.00    +0.000 A 
ENDBRANCH   9  19
BRANCH   1  25
ATOM     25  C   UNL     1      -2.861  12.692  21.569  0.00  0.00    +0.000 C 
BRANCH  25  33
ATOM     26  C   UNL     1      -5.126  12.984  23.835  0.00  0.00    +0.000 C 
ATOM     27  C   UNL     1      -4.545  14.114  23.032  0.00  0.00    +0.000 A 
ATOM     28  C   UNL     1      -5.031  15.406  23.311  0.00  0.00    +0.000 A 
ATOM     29  F   UNL     1      -6.037  15.568  24.184  0.00  0.00    +0.000 F 
ATOM     30  C   UNL     1      -4.492  16.548  22.728  0.00  0.00    +0.000 A 
ATOM     31  C   UNL     1      -3.437  16.426  21.841  0.00  0.00    +0.000 A 
ATOM     32  C   UNL     1      -2.964  15.156  21.514  0.00  0.00    +0.000 A 
ATOM     33  C   UNL     1      -3.511  13.973  22.079  0.00  0.00    +0.000 A 
ENDBRANCH  25  33
ENDBRANCH   1  25
TORSDOF 4
ENDMDL
MODEL 5
REMARK VINA RESULT:      -7.2      2.918      4.663
REMARK  Name = 
REMARK  5 active torsions:
REMARK  status: ('A' for Active; 'I' for Inactive)
REMARK    1  A    between atoms: C_1  and  C_2
REMARK    2  A    between atoms: C_8  and  C_9
REMARK    3  A    between atoms: C_9  and  C_10
REMARK    4  A    between atoms: C_11  and  C_12
REMARK    5  A    between atoms: N_26  and  C_27
REMARK                            x       y       z     vdW  Elec       q    Type
REMARK                         _______ _______ _______ _____ _____    ______ ____
ROOT
ATOM      1  C   UNL     1      -2.567  12.273  19.660  0.00  0.00    +0.000 A 
ATOM      2  C   UNL     1      -3.118  13.077  20.668  0.00  0.00    +0.000 A 
ATOM      3  C   UNL     1      -4.487  13.281  20.319  0.00  0.00    +0.000 A 
ATOM      4  C   UNL     1      -5.505  14.111  20.837  0.00  0.00    +0.000 A 
ATOM      5  C   UNL     1      -6.817  14.013  20.379  0.00  0.00    +0.000 A 
ATOM      6  C   UNL     1      -7.119  13.135  19.353  0.00  0.00    +0.000 A 
ATOM      7  C   UNL     1      -6.118  12.362  18.757  0.00  0.00    +0.000 A 
ATOM      8  C   UNL     1      -4.785  12.470  19.221  0.00  0.00    +0.000 A 
ATOM      9  N   UNL     1      -3.596  11.879  18.784  0.00  0.00    +0.000 N 
ENDROOT
BRANCH   2  10
ATOM     10  C   UNL     1      -2.356  13.735  21.758  0.00  0.00    +0.000 C 
ATOM     11  O   UNL     1      -1.480  14.555  21.485  0.00  0.00    +0.000 OA
ATOM     12  N   UNL     1      -2.689  13.475  23.091  0.00  0.00    +0.000 N 
ATOM     13  C   UNL     1      -2.141  14.349  24.127  0.00  0.00    +0.000 C 
ATOM     14  C   UNL     1      -3.239  14.680  25.150  0.00  0.00    +0.000 C 
ATOM     15  N   UNL     1      -3.792  13.474  25.792  0.00  0.00    +0.000 NA
ATOM     16  C   UNL     1      -4.248  12.497  24.784  0.00  0.00    +0.000 C 
ATOM     17  C   UNL     1      -3.236  12.224  23.638  0.00  0.00    +0.000 C 
ATOM     18  H   UNL     1      -4.584  13.745  26.375  0.00  0.00    +0.000 HD
ENDBRANCH   2  10
BRANCH   9  19
ATOM     19  C   UNL     1      -3.444  11.095  17.586  0.00  0.00    +0.000 A 
ATOM     20  C   UNL     1      -3.923  11.565  16.355  0.00  0.00    +0.000 A 
ATOM     21  C   UNL     1      -3.714  10.836  15.179  0.00  0.00    +0.000 A 
ATOM     22  C   UNL     1      -3.002   9.640  15.209  0.00  0.00    +0.000 A 
ATOM     23  C   UNL     1      -2.531   9.153  16.421  0.00  0.00    +0.000 A 
ATOM     24  C   UNL     1      -2.774   9.862  17.598  0.00  0.00    +0.000 A 
ENDBRANCH   9  19
BRANCH   1  25
ATOM     25  C   UNL     1      -1.108  12.025  19.375  0.00  0.00    +0.000 C 
BRANCH  25  33
ATOM     26  C   UNL     1       0.926   9.882  18.101  0.00  0.00    +0.000 C 
ATOM     27  C   UNL     1       0.493   9.926  19.539  0.00  0.00    +0.000 A 
ATOM     28  C   UNL     1       1.040   8.950  20.396  0.00  0.00    +0.000 A 
ATOM     29  F   UNL     1       1.823   7.983  19.894  0.00  0.00    +0.000 F 
ATOM     30  C   UNL     1       0.818   8.954  21.769  0.00  0.00    +0.000 A 
ATOM     31  C   UNL     1       0.036   9.949  22.329  0.00  0.00    +0.000 A 
ATOM     32  C   UNL     1      -0.551  10.903  21.500  0.00  0.00    +0.000 A 
ATOM     33  C   UNL     1      -0.359  10.908  20.093  0.00  0.00    +0.000 A 
ENDBRANCH  25  33
ENDBRANCH   1  25
TORSDOF 4
ENDMDL
MODEL 6
REMARK VINA RESULT:      -7.2      2.802      4.385
REMARK  Name = 
REMARK  5 active torsions:
REMARK  status: ('A' for Active; 'I' for Inactive)
REMARK    1  A    between atoms: C_1  and  C_2
REMARK    2  A    between atoms: C_8  and  C_9
REMARK    3  A    between atoms: C_9  and  C_10
REMARK    4  A    between atoms: C_11  and  C_12
REMARK    5  A    between atoms: N_26  and  C_27
REMARK                            x       y       z     vdW  Elec       q    Type
REMARK                         _______ _______ _______ _____ _____    ______ ____
ROOT
ATOM      1  C   UNL     1      -2.595  12.282  19.504  0.00  0.00    +0.000 A 
ATOM      2  C   UNL     1      -3.181  12.959  20.584  0.00  0.00    +0.000 A 
ATOM      3  C   UNL     1      -4.592  12.924  20.363  0.00  0.00    +0.000 A 
ATOM      4  C   UNL     1      -5.686  13.552  20.996  0.00  0.00    +0.000 A 
ATOM      5  C   UNL     1      -6.997  13.232  20.652  0.00  0.00    +0.000 A 
ATOM      6  C   UNL     1      -7.235  12.334  19.627  0.00  0.00    +0.000 A 
ATOM      7  C   UNL     1      -6.175  11.760  18.920  0.00  0.00    +0.000 A 
ATOM      8  C   UNL     1      -4.843  12.093  19.268  0.00  0.00    +0.000 A 
ATOM      9  N   UNL     1      -3.615  11.729  18.709  0.00  0.00    +0.000 N 
ENDROOT
BRANCH   2  10
ATOM     10  C   UNL     1      -2.448  13.721  21.624  0.00  0.00    +0.000 C 
ATOM     11  O   UNL     1      -1.630  14.579  21.294  0.00  0.00    +0.000 OA
ATOM     12  N   UNL     1      -2.745  13.512  22.974  0.00  0.00    +0.000 N 
ATOM     13  C   UNL     1      -2.241  14.472  23.954  0.00  0.00    +0.000 C 
ATOM     14  C   UNL     1      -3.343  14.788  24.977  0.00  0.00    +0.000 C 
ATOM     15  N   UNL     1      -3.809  13.584  25.690  0.00  0.00    +0.000 NA
ATOM     16  C   UNL     1      -4.215  12.529  24.743  0.00  0.00    +0.000 C 
ATOM     17  C   UNL     1      -3.203  12.259  23.595  0.00  0.00    +0.000 C 
ATOM     18  H   UNL     1      -4.609  13.836  26.272  0.00  0.00    +0.000 HD
ENDBRANCH   2  10
BRANCH   9  19
ATOM     19  C   UNL     1      -3.441  11.007  17.476  0.00  0.00    +0.000 A 
ATOM     20  C   UNL     1      -3.689  11.622  16.241  0.00  0.00    +0.000 A 
ATOM     21  C   UNL     1      -3.453  10.944  15.041  0.00  0.00    +0.000 A 
ATOM     22  C   UNL     1      -2.941   9.649  15.054  0.00  0.00    +0.000 A 
ATOM     23  C   UNL     1      -2.701   9.018  16.268  0.00  0.00    +0.000 A 
ATOM     24  C   UNL     1      -2.973   9.683  17.463  0.00  0.00    +0.000 A 
ENDBRANCH   9  19
BRANCH   1  25
ATOM     25  C   UNL     1      -1.147  12.301  19.083  0.00  0.00    +0.000 C 
BRANCH  25  33
ATOM     26  C   UNL     1      -0.503  10.749  21.827  0.00  0.00    +0.000 C 
ATOM     27  C   UNL     1       0.067  10.409  20.478  0.00  0.00    +0.000 A 
ATOM     28  C   UNL     1       0.945   9.310  20.419  0.00  0.00    +0.000 A 
ATOM     29  F   UNL     1       1.312   8.686  21.549  0.00  0.00    +0.000 F 
ATOM     30  C   UNL     1       1.444   8.817  19.218  0.00  0.00    +0.000 A 
ATOM     31  C   UNL     1       1.069   9.417  18.029  0.00  0.00    +0.000 A 
ATOM     32  C   UNL     1       0.235  10.532  18.060  0.00  0.00    +0.000 A 
ATOM     33  C   UNL     1      -0.270  11.068  19.275  0.00  0.00    +0.000 A 
ENDBRANCH  25  33
ENDBRANCH   1  25
TORSDOF 4
ENDMDL
MODEL 7
REMARK VINA RESULT:      -7.1      2.723      5.741
REMARK  Name = 
REMARK  5 active torsions:
REMARK  status: ('A' for Active; 'I' for Inactive)
REMARK    1  A    between atoms: C_1  and  C_2
REMARK    2  A    between atoms: C_8  and  C_9
REMARK    3  A    between atoms: C_9  and  C_10
REMARK    4  A    between atoms: C_11  and  C_12
REMARK    5  A    between atoms: N_26  and  C_27
REMARK                            x       y       z     vdW  Elec       q    Type
REMARK                         _______ _______ _______ _____ _____    ______ ____
ROOT
ATOM      1  C   UNL     1      -2.088  13.449  22.011  0.00  0.00    +0.000 A 
ATOM      2  C   UNL     1      -2.848  13.645  23.174  0.00  0.00    +0.000 A 
ATOM      3  C   UNL     1      -2.112  14.559  23.987  0.00  0.00    +0.000 A 
ATOM      4  C   UNL     1      -2.267  15.015  25.315  0.00  0.00    +0.000 A 
ATOM      5  C   UNL     1      -1.462  16.030  25.825  0.00  0.00    +0.000 A 
ATOM      6  C   UNL     1      -0.447  16.556  25.045  0.00  0.00    +0.000 A 
ATOM      7  C   UNL     1      -0.209  16.066  23.758  0.00  0.00    +0.000 A 
ATOM      8  C   UNL     1      -1.025  15.029  23.245  0.00  0.00    +0.000 A 
ATOM      9  N   UNL     1      -0.981  14.317  22.043  0.00  0.00    +0.000 N 
ENDROOT
BRANCH   2  10
ATOM     10  C   UNL     1      -4.067  12.886  23.545  0.00  0.00    +0.000 C 
ATOM     11  O   UNL     1      -3.969  11.855  24.210  0.00  0.00    +0.000 OA
ATOM     12  N   UNL     1      -5.326  13.386  23.200  0.00  0.00    +0.000 N 
ATOM     13  C   UNL     1      -6.506  12.793  23.828  0.00  0.00    +0.000 C 
ATOM     14  C   UNL     1      -7.481  13.906  24.240  0.00  0.00    +0.000 C 
ATOM     15  N   UNL     1      -7.916  14.726  23.094  0.00  0.00    +0.000 NA
ATOM     16  C   UNL     1      -6.758  15.250  22.346  0.00  0.00    +0.000 C 
ATOM     17  C   UNL     1      -5.663  14.198  22.020  0.00  0.00    +0.000 C 
ATOM     18  H   UNL     1      -8.471  15.508  23.441  0.00  0.00    +0.000 HD
ENDBRANCH   2  10
BRANCH   9  19
ATOM     19  C   UNL     1       0.074  14.391  21.067  0.00  0.00    +0.000 A 
ATOM     20  C   UNL     1       1.310  13.772  21.297  0.00  0.00    +0.000 A 
ATOM     21  C   UNL     1       2.312  13.784  20.320  0.00  0.00    +0.000 A 
ATOM     22  C   UNL     1       2.086  14.393  19.089  0.00  0.00    +0.000 A 
ATOM     23  C   UNL     1       0.872  15.023  18.847  0.00  0.00    +0.000 A 
ATOM     24  C   UNL     1      -0.110  15.042  19.837  0.00  0.00    +0.000 A 
ENDBRANCH   9  19
BRANCH   1  25
ATOM     25  C   UNL     1      -2.246  12.359  20.982  0.00  0.00    +0.000 C 
BRANCH  25  33
ATOM     26  C   UNL     1      -0.862  10.387  23.115  0.00  0.00    +0.000 C 
ATOM     27  C   UNL     1      -0.465  10.527  21.673  0.00  0.00    +0.000 A 
ATOM     28  C   UNL     1       0.593   9.714  21.224  0.00  0.00    +0.000 A 
ATOM     29  F   UNL     1       1.258   8.941  22.096  0.00  0.00    +0.000 F 
ATOM     30  C   UNL     1       0.975   9.657  19.888  0.00  0.00    +0.000 A 
ATOM     31  C   UNL     1       0.299  10.420  18.954  0.00  0.00    +0.000 A 
ATOM     32  C   UNL     1      -0.726  11.266  19.376  0.00  0.00    +0.000 A 
ATOM     33  C   UNL     1      -1.121  11.359  20.737  0.00  0.00    +0.000 A 
ENDBRANCH  25  33
ENDBRANCH   1  25
TORSDOF 4
ENDMDL
MODEL 8
REMARK VINA RESULT:      -7.0      6.543      9.406
REMARK  Name = 
REMARK  5 active torsions:
REMARK  status: ('A' for Active; 'I' for Inactive)
REMARK    1  A    between atoms: C_1  and  C_2
REMARK    2  A    between atoms: C_8  and  C_9
REMARK    3  A    between atoms: C_9  and  C_10
REMARK    4  A    between atoms: C_11  and  C_12
REMARK    5  A    between atoms: N_26  and  C_27
REMARK                            x       y       z     vdW  Elec       q    Type
REMARK                         _______ _______ _______ _____ _____    ______ ____
ROOT
ATOM      1  C   UNL     1       7.823  14.539  20.227  0.00  0.00    +0.000 A 
ATOM      2  C   UNL     1       6.822  14.862  21.155  0.00  0.00    +0.000 A 
ATOM      3  C   UNL     1       6.866  13.852  22.164  0.00  0.00    +0.000 A 
ATOM      4  C   UNL     1       6.028  13.537  23.256  0.00  0.00    +0.000 A 
ATOM      5  C   UNL     1       6.386  12.556  24.178  0.00  0.00    +0.000 A 
ATOM      6  C   UNL     1       7.547  11.829  23.987  0.00  0.00    +0.000 A 
ATOM      7  C   UNL     1       8.355  12.054  22.868  0.00  0.00    +0.000 A 
ATOM      8  C   UNL     1       7.984  13.048  21.930  0.00  0.00    +0.000 A 
ATOM      9  N   UNL     1       8.554  13.440  20.715  0.00  0.00    +0.000 N 
ENDROOT
BRANCH   2  10
ATOM     10  C   UNL     1       5.805  15.929  20.990  0.00  0.00    +0.000 C 
ATOM     11  O   UNL     1       6.003  17.045  21.468  0.00  0.00    +0.000 OA
ATOM     12  N   UNL     1       4.659  15.682  20.227  0.00  0.00    +0.000 N 
ATOM     13  C   UNL     1       3.831  16.819  19.828  0.00  0.00    +0.000 C 
ATOM     14  C   UNL     1       3.410  16.655  18.359  0.00  0.00    +0.000 C 
ATOM     15  N   UNL     1       2.652  15.412  18.127  0.00  0.00    +0.000 NA
ATOM     16  C   UNL     1       3.391  14.238  18.628  0.00  0.00    +0.000 C 
ATOM     17  C   UNL     1       3.968  14.394  20.061  0.00  0.00    +0.000 C 
ATOM     18  H   UNL     1       2.495  15.305  17.124  0.00  0.00    +0.000 HD
ENDBRANCH   2  10
BRANCH   9  19
ATOM     19  C   UNL     1       9.630  12.762  20.040  0.00  0.00    +0.000 A 
ATOM     20  C   UNL     1       9.371  11.879  18.982  0.00  0.00    +0.000 A 
ATOM     21  C   UNL     1      10.419  11.275  18.280  0.00  0.00    +0.000 A 
ATOM     22  C   UNL     1      11.742  11.562  18.606  0.00  0.00    +0.000 A 
ATOM     23  C   UNL     1      12.018  12.424  19.659  0.00  0.00    +0.000 A 
ATOM     24  C   UNL     1      10.971  12.996  20.382  0.00  0.00    +0.000 A 
ENDBRANCH   9  19
BRANCH   1  25
ATOM     25  C   UNL     1       7.995  15.084  18.833  0.00  0.00    +0.000 C 
BRANCH  25  33
ATOM     26  C   UNL     1      10.766  14.910  17.207  0.00  0.00    +0.000 C 
ATOM     27  C   UNL     1      10.234  16.136  17.895  0.00  0.00    +0.000 A 
ATOM     28  C   UNL     1      11.015  17.304  17.804  0.00  0.00    +0.000 A 
ATOM     29  F   UNL     1      12.219  17.258  17.212  0.00  0.00    +0.000 F 
ATOM     30  C   UNL     1      10.581  18.532  18.289  0.00  0.00    +0.000 A 
ATOM     31  C   UNL     1       9.335  18.626  18.884  0.00  0.00    +0.000 A 
ATOM     32  C   UNL     1       8.558  17.478  19.025  0.00  0.00    +0.000 A 
ATOM     33  C   UNL     1       8.988  16.208  18.558  0.00  0.00    +0.000 A 
ENDBRANCH  25  33
ENDBRANCH   1  25
TORSDOF 4
ENDMDL
MODEL 9
REMARK VINA RESULT:      -6.9      2.810      5.002
REMARK  Name = 
REMARK  5 active torsions:
REMARK  status: ('A' for Active; 'I' for Inactive)
REMARK    1  A    between atoms: C_1  and  C_2
REMARK    2  A    between atoms: C_8  and  C_9
REMARK    3  A    between atoms: C_9  and  C_10
REMARK    4  A    between atoms: C_11  and  C_12
REMARK    5  A    between atoms: N_26  and  C_27
REMARK                            x       y       z     vdW  Elec       q    Type
REMARK                         _______ _______ _______ _____ _____    ______ ____
ROOT
ATOM      1  C   UNL     1      -2.975  12.302  19.967  0.00  0.00    +0.000 A 
ATOM      2  C   UNL     1      -3.688  13.004  20.951  0.00  0.00    +0.000 A 
ATOM      3  C   UNL     1      -5.037  13.083  20.491  0.00  0.00    +0.000 A 
ATOM      4  C   UNL     1      -6.176  13.785  20.946  0.00  0.00    +0.000 A 
ATOM      5  C   UNL     1      -7.427  13.574  20.373  0.00  0.00    +0.000 A 
ATOM      6  C   UNL     1      -7.550  12.715  19.296  0.00  0.00    +0.000 A 
ATOM      7  C   UNL     1      -6.429  12.072  18.763  0.00  0.00    +0.000 A 
ATOM      8  C   UNL     1      -5.157  12.294  19.345  0.00  0.00    +0.000 A 
ATOM      9  N   UNL     1      -3.881  11.845  18.993  0.00  0.00    +0.000 N 
ENDROOT
BRANCH   2  10
ATOM     10  C   UNL     1      -3.092  13.688  22.124  0.00  0.00    +0.000 C 
ATOM     11  O   UNL     1      -3.264  13.232  23.254  0.00  0.00    +0.000 OA
ATOM     12  N   UNL     1      -2.276  14.808  21.932  0.00  0.00    +0.000 N 
ATOM     13  C   UNL     1      -1.465  15.277  23.054  0.00  0.00    +0.000 C 
ATOM     14  C   UNL     1      -0.056  15.632  22.555  0.00  0.00    +0.000 C 
ATOM     15  N   UNL     1      -0.075  16.677  21.514  0.00  0.00    +0.000 NA
ATOM     16  C   UNL     1      -0.981  16.310  20.409  0.00  0.00    +0.000 C 
ATOM     17  C   UNL     1      -2.380  15.804  20.855  0.00  0.00    +0.000 C 
ATOM     18  H   UNL     1       0.869  16.793  21.147  0.00  0.00    +0.000 HD
ENDBRANCH   2  10
BRANCH   9  19
ATOM     19  C   UNL     1      -3.550  11.132  17.787  0.00  0.00    +0.000 A 
ATOM     20  C   UNL     1      -4.002  11.583  16.539  0.00  0.00    +0.000 A 
ATOM     21  C   UNL     1      -3.623  10.931  15.360  0.00  0.00    +0.000 A 
ATOM     22  C   UNL     1      -2.766   9.834  15.407  0.00  0.00    +0.000 A 
ATOM     23  C   UNL     1      -2.319   9.366  16.635  0.00  0.00    +0.000 A 
ATOM     24  C   UNL     1      -2.728   9.994  17.811  0.00  0.00    +0.000 A 
ENDBRANCH   9  19
BRANCH   1  25
ATOM     25  C   UNL     1      -1.480  12.215  19.802  0.00  0.00    +0.000 C 
BRANCH  25  33
ATOM     26  C   UNL     1       0.791  10.308  18.552  0.00  0.00    +0.000 C 
ATOM     27  C   UNL     1       0.273  10.239  19.961  0.00  0.00    +0.000 A 
ATOM     28  C   UNL     1       0.845   9.264  20.801  0.00  0.00    +0.000 A 
ATOM     29  F   UNL     1       1.732   8.389  20.301  0.00  0.00    +0.000 F 
ATOM     30  C   UNL     1       0.544   9.176  22.155  0.00  0.00    +0.000 A 
ATOM     31  C   UNL     1      -0.346  10.075  22.714  0.00  0.00    +0.000 A 
ATOM     32  C   UNL     1      -0.959  11.025  21.899  0.00  0.00    +0.000 A 
ATOM     33  C   UNL     1      -0.686  11.121  20.509  0.00  0.00    +0.000 A 
ENDBRANCH  25  33
ENDBRANCH   1  25
TORSDOF 4
ENDMDL
