MODEL 1
REMARK VINA RESULT:      -8.2      0.000      0.000
REMARK  Name = 
REMARK  5 active torsions:
REMARK  status: ('A' for Active; 'I' for Inactive)
REMARK    1  A    between atoms: C_1  and  C_2
REMARK    2  A    between atoms: C_7  and  C_8
REMARK    3  A    between atoms: C_10  and  C_11
REMARK    4  A    between atoms: C_11  and  C_12
REMARK    5  A    between atoms: N_14  and  C_15
REMARK                            x       y       z     vdW  Elec       q    Type
REMARK                         _______ _______ _______ _____ _____    ______ ____
ROOT
ATOM      1  C   UNL     1       1.692   2.595  21.331  0.00  0.00    +0.000 C 
ATOM      2  C   UNL     1       2.414   3.101  20.111  0.00  0.00    +0.000 A 
ATOM      3  C   UNL     1       3.707   3.625  20.253  0.00  0.00    +0.000 A 
ATOM      4  C   UNL     1       4.409   4.070  19.134  0.00  0.00    +0.000 A 
ATOM      5  C   UNL     1       3.844   4.032  17.845  0.00  0.00    +0.000 A 
ATOM      6  C   UNL     1       2.551   3.516  17.712  0.00  0.00    +0.000 A 
ATOM      7  C   UNL     1       1.833   3.042  18.829  0.00  0.00    +0.000 A 
ATOM      8  C   UNL     1       0.449   2.476  18.637  0.00  0.00    +0.000 C 
ATOM      9  N   UNL     1       4.530   4.548  16.749  0.00  0.00    +0.000 N 
ATOM     10  C   UNL     1       5.714   5.371  17.025  0.00  0.00    +0.000 C 
ATOM     11  C   UNL     1       6.520   4.765  18.181  0.00  0.00    +0.000 C 
ATOM     12  O   UNL     1       7.750   4.648  18.196  0.00  0.00    +0.000 OA
ATOM     13  N   UNL     1       5.760   4.441  19.284  0.00  0.00    +0.000 N 
ATOM     14  H   UNL     1       4.307   4.259  15.801  0.00  0.00    +0.000 HD
ATOM     15  H   UNL     1       6.251   4.188  20.134  0.00  0.00    +0.000 HD
ENDROOT
BRANCH  10  16
ATOM     16  C   UNL     1       6.597   5.623  15.813  0.00  0.00    +0.000 C 
BRANCH  16  17
ATOM     17  C   UNL     1       6.535   4.451  14.876  0.00  0.00    +0.000 C 
ATOM     18  O   UNL     1       6.589   3.323  15.384  0.00  0.00    +0.000 OA
ATOM     19  N   UNL     1       6.419   4.730  13.522  0.00  0.00    +0.000 N 
ATOM     20  H   UNL     1       6.655   5.659  13.200  0.00  0.00    +0.000 HD
BRANCH  19  21
ATOM     21  C   UNL     1       6.331   3.712  12.530  0.00  0.00    +0.000 A 
ATOM     22  C   UNL     1       5.098   3.194  12.123  0.00  0.00    +0.000 A 
ATOM     23  C   UNL     1       5.017   2.060  11.319  0.00  0.00    +0.000 A 
ATOM     24  C   UNL     1       6.178   1.465  10.855  0.00  0.00    +0.000 A 
ATOM     25  C   UNL     1       7.418   2.036  11.155  0.00  0.00    +0.000 A 
ATOM     26  C   UNL     1       7.495   3.166  11.985  0.00  0.00    +0.000 A 
ENDBRANCH  19  21
ENDBRANCH  16  17
ENDBRANCH  10  16
TORSDOF 3
ENDMDL
MODEL 2
REMARK VINA RESULT:      -8.0      4.300      6.794
REMARK  Name = 
REMARK  5 active torsions:
REMARK  status: ('A' for Active; 'I' for Inactive)
REMARK    1  A    between atoms: C_1  and  C_2
REMARK    2  A    between atoms: C_7  and  C_8
REMARK    3  A    between atoms: C_10  and  C_11
REMARK    4  A    between atoms: C_11  and  C_12
REMARK    5  A    between atoms: N_14  and  C_15
REMARK                            x       y       z     vdW  Elec       q    Type
REMARK                         _______ _______ _______ _____ _____    ______ ____
ROOT
ATOM      1  C   UNL     1       2.200   1.994  20.059  0.00  0.00    +0.000 C 
ATOM      2  C   UNL     1       2.926   3.201  19.527  0.00  0.00    +0.000 A 
ATOM      3  C   UNL     1       4.268   3.074  19.143  0.00  0.00    +0.000 A 
ATOM      4  C   UNL     1       4.953   4.168  18.616  0.00  0.00    +0.000 A 
ATOM      5  C   UNL     1       4.337   5.426  18.478  0.00  0.00    +0.000 A 
ATOM      6  C   UNL     1       3.000   5.548  18.870  0.00  0.00    +0.000 A 
ATOM      7  C   UNL     1       2.285   4.448  19.386  0.00  0.00    +0.000 A 
ATOM      8  C   UNL     1       0.840   4.619  19.780  0.00  0.00    +0.000 C 
ATOM      9  N   UNL     1       5.056   6.527  18.019  0.00  0.00    +0.000 N 
ATOM     10  C   UNL     1       6.517   6.396  17.959  0.00  0.00    +0.000 C 
ATOM     11  C   UNL     1       6.901   5.000  17.451  0.00  0.00    +0.000 C 
ATOM     12  O   UNL     1       7.781   4.773  16.613  0.00  0.00    +0.000 OA
ATOM     13  N   UNL     1       6.246   3.971  18.092  0.00  0.00    +0.000 N 
ATOM     14  H   UNL     1       4.589   7.334  17.615  0.00  0.00    +0.000 HD
ATOM     15  H   UNL     1       6.569   3.027  17.917  0.00  0.00    +0.000 HD
ENDROOT
BRANCH  10  16
ATOM     16  C   UNL     1       7.210   7.483  17.152  0.00  0.00    +0.000 C 
BRANCH  16  17
ATOM     17  C   UNL     1       8.149   8.258  18.030  0.00  0.00    +0.000 C 
ATOM     18  O   UNL     1       8.698   7.639  18.951  0.00  0.00    +0.000 OA
ATOM     19  N   UNL     1       8.327   9.602  17.733  0.00  0.00    +0.000 N 
ATOM     20  H   UNL     1       7.641  10.061  17.149  0.00  0.00    +0.000 HD
BRANCH  19  21
ATOM     21  C   UNL     1       9.204  10.446  18.475  0.00  0.00    +0.000 A 
ATOM     22  C   UNL     1      10.260  11.122  17.857  0.00  0.00    +0.000 A 
ATOM     23  C   UNL     1      11.240  11.771  18.603  0.00  0.00    +0.000 A 
ATOM     24  C   UNL     1      11.139  11.807  19.984  0.00  0.00    +0.000 A 
ATOM     25  C   UNL     1      10.028  11.237  20.613  0.00  0.00    +0.000 A 
ATOM     26  C   UNL     1       9.055  10.564  19.857  0.00  0.00    +0.000 A 
ENDBRANCH  19  21
ENDBRANCH  16  17
ENDBRANCH  10  16
TORSDOF 3
ENDMDL
MODEL 3
REMARK VINA RESULT:      -8.0      1.727      6.997
REMARK  Name = 
REMARK  5 active torsions:
REMARK  status: ('A' for Active; 'I' for Inactive)
REMARK    1  A    between atoms: C_1  and  C_2
REMARK    2  A    between atoms: C_7  and  C_8
REMARK    3  A    between atoms: C_10  and  C_11
REMARK    4  A    between atoms: C_11  and  C_12
REMARK    5  A    between atoms: N_14  and  C_15
REMARK                            x       y       z     vdW  Elec       q    Type
REMARK                         _______ _______ _______ _____ _____    ______ ____
ROOT
ATOM      1  C   UNL     1       7.249   4.717  11.145  0.00  0.00    +0.000 C 
ATOM      2  C   UNL     1       6.944   4.499  12.603  0.00  0.00    +0.000 A 
ATOM      3  C   UNL     1       7.554   5.325  13.558  0.00  0.00    +0.000 A 
ATOM      4  C   UNL     1       7.264   5.164  14.912  0.00  0.00    +0.000 A 
ATOM      5  C   UNL     1       6.380   4.165  15.363  0.00  0.00    +0.000 A 
ATOM      6  C   UNL     1       5.781   3.339  14.405  0.00  0.00    +0.000 A 
ATOM      7  C   UNL     1       6.047   3.500  13.031  0.00  0.00    +0.000 A 
ATOM      8  C   UNL     1       5.365   2.600  12.031  0.00  0.00    +0.000 C 
ATOM      9  N   UNL     1       6.158   3.970  16.723  0.00  0.00    +0.000 N 
ATOM     10  C   UNL     1       7.074   4.637  17.656  0.00  0.00    +0.000 C 
ATOM     11  C   UNL     1       7.396   6.052  17.156  0.00  0.00    +0.000 C 
ATOM     12  O   UNL     1       7.424   7.061  17.870  0.00  0.00    +0.000 OA
ATOM     13  N   UNL     1       7.765   6.107  15.830  0.00  0.00    +0.000 N 
ATOM     14  H   UNL     1       5.322   3.502  17.061  0.00  0.00    +0.000 HD
ATOM     15  H   UNL     1       8.143   6.982  15.484  0.00  0.00    +0.000 HD
ENDROOT
BRANCH  10  16
ATOM     16  C   UNL     1       6.591   4.661  19.097  0.00  0.00    +0.000 C 
BRANCH  16  17
ATOM     17  C   UNL     1       5.104   4.460  19.148  0.00  0.00    +0.000 C 
ATOM     18  O   UNL     1       4.397   5.386  18.729  0.00  0.00    +0.000 OA
ATOM     19  N   UNL     1       4.646   3.253  19.656  0.00  0.00    +0.000 N 
ATOM     20  H   UNL     1       5.280   2.693  20.211  0.00  0.00    +0.000 HD
BRANCH  19  21
ATOM     21  C   UNL     1       3.262   2.927  19.742  0.00  0.00    +0.000 A 
ATOM     22  C   UNL     1       2.541   2.508  18.620  0.00  0.00    +0.000 A 
ATOM     23  C   UNL     1       1.153   2.397  18.651  0.00  0.00    +0.000 A 
ATOM     24  C   UNL     1       0.472   2.641  19.832  0.00  0.00    +0.000 A 
ATOM     25  C   UNL     1       1.186   2.948  20.993  0.00  0.00    +0.000 A 
ATOM     26  C   UNL     1       2.582   3.082  20.951  0.00  0.00    +0.000 A 
ENDBRANCH  19  21
ENDBRANCH  16  17
ENDBRANCH  10  16
TORSDOF 3
ENDMDL
MODEL 4
REMARK VINA RESULT:      -8.0      1.783      6.962
REMARK  Name = 
REMARK  5 active torsions:
REMARK  status: ('A' for Active; 'I' for Inactive)
REMARK    1  A    between atoms: C_1  and  C_2
REMARK    2  A    between atoms: C_7  and  C_8
REMARK    3  A    between atoms: C_10  and  C_11
REMARK    4  A    between atoms: C_11  and  C_12
REMARK    5  A    between atoms: N_14  and  C_15
REMARK                            x       y       z     vdW  Elec       q    Type
REMARK                         _______ _______ _______ _____ _____    ______ ____
ROOT
ATOM      1  C   UNL     1       7.369   4.760  11.329  0.00  0.00    +0.000 C 
ATOM      2  C   UNL     1       7.012   4.617  12.784  0.00  0.00    +0.000 A 
ATOM      3  C   UNL     1       7.600   5.482  13.717  0.00  0.00    +0.000 A 
ATOM      4  C   UNL     1       7.261   5.392  15.067  0.00  0.00    +0.000 A 
ATOM      5  C   UNL     1       6.349   4.427  15.535  0.00  0.00    +0.000 A 
ATOM      6  C   UNL     1       5.772   3.562  14.599  0.00  0.00    +0.000 A 
ATOM      7  C   UNL     1       6.087   3.652  13.229  0.00  0.00    +0.000 A 
ATOM      8  C   UNL     1       5.427   2.711  12.251  0.00  0.00    +0.000 C 
ATOM      9  N   UNL     1       6.077   4.302  16.895  0.00  0.00    +0.000 N 
ATOM     10  C   UNL     1       6.970   5.005  17.825  0.00  0.00    +0.000 C 
ATOM     11  C   UNL     1       7.328   6.389  17.268  0.00  0.00    +0.000 C 
ATOM     12  O   UNL     1       7.345   7.431  17.932  0.00  0.00    +0.000 OA
ATOM     13  N   UNL     1       7.743   6.374  15.955  0.00  0.00    +0.000 N 
ATOM     14  H   UNL     1       5.224   3.861  17.227  0.00  0.00    +0.000 HD
ATOM     15  H   UNL     1       8.144   7.225  15.579  0.00  0.00    +0.000 HD
ENDROOT
BRANCH  10  16
ATOM     16  C   UNL     1       6.439   5.105  19.246  0.00  0.00    +0.000 C 
BRANCH  16  17
ATOM     17  C   UNL     1       5.194   4.279  19.392  0.00  0.00    +0.000 C 
ATOM     18  O   UNL     1       5.344   3.059  19.543  0.00  0.00    +0.000 OA
ATOM     19  N   UNL     1       3.980   4.950  19.349  0.00  0.00    +0.000 N 
ATOM     20  H   UNL     1       3.959   5.881  18.956  0.00  0.00    +0.000 HD
BRANCH  19  21
ATOM     21  C   UNL     1       2.727   4.287  19.493  0.00  0.00    +0.000 A 
ATOM     22  C   UNL     1       2.160   4.067  20.752  0.00  0.00    +0.000 A 
ATOM     23  C   UNL     1       1.052   3.239  20.913  0.00  0.00    +0.000 A 
ATOM     24  C   UNL     1       0.454   2.670  19.801  0.00  0.00    +0.000 A 
ATOM     25  C   UNL     1       0.936   2.972  18.524  0.00  0.00    +0.000 A 
ATOM     26  C   UNL     1       2.067   3.789  18.369  0.00  0.00    +0.000 A 
ENDBRANCH  19  21
ENDBRANCH  16  17
ENDBRANCH  10  16
TORSDOF 3
ENDMDL
MODEL 5
REMARK VINA RESULT:      -7.9      3.239      7.448
REMARK  Name = 
REMARK  5 active torsions:
REMARK  status: ('A' for Active; 'I' for Inactive)
REMARK    1  A    between atoms: C_1  and  C_2
REMARK    2  A    between atoms: C_7  and  C_8
REMARK    3  A    between atoms: C_10  and  C_11
REMARK    4  A    between atoms: C_11  and  C_12
REMARK    5  A    between atoms: N_14  and  C_15
REMARK                            x       y       z     vdW  Elec       q    Type
REMARK                         _______ _______ _______ _____ _____    ______ ____
ROOT
ATOM      1  C   UNL     1       7.961   4.952  12.868  0.00  0.00    +0.000 C 
ATOM      2  C   UNL     1       7.003   4.656  13.991  0.00  0.00    +0.000 A 
ATOM      3  C   UNL     1       7.409   4.890  15.312  0.00  0.00    +0.000 A 
ATOM      4  C   UNL     1       6.528   4.655  16.368  0.00  0.00    +0.000 A 
ATOM      5  C   UNL     1       5.230   4.157  16.148  0.00  0.00    +0.000 A 
ATOM      6  C   UNL     1       4.835   3.918  14.827  0.00  0.00    +0.000 A 
ATOM      7  C   UNL     1       5.704   4.169  13.746  0.00  0.00    +0.000 A 
ATOM      8  C   UNL     1       5.230   3.915  12.337  0.00  0.00    +0.000 C 
ATOM      9  N   UNL     1       4.390   3.857  17.216  0.00  0.00    +0.000 N 
ATOM     10  C   UNL     1       4.995   3.811  18.553  0.00  0.00    +0.000 C 
ATOM     11  C   UNL     1       6.013   4.947  18.711  0.00  0.00    +0.000 C 
ATOM     12  O   UNL     1       6.115   5.667  19.712  0.00  0.00    +0.000 OA
ATOM     13  N   UNL     1       6.905   5.049  17.667  0.00  0.00    +0.000 N 
ATOM     14  H   UNL     1       3.381   3.809  17.100  0.00  0.00    +0.000 HD
ATOM     15  H   UNL     1       7.697   5.671  17.784  0.00  0.00    +0.000 HD
ENDROOT
BRANCH  10  16
ATOM     16  C   UNL     1       3.990   3.811  19.695  0.00  0.00    +0.000 C 
BRANCH  16  17
ATOM     17  C   UNL     1       2.944   4.863  19.462  0.00  0.00    +0.000 C 
ATOM     18  O   UNL     1       1.907   4.506  18.887  0.00  0.00    +0.000 OA
ATOM     19  N   UNL     1       3.225   6.145  19.913  0.00  0.00    +0.000 N 
ATOM     20  H   UNL     1       4.186   6.384  20.115  0.00  0.00    +0.000 HD
BRANCH  19  21
ATOM     21  C   UNL     1       2.311   7.229  19.772  0.00  0.00    +0.000 A 
ATOM     22  C   UNL     1       2.217   7.952  18.579  0.00  0.00    +0.000 A 
ATOM     23  C   UNL     1       1.488   9.136  18.506  0.00  0.00    +0.000 A 
ATOM     24  C   UNL     1       0.787   9.581  19.615  0.00  0.00    +0.000 A 
ATOM     25  C   UNL     1       0.776   8.811  20.781  0.00  0.00    +0.000 A 
ATOM     26  C   UNL     1       1.530   7.629  20.857  0.00  0.00    +0.000 A 
ENDBRANCH  19  21
ENDBRANCH  16  17
ENDBRANCH  10  16
TORSDOF 3
ENDMDL
MODEL 6
REMARK VINA RESULT:      -7.9      4.193      8.023
REMARK  Name = 
REMARK  5 active torsions:
REMARK  status: ('A' for Active; 'I' for Inactive)
REMARK    1  A    between atoms: C_1  and  C_2
REMARK    2  A    between atoms: C_7  and  C_8
REMARK    3  A    between atoms: C_10  and  C_11
REMARK    4  A    between atoms: C_11  and  C_12
REMARK    5  A    between atoms: N_14  and  C_15
REMARK                            x       y       z     vdW  Elec       q    Type
REMARK                         _______ _______ _______ _____ _____    ______ ____
ROOT
ATOM      1  C   UNL     1       4.853   2.957  11.918  0.00  0.00    +0.000 C 
ATOM      2  C   UNL     1       5.600   3.720  12.978  0.00  0.00    +0.000 A 
ATOM      3  C   UNL     1       5.114   3.714  14.293  0.00  0.00    +0.000 A 
ATOM      4  C   UNL     1       5.805   4.386  15.300  0.00  0.00    +0.000 A 
ATOM      5  C   UNL     1       6.985   5.105  15.030  0.00  0.00    +0.000 A 
ATOM      6  C   UNL     1       7.461   5.114  13.715  0.00  0.00    +0.000 A 
ATOM      7  C   UNL     1       6.786   4.423  12.688  0.00  0.00    +0.000 A 
ATOM      8  C   UNL     1       7.345   4.444  11.287  0.00  0.00    +0.000 C 
ATOM      9  N   UNL     1       7.623   5.832  16.032  0.00  0.00    +0.000 N 
ATOM     10  C   UNL     1       6.881   6.049  17.280  0.00  0.00    +0.000 C 
ATOM     11  C   UNL     1       6.115   4.777  17.665  0.00  0.00    +0.000 C 
ATOM     12  O   UNL     1       6.059   4.307  18.808  0.00  0.00    +0.000 OA
ATOM     13  N   UNL     1       5.382   4.230  16.635  0.00  0.00    +0.000 N 
ATOM     14  H   UNL     1       8.605   6.084  15.960  0.00  0.00    +0.000 HD
ATOM     15  H   UNL     1       4.732   3.487  16.863  0.00  0.00    +0.000 HD
ENDROOT
BRANCH  10  16
ATOM     16  C   UNL     1       7.734   6.547  18.436  0.00  0.00    +0.000 C 
BRANCH  16  17
ATOM     17  C   UNL     1       8.061   8.000  18.248  0.00  0.00    +0.000 C 
ATOM     18  O   UNL     1       7.590   8.557  17.247  0.00  0.00    +0.000 OA
ATOM     19  N   UNL     1       8.861   8.598  19.211  0.00  0.00    +0.000 N 
ATOM     20  H   UNL     1       9.405   8.004  19.821  0.00  0.00    +0.000 HD
BRANCH  19  21
ATOM     21  C   UNL     1       9.231   9.973  19.161  0.00  0.00    +0.000 A 
ATOM     22  C   UNL     1       9.374  10.646  17.944  0.00  0.00    +0.000 A 
ATOM     23  C   UNL     1       9.938  11.918  17.882  0.00  0.00    +0.000 A 
ATOM     24  C   UNL     1      10.307  12.563  19.050  0.00  0.00    +0.000 A 
ATOM     25  C   UNL     1      10.064  11.954  20.285  0.00  0.00    +0.000 A 
ATOM     26  C   UNL     1       9.517  10.662  20.341  0.00  0.00    +0.000 A 
ENDBRANCH  19  21
ENDBRANCH  16  17
ENDBRANCH  10  16
TORSDOF 3
ENDMDL
MODEL 7
REMARK VINA RESULT:      -7.5      3.594      4.190
REMARK  Name = 
REMARK  5 active torsions:
REMARK  status: ('A' for Active; 'I' for Inactive)
REMARK    1  A    between atoms: C_1  and  C_2
REMARK    2  A    between atoms: C_7  and  C_8
REMARK    3  A    between atoms: C_10  and  C_11
REMARK    4  A    between atoms: C_11  and  C_12
REMARK    5  A    between atoms: N_14  and  C_15
REMARK                            x       y       z     vdW  Elec       q    Type
REMARK                         _______ _______ _______ _____ _____    ______ ____
ROOT
ATOM      1  C   UNL     1       0.171   9.795  20.974  0.00  0.00    +0.000 C 
ATOM      2  C   UNL     1       1.044   8.837  20.209  0.00  0.00    +0.000 A 
ATOM      3  C   UNL     1       1.483   7.664  20.838  0.00  0.00    +0.000 A 
ATOM      4  C   UNL     1       2.266   6.745  20.140  0.00  0.00    +0.000 A 
ATOM      5  C   UNL     1       2.657   6.972  18.807  0.00  0.00    +0.000 A 
ATOM      6  C   UNL     1       2.221   8.149  18.187  0.00  0.00    +0.000 A 
ATOM      7  C   UNL     1       1.413   9.079  18.871  0.00  0.00    +0.000 A 
ATOM      8  C   UNL     1       0.951  10.326  18.159  0.00  0.00    +0.000 C 
ATOM      9  N   UNL     1       3.499   6.081  18.147  0.00  0.00    +0.000 N 
ATOM     10  C   UNL     1       4.178   5.068  18.966  0.00  0.00    +0.000 C 
ATOM     11  C   UNL     1       3.220   4.526  20.035  0.00  0.00    +0.000 C 
ATOM     12  O   UNL     1       3.096   3.331  20.328  0.00  0.00    +0.000 OA
ATOM     13  N   UNL     1       2.558   5.505  20.742  0.00  0.00    +0.000 N 
ATOM     14  H   UNL     1       3.539   6.040  17.133  0.00  0.00    +0.000 HD
ATOM     15  H   UNL     1       2.036   5.220  21.563  0.00  0.00    +0.000 HD
ENDROOT
BRANCH  10  16
ATOM     16  C   UNL     1       4.806   3.937  18.168  0.00  0.00    +0.000 C 
BRANCH  16  17
ATOM     17  C   UNL     1       5.460   4.479  16.930  0.00  0.00    +0.000 C 
ATOM     18  O   UNL     1       6.003   5.589  17.021  0.00  0.00    +0.000 OA
ATOM     19  N   UNL     1       5.403   3.692  15.788  0.00  0.00    +0.000 N 
ATOM     20  H   UNL     1       4.717   2.951  15.748  0.00  0.00    +0.000 HD
BRANCH  19  21
ATOM     21  C   UNL     1       5.998   4.081  14.553  0.00  0.00    +0.000 A 
ATOM     22  C   UNL     1       5.558   3.554  13.335  0.00  0.00    +0.000 A 
ATOM     23  C   UNL     1       6.269   3.763  12.156  0.00  0.00    +0.000 A 
ATOM     24  C   UNL     1       7.401   4.561  12.171  0.00  0.00    +0.000 A 
ATOM     25  C   UNL     1       7.790   5.190  13.356  0.00  0.00    +0.000 A 
ATOM     26  C   UNL     1       7.083   4.958  14.547  0.00  0.00    +0.000 A 
ENDBRANCH  19  21
ENDBRANCH  16  17
ENDBRANCH  10  16
TORSDOF 3
ENDMDL
MODEL 8
REMARK VINA RESULT:      -7.5      1.346      1.630
REMARK  Name = 
REMARK  5 active torsions:
REMARK  status: ('A' for Active; 'I' for Inactive)
REMARK    1  A    between atoms: C_1  and  C_2
REMARK    2  A    between atoms: C_7  and  C_8
REMARK    3  A    between atoms: C_10  and  C_11
REMARK    4  A    between atoms: C_11  and  C_12
REMARK    5  A    between atoms: N_14  and  C_15
REMARK                            x       y       z     vdW  Elec       q    Type
REMARK                         _______ _______ _______ _____ _____    ______ ____
ROOT
ATOM      1  C   UNL     1       1.790   2.039  21.209  0.00  0.00    +0.000 C 
ATOM      2  C   UNL     1       2.470   2.996  20.267  0.00  0.00    +0.000 A 
ATOM      3  C   UNL     1       3.817   3.320  20.480  0.00  0.00    +0.000 A 
ATOM      4  C   UNL     1       4.479   4.178  19.603  0.00  0.00    +0.000 A 
ATOM      5  C   UNL     1       3.819   4.761  18.504  0.00  0.00    +0.000 A 
ATOM      6  C   UNL     1       2.473   4.439  18.302  0.00  0.00    +0.000 A 
ATOM      7  C   UNL     1       1.793   3.558  19.166  0.00  0.00    +0.000 A 
ATOM      8  C   UNL     1       0.347   3.225  18.900  0.00  0.00    +0.000 C 
ATOM      9  N   UNL     1       4.473   5.673  17.680  0.00  0.00    +0.000 N 
ATOM     10  C   UNL     1       5.754   6.209  18.157  0.00  0.00    +0.000 C 
ATOM     11  C   UNL     1       6.575   5.098  18.826  0.00  0.00    +0.000 C 
ATOM     12  O   UNL     1       7.784   4.913  18.649  0.00  0.00    +0.000 OA
ATOM     13  N   UNL     1       5.868   4.358  19.748  0.00  0.00    +0.000 N 
ATOM     14  H   UNL     1       4.153   5.858  16.734  0.00  0.00    +0.000 HD
ATOM     15  H   UNL     1       6.390   3.719  20.337  0.00  0.00    +0.000 HD
ENDROOT
BRANCH  10  16
ATOM     16  C   UNL     1       6.568   6.926  17.092  0.00  0.00    +0.000 C 
BRANCH  16  17
ATOM     17  C   UNL     1       6.228   6.388  15.732  0.00  0.00    +0.000 C 
ATOM     18  O   UNL     1       5.240   6.875  15.166  0.00  0.00    +0.000 OA
ATOM     19  N   UNL     1       7.049   5.392  15.222  0.00  0.00    +0.000 N 
ATOM     20  H   UNL     1       7.646   4.886  15.862  0.00  0.00    +0.000 HD
BRANCH  19  21
ATOM     21  C   UNL     1       6.848   4.809  13.938  0.00  0.00    +0.000 A 
ATOM     22  C   UNL     1       5.888   3.815  13.731  0.00  0.00    +0.000 A 
ATOM     23  C   UNL     1       5.835   3.096  12.540  0.00  0.00    +0.000 A 
ATOM     24  C   UNL     1       6.705   3.410  11.509  0.00  0.00    +0.000 A 
ATOM     25  C   UNL     1       7.594   4.478  11.655  0.00  0.00    +0.000 A 
ATOM     26  C   UNL     1       7.660   5.185  12.866  0.00  0.00    +0.000 A 
ENDBRANCH  19  21
ENDBRANCH  16  17
ENDBRANCH  10  16
TORSDOF 3
ENDMDL
MODEL 9
REMARK VINA RESULT:      -7.4      3.279      7.363
REMARK  Name = 
REMARK  5 active torsions:
REMARK  status: ('A' for Active; 'I' for Inactive)
REMARK    1  A    between atoms: C_1  and  C_2
REMARK    2  A    between atoms: C_7  and  C_8
REMARK    3  A    between atoms: C_10  and  C_11
REMARK    4  A    between atoms: C_11  and  C_12
REMARK    5  A    between atoms: N_14  and  C_15
REMARK                            x       y       z     vdW  Elec       q    Type
REMARK                         _______ _______ _______ _____ _____    ______ ____
ROOT
ATOM      1  C   UNL     1       7.956   4.839  12.946  0.00  0.00    +0.000 C 
ATOM      2  C   UNL     1       6.953   4.583  14.038  0.00  0.00    +0.000 A 
ATOM      3  C   UNL     1       7.331   4.789  15.372  0.00  0.00    +0.000 A 
ATOM      4  C   UNL     1       6.410   4.590  16.400  0.00  0.00    +0.000 A 
ATOM      5  C   UNL     1       5.096   4.158  16.139  0.00  0.00    +0.000 A 
ATOM      6  C   UNL     1       4.728   3.947  14.806  0.00  0.00    +0.000 A 
ATOM      7  C   UNL     1       5.639   4.163  13.753  0.00  0.00    +0.000 A 
ATOM      8  C   UNL     1       5.195   3.941  12.328  0.00  0.00    +0.000 C 
ATOM      9  N   UNL     1       4.211   3.894  17.181  0.00  0.00    +0.000 N 
ATOM     10  C   UNL     1       4.773   3.808  18.534  0.00  0.00    +0.000 C 
ATOM     11  C   UNL     1       5.841   4.893  18.730  0.00  0.00    +0.000 C 
ATOM     12  O   UNL     1       5.949   5.599  19.739  0.00  0.00    +0.000 OA
ATOM     13  N   UNL     1       6.767   4.957  17.713  0.00  0.00    +0.000 N 
ATOM     14  H   UNL     1       3.205   3.895  17.035  0.00  0.00    +0.000 HD
ATOM     15  H   UNL     1       7.585   5.538  17.857  0.00  0.00    +0.000 HD
ENDROOT
BRANCH  10  16
ATOM     16  C   UNL     1       3.737   3.851  19.646  0.00  0.00    +0.000 C 
BRANCH  16  17
ATOM     17  C   UNL     1       2.784   4.988  19.421  0.00  0.00    +0.000 C 
ATOM     18  O   UNL     1       1.680   4.708  18.935  0.00  0.00    +0.000 OA
ATOM     19  N   UNL     1       3.217   6.257  19.778  0.00  0.00    +0.000 N 
ATOM     20  H   UNL     1       4.208   6.410  19.904  0.00  0.00    +0.000 HD
BRANCH  19  21
ATOM     21  C   UNL     1       2.404   7.419  19.633  0.00  0.00    +0.000 A 
ATOM     22  C   UNL     1       1.585   7.869  20.673  0.00  0.00    +0.000 A 
ATOM     23  C   UNL     1       0.637   8.868  20.468  0.00  0.00    +0.000 A 
ATOM     24  C   UNL     1       0.541   9.478  19.228  0.00  0.00    +0.000 A 
ATOM     25  C   UNL     1       1.429   9.122  18.209  0.00  0.00    +0.000 A 
ATOM     26  C   UNL     1       2.368   8.098  18.415  0.00  0.00    +0.000 A 
ENDBRANCH  19  21
ENDBRANCH  16  17
ENDBRANCH  10  16
TORSDOF 3
ENDMDL
