MODEL 1
REMARK VINA RESULT:      -7.5      0.000      0.000
REMARK  Name = 
REMARK  7 active torsions:
REMARK  status: ('A' for Active; 'I' for Inactive)
REMARK    1  A    between atoms: C_2  and  C_3
REMARK    2  A    between atoms: C_3  and  O_4
REMARK    3  A    between atoms: O_4  and  C_5
REMARK    4  A    between atoms: C_5  and  C_6
REMARK    5  A    between atoms: C_8  and  C_9
REMARK    6  A    between atoms: N_16  and  C_17
REMARK    7  A    between atoms: C_21  and  O_22
REMARK                            x       y       z     vdW  Elec       q    Type
REMARK                         _______ _______ _______ _____ _____    ______ ____
ROOT
ATOM      1  C   UNL     1       7.909   6.927  18.258  0.00  0.00    +0.000 C 
ENDROOT
BRANCH   1   3
ATOM      2  O   UNL     1       7.503   9.057  17.255  0.00  0.00    +0.000 OA
ATOM      3  C   UNL     1       8.098   8.442  18.139  0.00  0.00    +0.000 C 
ATOM      4  N   UNL     1       8.969   8.980  19.068  0.00  0.00    +0.000 N 
ATOM      5  H   UNL     1       9.490   8.305  19.621  0.00  0.00    +0.000 HD
BRANCH   4   6
ATOM      6  C   UNL     1       9.293  10.347  19.218  0.00  0.00    +0.000 A 
ATOM      7  C   UNL     1       9.352  10.983  20.464  0.00  0.00    +0.000 A 
ATOM      8  C   UNL     1       9.638  12.348  20.563  0.00  0.00    +0.000 A 
ATOM      9  C   UNL     1       9.873  13.097  19.415  0.00  0.00    +0.000 A 
ATOM     10  C   UNL     1       9.844  12.463  18.177  0.00  0.00    +0.000 A 
ATOM     11  C   UNL     1       9.571  11.097  18.071  0.00  0.00    +0.000 A 
BRANCH  10  12
ATOM     12  O   UNL     1      10.072  13.162  17.027  0.00  0.00    +0.000 OA
ATOM     13  H   UNL     1       9.424  12.881  16.359  0.00  0.00    +0.000 HD
ENDBRANCH  10  12
ENDBRANCH   4   6
ENDBRANCH   1   3
BRANCH   1  14
ATOM     14  O   UNL     1       7.663   6.250  17.032  0.00  0.00    +0.000 OA
BRANCH  14  15
ATOM     15  C   UNL     1       7.452   4.846  17.270  0.00  0.00    +0.000 C 
BRANCH  15  16
ATOM     16  C   UNL     1       6.003   4.523  17.361  0.00  0.00    +0.000 A 
ATOM     17  C   UNL     1       5.236   4.345  18.531  0.00  0.00    +0.000 A 
ATOM     18  C   UNL     1       3.955   4.077  18.097  0.00  0.00    +0.000 A 
ATOM     19  O   UNL     1       3.973   4.105  16.725  0.00  0.00    +0.000 OA
ATOM     20  N   UNL     1       5.249   4.388  16.267  0.00  0.00    +0.000 NA
BRANCH  18  21
ATOM     21  C   UNL     1       2.769   3.815  18.863  0.00  0.00    +0.000 A 
ATOM     22  C   UNL     1       2.249   4.591  19.880  0.00  0.00    +0.000 A 
ATOM     23  C   UNL     1       1.065   4.031  20.444  0.00  0.00    +0.000 A 
ATOM     24  C   UNL     1       0.715   2.847  19.835  0.00  0.00    +0.000 A 
ATOM     25  S   UNL     1       1.802   2.424  18.590  0.00  0.00    +0.000 S 
ENDBRANCH  18  21
ENDBRANCH  15  16
ENDBRANCH  14  15
ENDBRANCH   1  14
TORSDOF 7
ENDMDL
MODEL 2
REMARK VINA RESULT:      -7.4      2.996      8.953
REMARK  Name = 
REMARK  7 active torsions:
REMARK  status: ('A' for Active; 'I' for Inactive)
REMARK    1  A    between atoms: C_2  and  C_3
REMARK    2  A    between atoms: C_3  and  O_4
REMARK    3  A    between atoms: O_4  and  C_5
REMARK    4  A    between atoms: C_5  and  C_6
REMARK    5  A    between atoms: C_8  and  C_9
REMARK    6  A    between atoms: N_16  and  C_17
REMARK    7  A    between atoms: C_21  and  O_22
REMARK                            x       y       z     vdW  Elec       q    Type
REMARK                         _______ _______ _______ _____ _____    ______ ____
ROOT
ATOM      1  C   UNL     1       6.419   4.843  16.038  0.00  0.00    +0.000 C 
ENDROOT
BRANCH   1   3
ATOM      2  O   UNL     1       4.360   5.689  16.906  0.00  0.00    +0.000 OA
ATOM      3  C   UNL     1       5.126   4.729  16.852  0.00  0.00    +0.000 C 
ATOM      4  N   UNL     1       4.958   3.508  17.481  0.00  0.00    +0.000 N 
ATOM      5  H   UNL     1       5.762   2.888  17.454  0.00  0.00    +0.000 HD
BRANCH   4   6
ATOM      6  C   UNL     1       3.844   3.112  18.254  0.00  0.00    +0.000 A 
ATOM      7  C   UNL     1       2.587   2.847  17.699  0.00  0.00    +0.000 A 
ATOM      8  C   UNL     1       1.501   2.496  18.507  0.00  0.00    +0.000 A 
ATOM      9  C   UNL     1       1.659   2.402  19.886  0.00  0.00    +0.000 A 
ATOM     10  C   UNL     1       2.914   2.637  20.439  0.00  0.00    +0.000 A 
ATOM     11  C   UNL     1       4.006   2.976  19.637  0.00  0.00    +0.000 A 
BRANCH  10  12
ATOM     12  O   UNL     1       3.111   2.553  21.788  0.00  0.00    +0.000 OA
ATOM     13  H   UNL     1       4.063   2.627  21.968  0.00  0.00    +0.000 HD
ENDBRANCH  10  12
ENDBRANCH   4   6
ENDBRANCH   1   3
BRANCH   1  14
ATOM     14  O   UNL     1       7.619   4.790  16.799  0.00  0.00    +0.000 OA
BRANCH  14  15
ATOM     15  C   UNL     1       7.436   5.440  18.070  0.00  0.00    +0.000 C 
BRANCH  15  16
ATOM     16  C   UNL     1       7.730   6.896  17.982  0.00  0.00    +0.000 A 
ATOM     17  C   UNL     1       8.448   7.683  18.905  0.00  0.00    +0.000 A 
ATOM     18  C   UNL     1       8.461   8.956  18.376  0.00  0.00    +0.000 A 
ATOM     19  O   UNL     1       7.781   8.911  17.185  0.00  0.00    +0.000 OA
ATOM     20  N   UNL     1       7.329   7.625  16.937  0.00  0.00    +0.000 NA
BRANCH  18  21
ATOM     21  C   UNL     1       9.054  10.155  18.898  0.00  0.00    +0.000 A 
ATOM     22  C   UNL     1       9.488  10.371  20.191  0.00  0.00    +0.000 A 
ATOM     23  C   UNL     1      10.012  11.684  20.379  0.00  0.00    +0.000 A 
ATOM     24  C   UNL     1       9.968  12.427  19.221  0.00  0.00    +0.000 A 
ATOM     25  S   UNL     1       9.307  11.542  17.920  0.00  0.00    +0.000 S 
ENDBRANCH  18  21
ENDBRANCH  15  16
ENDBRANCH  14  15
ENDBRANCH   1  14
TORSDOF 7
ENDMDL
MODEL 3
REMARK VINA RESULT:      -7.4      1.383      1.515
REMARK  Name = 
REMARK  7 active torsions:
REMARK  status: ('A' for Active; 'I' for Inactive)
REMARK    1  A    between atoms: C_2  and  C_3
REMARK    2  A    between atoms: C_3  and  O_4
REMARK    3  A    between atoms: O_4  and  C_5
REMARK    4  A    between atoms: C_5  and  C_6
REMARK    5  A    between atoms: C_8  and  C_9
REMARK    6  A    between atoms: N_16  and  C_17
REMARK    7  A    between atoms: C_21  and  O_22
REMARK                            x       y       z     vdW  Elec       q    Type
REMARK                         _______ _______ _______ _____ _____    ______ ____
ROOT
ATOM      1  C   UNL     1       7.047   7.340  17.213  0.00  0.00    +0.000 C 
ENDROOT
BRANCH   1   3
ATOM      2  O   UNL     1       8.677   7.656  18.931  0.00  0.00    +0.000 OA
ATOM      3  C   UNL     1       7.995   8.194  18.060  0.00  0.00    +0.000 C 
ATOM      4  N   UNL     1       7.970   9.542  17.754  0.00  0.00    +0.000 N 
ATOM      5  H   UNL     1       7.235   9.832  17.115  0.00  0.00    +0.000 HD
BRANCH   4   6
ATOM      6  C   UNL     1       8.770  10.549  18.341  0.00  0.00    +0.000 A 
ATOM      7  C   UNL     1       9.449  10.371  19.551  0.00  0.00    +0.000 A 
ATOM      8  C   UNL     1      10.198  11.409  20.117  0.00  0.00    +0.000 A 
ATOM      9  C   UNL     1      10.280  12.640  19.474  0.00  0.00    +0.000 A 
ATOM     10  C   UNL     1       9.630  12.811  18.256  0.00  0.00    +0.000 A 
ATOM     11  C   UNL     1       8.890  11.775  17.680  0.00  0.00    +0.000 A 
BRANCH  10  12
ATOM     12  O   UNL     1       9.687  14.003  17.593  0.00  0.00    +0.000 OA
ATOM     13  H   UNL     1       9.275  14.687  18.147  0.00  0.00    +0.000 HD
ENDBRANCH  10  12
ENDBRANCH   4   6
ENDBRANCH   1   3
BRANCH   1  14
ATOM     14  O   UNL     1       7.657   6.251  16.533  0.00  0.00    +0.000 OA
BRANCH  14  15
ATOM     15  C   UNL     1       6.655   5.338  16.048  0.00  0.00    +0.000 C 
BRANCH  15  16
ATOM     16  C   UNL     1       5.856   4.767  17.165  0.00  0.00    +0.000 A 
ATOM     17  C   UNL     1       4.458   4.587  17.215  0.00  0.00    +0.000 A 
ATOM     18  C   UNL     1       4.201   4.016  18.442  0.00  0.00    +0.000 A 
ATOM     19  O   UNL     1       5.405   3.861  19.082  0.00  0.00    +0.000 OA
ATOM     20  N   UNL     1       6.437   4.325  18.283  0.00  0.00    +0.000 NA
BRANCH  18  21
ATOM     21  C   UNL     1       2.947   3.618  19.019  0.00  0.00    +0.000 A 
ATOM     22  C   UNL     1       1.958   2.865  18.417  0.00  0.00    +0.000 A 
ATOM     23  C   UNL     1       0.830   2.668  19.267  0.00  0.00    +0.000 A 
ATOM     24  C   UNL     1       0.996   3.271  20.493  0.00  0.00    +0.000 A 
ATOM     25  S   UNL     1       2.504   4.060  20.617  0.00  0.00    +0.000 S 
ENDBRANCH  18  21
ENDBRANCH  15  16
ENDBRANCH  14  15
ENDBRANCH   1  14
TORSDOF 7
ENDMDL
MODEL 4
REMARK VINA RESULT:      -7.3      5.062      6.829
REMARK  Name = 
REMARK  7 active torsions:
REMARK  status: ('A' for Active; 'I' for Inactive)
REMARK    1  A    between atoms: C_2  and  C_3
REMARK    2  A    between atoms: C_3  and  O_4
REMARK    3  A    between atoms: O_4  and  C_5
REMARK    4  A    between atoms: C_5  and  C_6
REMARK    5  A    between atoms: C_8  and  C_9
REMARK    6  A    between atoms: N_16  and  C_17
REMARK    7  A    between atoms: C_21  and  O_22
REMARK                            x       y       z     vdW  Elec       q    Type
REMARK                         _______ _______ _______ _____ _____    ______ ____
ROOT
ATOM      1  C   UNL     1       6.293   5.098  18.413  0.00  0.00    +0.000 C 
ENDROOT
BRANCH   1   3
ATOM      2  O   UNL     1       8.098   4.220  17.116  0.00  0.00    +0.000 OA
ATOM      3  C   UNL     1       6.976   4.724  17.094  0.00  0.00    +0.000 C 
ATOM      4  N   UNL     1       6.232   5.020  15.967  0.00  0.00    +0.000 N 
ATOM      5  H   UNL     1       5.396   5.575  16.127  0.00  0.00    +0.000 HD
BRANCH   4   6
ATOM      6  C   UNL     1       6.594   4.744  14.628  0.00  0.00    +0.000 A 
ATOM      7  C   UNL     1       7.565   5.476  13.936  0.00  0.00    +0.000 A 
ATOM      8  C   UNL     1       7.864   5.194  12.599  0.00  0.00    +0.000 A 
ATOM      9  C   UNL     1       7.196   4.169  11.937  0.00  0.00    +0.000 A 
ATOM     10  C   UNL     1       6.250   3.421  12.630  0.00  0.00    +0.000 A 
ATOM     11  C   UNL     1       5.955   3.689  13.969  0.00  0.00    +0.000 A 
BRANCH  10  12
ATOM     12  O   UNL     1       5.573   2.406  12.016  0.00  0.00    +0.000 OA
ATOM     13  H   UNL     1       5.965   1.560  12.291  0.00  0.00    +0.000 HD
ENDBRANCH  10  12
ENDBRANCH   4   6
ENDBRANCH   1   3
BRANCH   1  14
ATOM     14  O   UNL     1       5.982   4.003  19.265  0.00  0.00    +0.000 OA
BRANCH  14  15
ATOM     15  C   UNL     1       4.601   3.627  19.113  0.00  0.00    +0.000 C 
BRANCH  15  16
ATOM     16  C   UNL     1       3.747   4.807  18.810  0.00  0.00    +0.000 A 
ATOM     17  C   UNL     1       3.347   5.827  19.698  0.00  0.00    +0.000 A 
ATOM     18  C   UNL     1       2.582   6.693  18.946  0.00  0.00    +0.000 A 
ATOM     19  O   UNL     1       2.544   6.201  17.666  0.00  0.00    +0.000 OA
ATOM     20  N   UNL     1       3.276   5.028  17.580  0.00  0.00    +0.000 NA
BRANCH  18  21
ATOM     21  C   UNL     1       1.921   7.905  19.343  0.00  0.00    +0.000 A 
ATOM     22  C   UNL     1       1.668   9.009  18.553  0.00  0.00    +0.000 A 
ATOM     23  C   UNL     1       1.007  10.052  19.268  0.00  0.00    +0.000 A 
ATOM     24  C   UNL     1       0.772   9.708  20.580  0.00  0.00    +0.000 A 
ATOM     25  S   UNL     1       1.336   8.138  20.939  0.00  0.00    +0.000 S 
ENDBRANCH  18  21
ENDBRANCH  15  16
ENDBRANCH  14  15
ENDBRANCH   1  14
TORSDOF 7
ENDMDL
MODEL 5
REMARK VINA RESULT:      -7.2      1.706      2.026
REMARK  Name = 
REMARK  7 active torsions:
REMARK  status: ('A' for Active; 'I' for Inactive)
REMARK    1  A    between atoms: C_2  and  C_3
REMARK    2  A    between atoms: C_3  and  O_4
REMARK    3  A    between atoms: O_4  and  C_5
REMARK    4  A    between atoms: C_5  and  C_6
REMARK    5  A    between atoms: C_8  and  C_9
REMARK    6  A    between atoms: N_16  and  C_17
REMARK    7  A    between atoms: C_21  and  O_22
REMARK                            x       y       z     vdW  Elec       q    Type
REMARK                         _______ _______ _______ _____ _____    ______ ____
ROOT
ATOM      1  C   UNL     1       7.074   7.652  17.264  0.00  0.00    +0.000 C 
ENDROOT
BRANCH   1   3
ATOM      2  O   UNL     1       8.724   7.615  18.991  0.00  0.00    +0.000 OA
ATOM      3  C   UNL     1       8.149   8.296  18.143  0.00  0.00    +0.000 C 
ATOM      4  N   UNL     1       8.358   9.639  17.891  0.00  0.00    +0.000 N 
ATOM      5  H   UNL     1       7.688  10.077  17.265  0.00  0.00    +0.000 HD
BRANCH   4   6
ATOM      6  C   UNL     1       9.316  10.470  18.517  0.00  0.00    +0.000 A 
ATOM      7  C   UNL     1      10.418  11.003  17.841  0.00  0.00    +0.000 A 
ATOM      8  C   UNL     1      11.364  11.787  18.510  0.00  0.00    +0.000 A 
ATOM      9  C   UNL     1      11.215  12.053  19.867  0.00  0.00    +0.000 A 
ATOM     10  C   UNL     1      10.105  11.548  20.537  0.00  0.00    +0.000 A 
ATOM     11  C   UNL     1       9.151  10.774  19.872  0.00  0.00    +0.000 A 
BRANCH  10  12
ATOM     12  O   UNL     1       9.921  11.788  21.869  0.00  0.00    +0.000 OA
ATOM     13  H   UNL     1      10.486  11.179  22.374  0.00  0.00    +0.000 HD
ENDBRANCH  10  12
ENDBRANCH   4   6
ENDBRANCH   1   3
BRANCH   1  14
ATOM     14  O   UNL     1       7.460   6.443  16.623  0.00  0.00    +0.000 OA
BRANCH  14  15
ATOM     15  C   UNL     1       6.416   5.987  15.743  0.00  0.00    +0.000 C 
BRANCH  15  16
ATOM     16  C   UNL     1       5.467   5.085  16.449  0.00  0.00    +0.000 A 
ATOM     17  C   UNL     1       4.472   5.447  17.380  0.00  0.00    +0.000 A 
ATOM     18  C   UNL     1       3.852   4.268  17.736  0.00  0.00    +0.000 A 
ATOM     19  O   UNL     1       4.459   3.257  17.034  0.00  0.00    +0.000 OA
ATOM     20  N   UNL     1       5.462   3.768  16.227  0.00  0.00    +0.000 NA
BRANCH  18  21
ATOM     21  C   UNL     1       2.767   4.048  18.652  0.00  0.00    +0.000 A 
ATOM     22  C   UNL     1       1.952   2.936  18.722  0.00  0.00    +0.000 A 
ATOM     23  C   UNL     1       0.958   3.050  19.738  0.00  0.00    +0.000 A 
ATOM     24  C   UNL     1       1.051   4.244  20.417  0.00  0.00    +0.000 A 
ATOM     25  S   UNL     1       2.330   5.212  19.835  0.00  0.00    +0.000 S 
ENDBRANCH  18  21
ENDBRANCH  15  16
ENDBRANCH  14  15
ENDBRANCH   1  14
TORSDOF 7
ENDMDL
MODEL 6
REMARK VINA RESULT:      -7.2      1.650      1.817
REMARK  Name = 
REMARK  7 active torsions:
REMARK  status: ('A' for Active; 'I' for Inactive)
REMARK    1  A    between atoms: C_2  and  C_3
REMARK    2  A    between atoms: C_3  and  O_4
REMARK    3  A    between atoms: O_4  and  C_5
REMARK    4  A    between atoms: C_5  and  C_6
REMARK    5  A    between atoms: C_8  and  C_9
REMARK    6  A    between atoms: N_16  and  C_17
REMARK    7  A    between atoms: C_21  and  O_22
REMARK                            x       y       z     vdW  Elec       q    Type
REMARK                         _______ _______ _______ _____ _____    ______ ____
ROOT
ATOM      1  C   UNL     1       8.234   8.135  17.954  0.00  0.00    +0.000 C 
ENDROOT
BRANCH   1   3
ATOM      2  O   UNL     1       7.992  10.494  17.654  0.00  0.00    +0.000 OA
ATOM      3  C   UNL     1       8.486   9.597  18.336  0.00  0.00    +0.000 C 
ATOM      4  N   UNL     1       9.293   9.761  19.447  0.00  0.00    +0.000 N 
ATOM      5  H   UNL     1       9.739   8.916  19.792  0.00  0.00    +0.000 HD
BRANCH   4   6
ATOM      6  C   UNL     1       9.651  10.990  20.047  0.00  0.00    +0.000 A 
ATOM      7  C   UNL     1       9.009  11.499  21.181  0.00  0.00    +0.000 A 
ATOM      8  C   UNL     1       9.370  12.739  21.718  0.00  0.00    +0.000 A 
ATOM      9  C   UNL     1      10.384  13.486  21.129  0.00  0.00    +0.000 A 
ATOM     10  C   UNL     1      11.045  12.969  20.019  0.00  0.00    +0.000 A 
ATOM     11  C   UNL     1      10.698  11.726  19.484  0.00  0.00    +0.000 A 
BRANCH  10  12
ATOM     12  O   UNL     1      12.048  13.670  19.412  0.00  0.00    +0.000 OA
ATOM     13  H   UNL     1      11.805  14.611  19.399  0.00  0.00    +0.000 HD
ENDBRANCH  10  12
ENDBRANCH   4   6
ENDBRANCH   1   3
BRANCH   1  14
ATOM     14  O   UNL     1       6.883   7.814  17.650  0.00  0.00    +0.000 OA
BRANCH  14  15
ATOM     15  C   UNL     1       6.803   6.514  17.036  0.00  0.00    +0.000 C 
BRANCH  15  16
ATOM     16  C   UNL     1       5.985   5.578  17.852  0.00  0.00    +0.000 A 
ATOM     17  C   UNL     1       4.580   5.530  17.952  0.00  0.00    +0.000 A 
ATOM     18  C   UNL     1       4.304   4.490  18.813  0.00  0.00    +0.000 A 
ATOM     19  O   UNL     1       5.504   3.946  19.196  0.00  0.00    +0.000 OA
ATOM     20  N   UNL     1       6.552   4.622  18.592  0.00  0.00    +0.000 NA
BRANCH  18  21
ATOM     21  C   UNL     1       3.035   3.996  19.271  0.00  0.00    +0.000 A 
ATOM     22  C   UNL     1       2.230   3.068  18.641  0.00  0.00    +0.000 A 
ATOM     23  C   UNL     1       1.024   2.814  19.360  0.00  0.00    +0.000 A 
ATOM     24  C   UNL     1       0.951   3.552  20.519  0.00  0.00    +0.000 A 
ATOM     25  S   UNL     1       2.329   4.535  20.739  0.00  0.00    +0.000 S 
ENDBRANCH  18  21
ENDBRANCH  15  16
ENDBRANCH  14  15
ENDBRANCH   1  14
TORSDOF 7
ENDMDL
MODEL 7
REMARK VINA RESULT:      -7.2      1.910      2.281
REMARK  Name = 
REMARK  7 active torsions:
REMARK  status: ('A' for Active; 'I' for Inactive)
REMARK    1  A    between atoms: C_2  and  C_3
REMARK    2  A    between atoms: C_3  and  O_4
REMARK    3  A    between atoms: O_4  and  C_5
REMARK    4  A    between atoms: C_5  and  C_6
REMARK    5  A    between atoms: C_8  and  C_9
REMARK    6  A    between atoms: N_16  and  C_17
REMARK    7  A    between atoms: C_21  and  O_22
REMARK                            x       y       z     vdW  Elec       q    Type
REMARK                         _______ _______ _______ _____ _____    ______ ____
ROOT
ATOM      1  C   UNL     1       8.102   9.119  17.758  0.00  0.00    +0.000 C 
ENDROOT
BRANCH   1   3
ATOM      2  O   UNL     1       8.999   9.907  19.828  0.00  0.00    +0.000 OA
ATOM      3  C   UNL     1       8.915  10.094  18.614  0.00  0.00    +0.000 C 
ATOM      4  N   UNL     1       9.480  11.137  17.904  0.00  0.00    +0.000 N 
ATOM      5  H   UNL     1       9.179  11.222  16.938  0.00  0.00    +0.000 HD
BRANCH   4   6
ATOM      6  C   UNL     1      10.313  12.152  18.428  0.00  0.00    +0.000 A 
ATOM      7  C   UNL     1      11.545  11.887  19.035  0.00  0.00    +0.000 A 
ATOM      8  C   UNL     1      12.319  12.919  19.577  0.00  0.00    +0.000 A 
ATOM      9  C   UNL     1      11.870  14.235  19.513  0.00  0.00    +0.000 A 
ATOM     10  C   UNL     1      10.659  14.505  18.884  0.00  0.00    +0.000 A 
ATOM     11  C   UNL     1       9.887  13.481  18.331  0.00  0.00    +0.000 A 
BRANCH  10  12
ATOM     12  O   UNL     1      10.184  15.783  18.799  0.00  0.00    +0.000 OA
ATOM     13  H   UNL     1       9.804  16.030  19.659  0.00  0.00    +0.000 HD
ENDBRANCH  10  12
ENDBRANCH   4   6
ENDBRANCH   1   3
BRANCH   1  14
ATOM     14  O   UNL     1       7.901   7.833  18.330  0.00  0.00    +0.000 OA
BRANCH  14  15
ATOM     15  C   UNL     1       7.410   6.914  17.337  0.00  0.00    +0.000 C 
BRANCH  15  16
ATOM     16  C   UNL     1       6.549   5.866  17.946  0.00  0.00    +0.000 A 
ATOM     17  C   UNL     1       5.162   5.684  17.766  0.00  0.00    +0.000 A 
ATOM     18  C   UNL     1       4.831   4.581  18.522  0.00  0.00    +0.000 A 
ATOM     19  O   UNL     1       5.983   4.131  19.116  0.00  0.00    +0.000 OA
ATOM     20  N   UNL     1       7.055   4.929  18.752  0.00  0.00    +0.000 NA
BRANCH  18  21
ATOM     21  C   UNL     1       3.554   3.950  18.705  0.00  0.00    +0.000 A 
ATOM     22  C   UNL     1       2.378   4.250  18.047  0.00  0.00    +0.000 A 
ATOM     23  C   UNL     1       1.286   3.442  18.483  0.00  0.00    +0.000 A 
ATOM     24  C   UNL     1       1.666   2.545  19.456  0.00  0.00    +0.000 A 
ATOM     25  S   UNL     1       3.325   2.676  19.832  0.00  0.00    +0.000 S 
ENDBRANCH  18  21
ENDBRANCH  15  16
ENDBRANCH  14  15
ENDBRANCH   1  14
TORSDOF 7
ENDMDL
MODEL 8
REMARK VINA RESULT:      -7.0      4.932      7.029
REMARK  Name = 
REMARK  7 active torsions:
REMARK  status: ('A' for Active; 'I' for Inactive)
REMARK    1  A    between atoms: C_2  and  C_3
REMARK    2  A    between atoms: C_3  and  O_4
REMARK    3  A    between atoms: O_4  and  C_5
REMARK    4  A    between atoms: C_5  and  C_6
REMARK    5  A    between atoms: C_8  and  C_9
REMARK    6  A    between atoms: N_16  and  C_17
REMARK    7  A    between atoms: C_21  and  O_22
REMARK                            x       y       z     vdW  Elec       q    Type
REMARK                         _______ _______ _______ _____ _____    ______ ____
ROOT
ATOM      1  C   UNL     1       3.872   3.888  19.011  0.00  0.00    +0.000 C 
ENDROOT
BRANCH   1   3
ATOM      2  O   UNL     1       2.714   4.887  20.847  0.00  0.00    +0.000 OA
ATOM      3  C   UNL     1       3.095   5.023  19.685  0.00  0.00    +0.000 C 
ATOM      4  N   UNL     1       2.879   6.122  18.875  0.00  0.00    +0.000 N 
ATOM      5  H   UNL     1       3.127   6.000  17.897  0.00  0.00    +0.000 HD
BRANCH   4   6
ATOM      6  C   UNL     1       2.235   7.324  19.248  0.00  0.00    +0.000 A 
ATOM      7  C   UNL     1       1.709   7.540  20.527  0.00  0.00    +0.000 A 
ATOM      8  C   UNL     1       1.043   8.729  20.841  0.00  0.00    +0.000 A 
ATOM      9  C   UNL     1       0.899   9.723  19.878  0.00  0.00    +0.000 A 
ATOM     10  C   UNL     1       1.445   9.523  18.614  0.00  0.00    +0.000 A 
ATOM     11  C   UNL     1       2.121   8.343  18.297  0.00  0.00    +0.000 A 
BRANCH  10  12
ATOM     12  O   UNL     1       1.326  10.475  17.642  0.00  0.00    +0.000 OA
ATOM     13  H   UNL     1       0.687  11.144  17.939  0.00  0.00    +0.000 HD
ENDBRANCH  10  12
ENDBRANCH   4   6
ENDBRANCH   1   3
BRANCH   1  14
ATOM     14  O   UNL     1       5.247   3.805  19.362  0.00  0.00    +0.000 OA
BRANCH  14  15
ATOM     15  C   UNL     1       5.895   5.073  19.154  0.00  0.00    +0.000 C 
BRANCH  15  16
ATOM     16  C   UNL     1       6.389   5.207  17.758  0.00  0.00    +0.000 A 
ATOM     17  C   UNL     1       6.011   4.441  16.637  0.00  0.00    +0.000 A 
ATOM     18  C   UNL     1       6.730   4.952  15.578  0.00  0.00    +0.000 A 
ATOM     19  O   UNL     1       7.495   5.983  16.062  0.00  0.00    +0.000 OA
ATOM     20  N   UNL     1       7.278   6.145  17.421  0.00  0.00    +0.000 NA
BRANCH  18  21
ATOM     21  C   UNL     1       6.735   4.550  14.199  0.00  0.00    +0.000 A 
ATOM     22  C   UNL     1       5.875   3.656  13.592  0.00  0.00    +0.000 A 
ATOM     23  C   UNL     1       6.170   3.468  12.209  0.00  0.00    +0.000 A 
ATOM     24  C   UNL     1       7.241   4.231  11.803  0.00  0.00    +0.000 A 
ATOM     25  S   UNL     1       7.878   5.169  13.078  0.00  0.00    +0.000 S 
ENDBRANCH  18  21
ENDBRANCH  15  16
ENDBRANCH  14  15
ENDBRANCH   1  14
TORSDOF 7
ENDMDL
MODEL 9
REMARK VINA RESULT:      -7.0      4.883      6.781
REMARK  Name = 
REMARK  7 active torsions:
REMARK  status: ('A' for Active; 'I' for Inactive)
REMARK    1  A    between atoms: C_2  and  C_3
REMARK    2  A    between atoms: C_3  and  O_4
REMARK    3  A    between atoms: O_4  and  C_5
REMARK    4  A    between atoms: C_5  and  C_6
REMARK    5  A    between atoms: C_8  and  C_9
REMARK    6  A    between atoms: N_16  and  C_17
REMARK    7  A    between atoms: C_21  and  O_22
REMARK                            x       y       z     vdW  Elec       q    Type
REMARK                         _______ _______ _______ _____ _____    ______ ____
ROOT
ATOM      1  C   UNL     1       6.670   5.490  18.294  0.00  0.00    +0.000 C 
ENDROOT
BRANCH   1   3
ATOM      2  O   UNL     1       8.179   4.160  17.004  0.00  0.00    +0.000 OA
ATOM      3  C   UNL     1       7.208   4.915  16.981  0.00  0.00    +0.000 C 
ATOM      4  N   UNL     1       6.526   5.338  15.855  0.00  0.00    +0.000 N 
ATOM      5  H   UNL     1       5.850   6.082  16.007  0.00  0.00    +0.000 HD
BRANCH   4   6
ATOM      6  C   UNL     1       6.775   4.934  14.524  0.00  0.00    +0.000 A 
ATOM      7  C   UNL     1       7.697   5.580  13.693  0.00  0.00    +0.000 A 
ATOM      8  C   UNL     1       7.883   5.171  12.368  0.00  0.00    +0.000 A 
ATOM      9  C   UNL     1       7.150   4.105  11.857  0.00  0.00    +0.000 A 
ATOM     10  C   UNL     1       6.253   3.443  12.689  0.00  0.00    +0.000 A 
ATOM     11  C   UNL     1       6.070   3.838  14.016  0.00  0.00    +0.000 A 
BRANCH  10  12
ATOM     12  O   UNL     1       5.515   2.391  12.226  0.00  0.00    +0.000 OA
ATOM     13  H   UNL     1       5.985   1.566  12.435  0.00  0.00    +0.000 HD
ENDBRANCH  10  12
ENDBRANCH   4   6
ENDBRANCH   1   3
BRANCH   1  14
ATOM     14  O   UNL     1       6.285   4.524  19.264  0.00  0.00    +0.000 OA
BRANCH  14  15
ATOM     15  C   UNL     1       5.091   3.839  18.842  0.00  0.00    +0.000 C 
BRANCH  15  16
ATOM     16  C   UNL     1       3.891   4.707  18.978  0.00  0.00    +0.000 A 
ATOM     17  C   UNL     1       3.854   6.070  19.334  0.00  0.00    +0.000 A 
ATOM     18  C   UNL     1       2.522   6.425  19.310  0.00  0.00    +0.000 A 
ATOM     19  O   UNL     1       1.809   5.311  18.945  0.00  0.00    +0.000 OA
ATOM     20  N   UNL     1       2.664   4.241  18.733  0.00  0.00    +0.000 NA
BRANCH  18  21
ATOM     21  C   UNL     1       1.910   7.693  19.590  0.00  0.00    +0.000 A 
ATOM     22  C   UNL     1       1.370   8.107  20.791  0.00  0.00    +0.000 A 
ATOM     23  C   UNL     1       0.825   9.423  20.720  0.00  0.00    +0.000 A 
ATOM     24  C   UNL     1       0.972   9.975  19.467  0.00  0.00    +0.000 A 
ATOM     25  S   UNL     1       1.768   8.915  18.393  0.00  0.00    +0.000 S 
ENDBRANCH  18  21
ENDBRANCH  15  16
ENDBRANCH  14  15
ENDBRANCH   1  14
TORSDOF 7
ENDMDL
