MODEL 1
REMARK VINA RESULT:      -6.8      0.000      0.000
REMARK  Name = 
REMARK  4 active torsions:
REMARK  status: ('A' for Active; 'I' for Inactive)
REMARK    1  A    between atoms: N_4  and  C_5
REMARK    2  A    between atoms: C_5  and  C_6
REMARK    3  A    between atoms: N_10  and  C_11
REMARK    4  A    between atoms: C_11  and  C_12
REMARK                            x       y       z     vdW  Elec       q    Type
REMARK                         _______ _______ _______ _____ _____    ______ ____
ROOT
ATOM      1  O   UNL     1       6.992   5.316  19.902  0.00  0.00    +0.000 OA
ATOM      2  C   UNL     1       6.416   5.216  18.827  0.00  0.00    +0.000 A 
ATOM      3  S   UNL     1       6.869   6.143  17.398  0.00  0.00    +0.000 S 
ATOM      4  N   UNL     1       5.746   5.304  16.443  0.00  0.00    +0.000 N 
ATOM      5  C   UNL     1       5.058   4.333  17.152  0.00  0.00    +0.000 A 
ATOM      6  O   UNL     1       4.281   3.535  16.639  0.00  0.00    +0.000 OA
ATOM      7  N   UNL     1       5.405   4.358  18.490  0.00  0.00    +0.000 N 
ENDROOT
BRANCH   4   8
ATOM      8  C   UNL     1       5.674   5.470  15.002  0.00  0.00    +0.000 C 
BRANCH   8   9
ATOM      9  C   UNL     1       6.729   4.669  14.240  0.00  0.00    +0.000 C 
ATOM     10 CL   UNL     1       5.992   3.603  13.017  0.00  0.00    +0.000 Cl
ENDBRANCH   8   9
ENDBRANCH   4   8
BRANCH   7  11
ATOM     11  C   UNL     1       4.890   3.387  19.429  0.00  0.00    +0.000 C 
BRANCH  11  12
ATOM     12  C   UNL     1       3.443   3.612  19.802  0.00  0.00    +0.000 A 
ATOM     13  C   UNL     1       3.010   4.872  20.240  0.00  0.00    +0.000 A 
ATOM     14  C   UNL     1       1.660   5.106  20.511  0.00  0.00    +0.000 A 
ATOM     15  C   UNL     1       0.728   4.082  20.354  0.00  0.00    +0.000 A 
ATOM     16  C   UNL     1       1.151   2.816  19.948  0.00  0.00    +0.000 A 
ATOM     17  C   UNL     1       2.501   2.578  19.682  0.00  0.00    +0.000 A 
ENDBRANCH  11  12
ENDBRANCH   7  11
TORSDOF 4
ENDMDL
MODEL 2
REMARK VINA RESULT:      -6.8      0.130      1.178
REMARK  Name = 
REMARK  4 active torsions:
REMARK  status: ('A' for Active; 'I' for Inactive)
REMARK    1  A    between atoms: N_4  and  C_5
REMARK    2  A    between atoms: C_5  and  C_6
REMARK    3  A    between atoms: N_10  and  C_11
REMARK    4  A    between atoms: C_11  and  C_12
REMARK                            x       y       z     vdW  Elec       q    Type
REMARK                         _______ _______ _______ _____ _____    ______ ____
ROOT
ATOM      1  O   UNL     1       7.035   5.342  19.947  0.00  0.00    +0.000 OA
ATOM      2  C   UNL     1       6.486   5.273  18.855  0.00  0.00    +0.000 A 
ATOM      3  S   UNL     1       6.988   6.224  17.459  0.00  0.00    +0.000 S 
ATOM      4  N   UNL     1       5.880   5.422  16.456  0.00  0.00    +0.000 N 
ATOM      5  C   UNL     1       5.161   4.444  17.126  0.00  0.00    +0.000 A 
ATOM      6  O   UNL     1       4.387   3.668  16.576  0.00  0.00    +0.000 OA
ATOM      7  N   UNL     1       5.473   4.436  18.473  0.00  0.00    +0.000 N 
ENDROOT
BRANCH   4   8
ATOM      8  C   UNL     1       5.848   5.620  15.018  0.00  0.00    +0.000 C 
BRANCH   8   9
ATOM      9  C   UNL     1       6.838   4.738  14.257  0.00  0.00    +0.000 C 
ATOM     10 CL   UNL     1       6.006   3.625  13.140  0.00  0.00    +0.000 Cl
ENDBRANCH   8   9
ENDBRANCH   4   8
BRANCH   7  11
ATOM     11  C   UNL     1       4.921   3.452  19.376  0.00  0.00    +0.000 C 
BRANCH  11  12
ATOM     12  C   UNL     1       3.460   3.673  19.696  0.00  0.00    +0.000 A 
ATOM     13  C   UNL     1       2.537   2.626  19.558  0.00  0.00    +0.000 A 
ATOM     14  C   UNL     1       1.202   2.802  19.927  0.00  0.00    +0.000 A 
ATOM     15  C   UNL     1       0.772   4.028  20.432  0.00  0.00    +0.000 A 
ATOM     16  C   UNL     1       1.674   5.085  20.546  0.00  0.00    +0.000 A 
ATOM     17  C   UNL     1       3.009   4.913  20.172  0.00  0.00    +0.000 A 
ENDBRANCH  11  12
ENDBRANCH   7  11
TORSDOF 4
ENDMDL
MODEL 3
REMARK VINA RESULT:      -6.3      1.576      2.165
REMARK  Name = 
REMARK  4 active torsions:
REMARK  status: ('A' for Active; 'I' for Inactive)
REMARK    1  A    between atoms: N_4  and  C_5
REMARK    2  A    between atoms: C_5  and  C_6
REMARK    3  A    between atoms: N_10  and  C_11
REMARK    4  A    between atoms: C_11  and  C_12
REMARK                            x       y       z     vdW  Elec       q    Type
REMARK                         _______ _______ _______ _____ _____    ______ ____
ROOT
ATOM      1  O   UNL     1       3.497   7.439  17.593  0.00  0.00    +0.000 OA
ATOM      2  C   UNL     1       4.320   6.571  17.333  0.00  0.00    +0.000 A 
ATOM      3  S   UNL     1       5.127   6.442  15.770  0.00  0.00    +0.000 S 
ATOM      4  N   UNL     1       6.114   5.184  16.334  0.00  0.00    +0.000 N 
ATOM      5  C   UNL     1       5.879   4.871  17.664  0.00  0.00    +0.000 A 
ATOM      6  O   UNL     1       6.551   4.072  18.307  0.00  0.00    +0.000 OA
ATOM      7  N   UNL     1       4.828   5.614  18.168  0.00  0.00    +0.000 N 
ENDROOT
BRANCH   4   8
ATOM      8  C   UNL     1       7.211   4.645  15.549  0.00  0.00    +0.000 C 
BRANCH   8   9
ATOM      9  C   UNL     1       7.072   4.900  14.048  0.00  0.00    +0.000 C 
ATOM     10 CL   UNL     1       6.078   3.649  13.257  0.00  0.00    +0.000 Cl
ENDBRANCH   8   9
ENDBRANCH   4   8
BRANCH   7  11
ATOM     11  C   UNL     1       4.438   5.537  19.557  0.00  0.00    +0.000 C 
BRANCH  11  12
ATOM     12  C   UNL     1       3.250   4.636  19.806  0.00  0.00    +0.000 A 
ATOM     13  C   UNL     1       3.390   3.241  19.742  0.00  0.00    +0.000 A 
ATOM     14  C   UNL     1       2.316   2.404  20.048  0.00  0.00    +0.000 A 
ATOM     15  C   UNL     1       1.087   2.949  20.414  0.00  0.00    +0.000 A 
ATOM     16  C   UNL     1       0.926   4.334  20.451  0.00  0.00    +0.000 A 
ATOM     17  C   UNL     1       1.998   5.174  20.141  0.00  0.00    +0.000 A 
ENDBRANCH  11  12
ENDBRANCH   7  11
TORSDOF 4
ENDMDL
MODEL 4
REMARK VINA RESULT:      -6.2      1.889      2.134
REMARK  Name = 
REMARK  4 active torsions:
REMARK  status: ('A' for Active; 'I' for Inactive)
REMARK    1  A    between atoms: N_4  and  C_5
REMARK    2  A    between atoms: C_5  and  C_6
REMARK    3  A    between atoms: N_10  and  C_11
REMARK    4  A    between atoms: C_11  and  C_12
REMARK                            x       y       z     vdW  Elec       q    Type
REMARK                         _______ _______ _______ _____ _____    ______ ____
ROOT
ATOM      1  O   UNL     1       3.179   7.762  18.092  0.00  0.00    +0.000 OA
ATOM      2  C   UNL     1       3.780   6.800  17.634  0.00  0.00    +0.000 A 
ATOM      3  S   UNL     1       5.481   6.853  17.172  0.00  0.00    +0.000 S 
ATOM      4  N   UNL     1       5.490   5.190  16.840  0.00  0.00    +0.000 N 
ATOM      5  C   UNL     1       4.267   4.587  17.089  0.00  0.00    +0.000 A 
ATOM      6  O   UNL     1       4.076   3.377  17.025  0.00  0.00    +0.000 OA
ATOM      7  N   UNL     1       3.320   5.522  17.462  0.00  0.00    +0.000 N 
ENDROOT
BRANCH   4   8
ATOM      8  C   UNL     1       6.708   4.467  16.523  0.00  0.00    +0.000 C 
BRANCH   8   9
ATOM      9  C   UNL     1       7.111   4.563  15.051  0.00  0.00    +0.000 C 
ATOM     10 CL   UNL     1       5.782   4.068  13.971  0.00  0.00    +0.000 Cl
ENDBRANCH   8   9
ENDBRANCH   4   8
BRANCH   7  11
ATOM     11  C   UNL     1       1.985   5.139  17.858  0.00  0.00    +0.000 C 
BRANCH  11  12
ATOM     12  C   UNL     1       1.936   4.360  19.154  0.00  0.00    +0.000 A 
ATOM     13  C   UNL     1       2.518   4.883  20.319  0.00  0.00    +0.000 A 
ATOM     14  C   UNL     1       2.408   4.206  21.534  0.00  0.00    +0.000 A 
ATOM     15  C   UNL     1       1.722   2.995  21.599  0.00  0.00    +0.000 A 
ATOM     16  C   UNL     1       1.165   2.450  20.443  0.00  0.00    +0.000 A 
ATOM     17  C   UNL     1       1.279   3.123  19.224  0.00  0.00    +0.000 A 
ENDBRANCH  11  12
ENDBRANCH   7  11
TORSDOF 4
ENDMDL
MODEL 5
REMARK VINA RESULT:      -6.2      1.975      2.521
REMARK  Name = 
REMARK  4 active torsions:
REMARK  status: ('A' for Active; 'I' for Inactive)
REMARK    1  A    between atoms: N_4  and  C_5
REMARK    2  A    between atoms: C_5  and  C_6
REMARK    3  A    between atoms: N_10  and  C_11
REMARK    4  A    between atoms: C_11  and  C_12
REMARK                            x       y       z     vdW  Elec       q    Type
REMARK                         _______ _______ _______ _____ _____    ______ ____
ROOT
ATOM      1  O   UNL     1       3.004   7.960  17.537  0.00  0.00    +0.000 OA
ATOM      2  C   UNL     1       3.824   7.053  17.591  0.00  0.00    +0.000 A 
ATOM      3  S   UNL     1       5.103   6.833  16.397  0.00  0.00    +0.000 S 
ATOM      4  N   UNL     1       5.779   5.560  17.291  0.00  0.00    +0.000 N 
ATOM      5  C   UNL     1       5.095   5.308  18.469  0.00  0.00    +0.000 A 
ATOM      6  O   UNL     1       5.471   4.509  19.320  0.00  0.00    +0.000 OA
ATOM      7  N   UNL     1       3.973   6.109  18.571  0.00  0.00    +0.000 N 
ENDROOT
BRANCH   4   8
ATOM      8  C   UNL     1       7.049   4.950  16.936  0.00  0.00    +0.000 C 
BRANCH   8   9
ATOM      9  C   UNL     1       7.216   4.715  15.435  0.00  0.00    +0.000 C 
ATOM     10 CL   UNL     1       5.968   3.614  14.797  0.00  0.00    +0.000 Cl
ENDBRANCH   8   9
ENDBRANCH   4   8
BRANCH   7  11
ATOM     11  C   UNL     1       3.134   6.101  19.748  0.00  0.00    +0.000 C 
BRANCH  11  12
ATOM     12  C   UNL     1       2.291   4.853  19.883  0.00  0.00    +0.000 A 
ATOM     13  C   UNL     1       1.688   4.277  18.754  0.00  0.00    +0.000 A 
ATOM     14  C   UNL     1       0.975   3.082  18.862  0.00  0.00    +0.000 A 
ATOM     15  C   UNL     1       0.847   2.453  20.098  0.00  0.00    +0.000 A 
ATOM     16  C   UNL     1       1.416   3.031  21.232  0.00  0.00    +0.000 A 
ATOM     17  C   UNL     1       2.126   4.230  21.129  0.00  0.00    +0.000 A 
ENDBRANCH  11  12
ENDBRANCH   7  11
TORSDOF 4
ENDMDL
MODEL 6
REMARK VINA RESULT:      -6.2      1.630      2.030
REMARK  Name = 
REMARK  4 active torsions:
REMARK  status: ('A' for Active; 'I' for Inactive)
REMARK    1  A    between atoms: N_4  and  C_5
REMARK    2  A    between atoms: C_5  and  C_6
REMARK    3  A    between atoms: N_10  and  C_11
REMARK    4  A    between atoms: C_11  and  C_12
REMARK                            x       y       z     vdW  Elec       q    Type
REMARK                         _______ _______ _______ _____ _____    ______ ____
ROOT
ATOM      1  O   UNL     1       6.002   4.989  19.765  0.00  0.00    +0.000 OA
ATOM      2  C   UNL     1       6.073   5.255  18.573  0.00  0.00    +0.000 A 
ATOM      3  S   UNL     1       7.304   4.581  17.505  0.00  0.00    +0.000 S 
ATOM      4  N   UNL     1       6.585   5.303  16.148  0.00  0.00    +0.000 N 
ATOM      5  C   UNL     1       5.437   6.013  16.463  0.00  0.00    +0.000 A 
ATOM      6  O   UNL     1       4.698   6.521  15.627  0.00  0.00    +0.000 OA
ATOM      7  N   UNL     1       5.221   6.024  17.828  0.00  0.00    +0.000 N 
ENDROOT
BRANCH   4   8
ATOM      8  C   UNL     1       7.032   5.029  14.794  0.00  0.00    +0.000 C 
BRANCH   8   9
ATOM      9  C   UNL     1       6.471   3.730  14.216  0.00  0.00    +0.000 C 
ATOM     10 CL   UNL     1       5.173   4.041  13.034  0.00  0.00    +0.000 Cl
ENDBRANCH   8   9
ENDBRANCH   4   8
BRANCH   7  11
ATOM     11  C   UNL     1       4.042   6.625  18.408  0.00  0.00    +0.000 C 
BRANCH  11  12
ATOM     12  C   UNL     1       2.966   5.626  18.771  0.00  0.00    +0.000 A 
ATOM     13  C   UNL     1       2.458   4.746  17.804  0.00  0.00    +0.000 A 
ATOM     14  C   UNL     1       1.524   3.770  18.152  0.00  0.00    +0.000 A 
ATOM     15  C   UNL     1       1.079   3.665  19.469  0.00  0.00    +0.000 A 
ATOM     16  C   UNL     1       1.555   4.553  20.433  0.00  0.00    +0.000 A 
ATOM     17  C   UNL     1       2.486   5.535  20.086  0.00  0.00    +0.000 A 
ENDBRANCH  11  12
ENDBRANCH   7  11
TORSDOF 4
ENDMDL
MODEL 7
REMARK VINA RESULT:      -6.2      2.953      3.406
REMARK  Name = 
REMARK  4 active torsions:
REMARK  status: ('A' for Active; 'I' for Inactive)
REMARK    1  A    between atoms: N_4  and  C_5
REMARK    2  A    between atoms: C_5  and  C_6
REMARK    3  A    between atoms: N_10  and  C_11
REMARK    4  A    between atoms: C_11  and  C_12
REMARK                            x       y       z     vdW  Elec       q    Type
REMARK                         _______ _______ _______ _____ _____    ______ ____
ROOT
ATOM      1  O   UNL     1       5.499   3.639  19.392  0.00  0.00    +0.000 OA
ATOM      2  C   UNL     1       5.783   4.668  18.793  0.00  0.00    +0.000 A 
ATOM      3  S   UNL     1       7.277   5.565  19.067  0.00  0.00    +0.000 S 
ATOM      4  N   UNL     1       6.918   6.636  17.801  0.00  0.00    +0.000 N 
ATOM      5  C   UNL     1       5.728   6.330  17.161  0.00  0.00    +0.000 A 
ATOM      6  O   UNL     1       5.329   6.901  16.151  0.00  0.00    +0.000 OA
ATOM      7  N   UNL     1       5.088   5.273  17.782  0.00  0.00    +0.000 N 
ENDROOT
BRANCH   4   8
ATOM      8  C   UNL     1       7.865   7.632  17.335  0.00  0.00    +0.000 C 
BRANCH   8   9
ATOM      9  C   UNL     1       7.547   9.049  17.811  0.00  0.00    +0.000 C 
ATOM     10 CL   UNL     1       8.967   9.831  18.551  0.00  0.00    +0.000 Cl
ENDBRANCH   8   9
ENDBRANCH   4   8
BRANCH   7  11
ATOM     11  C   UNL     1       3.868   4.705  17.255  0.00  0.00    +0.000 C 
BRANCH  11  12
ATOM     12  C   UNL     1       2.789   4.513  18.296  0.00  0.00    +0.000 A 
ATOM     13  C   UNL     1       1.985   3.363  18.283  0.00  0.00    +0.000 A 
ATOM     14  C   UNL     1       1.042   3.144  19.288  0.00  0.00    +0.000 A 
ATOM     15  C   UNL     1       0.884   4.073  20.314  0.00  0.00    +0.000 A 
ATOM     16  C   UNL     1       1.656   5.234  20.322  0.00  0.00    +0.000 A 
ATOM     17  C   UNL     1       2.597   5.459  19.315  0.00  0.00    +0.000 A 
ENDBRANCH  11  12
ENDBRANCH   7  11
TORSDOF 4
ENDMDL
MODEL 8
REMARK VINA RESULT:      -6.2      1.770      2.062
REMARK  Name = 
REMARK  4 active torsions:
REMARK  status: ('A' for Active; 'I' for Inactive)
REMARK    1  A    between atoms: N_4  and  C_5
REMARK    2  A    between atoms: C_5  and  C_6
REMARK    3  A    between atoms: N_10  and  C_11
REMARK    4  A    between atoms: C_11  and  C_12
REMARK                            x       y       z     vdW  Elec       q    Type
REMARK                         _______ _______ _______ _____ _____    ______ ____
ROOT
ATOM      1  O   UNL     1       3.384   7.413  17.627  0.00  0.00    +0.000 OA
ATOM      2  C   UNL     1       4.239   6.593  17.320  0.00  0.00    +0.000 A 
ATOM      3  S   UNL     1       5.095   6.621  15.779  0.00  0.00    +0.000 S 
ATOM      4  N   UNL     1       6.101   5.344  16.264  0.00  0.00    +0.000 N 
ATOM      5  C   UNL     1       5.836   4.912  17.553  0.00  0.00    +0.000 A 
ATOM      6  O   UNL     1       6.511   4.078  18.147  0.00  0.00    +0.000 OA
ATOM      7  N   UNL     1       4.749   5.580  18.086  0.00  0.00    +0.000 N 
ENDROOT
BRANCH   4   8
ATOM      8  C   UNL     1       7.236   4.905  15.471  0.00  0.00    +0.000 C 
BRANCH   8   9
ATOM      9  C   UNL     1       6.886   4.614  14.011  0.00  0.00    +0.000 C 
ATOM     10 CL   UNL     1       8.015   5.417  12.890  0.00  0.00    +0.000 Cl
ENDBRANCH   8   9
ENDBRANCH   4   8
BRANCH   7  11
ATOM     11  C   UNL     1       4.321   5.373  19.450  0.00  0.00    +0.000 C 
BRANCH  11  12
ATOM     12  C   UNL     1       3.114   4.471  19.578  0.00  0.00    +0.000 A 
ATOM     13  C   UNL     1       2.169   4.688  20.591  0.00  0.00    +0.000 A 
ATOM     14  C   UNL     1       1.014   3.908  20.665  0.00  0.00    +0.000 A 
ATOM     15  C   UNL     1       0.792   2.897  19.732  0.00  0.00    +0.000 A 
ATOM     16  C   UNL     1       1.739   2.652  18.738  0.00  0.00    +0.000 A 
ATOM     17  C   UNL     1       2.898   3.427  18.665  0.00  0.00    +0.000 A 
ENDBRANCH  11  12
ENDBRANCH   7  11
TORSDOF 4
ENDMDL
MODEL 9
REMARK VINA RESULT:      -6.1      2.985      3.235
REMARK  Name = 
REMARK  4 active torsions:
REMARK  status: ('A' for Active; 'I' for Inactive)
REMARK    1  A    between atoms: N_4  and  C_5
REMARK    2  A    between atoms: C_5  and  C_6
REMARK    3  A    between atoms: N_10  and  C_11
REMARK    4  A    between atoms: C_11  and  C_12
REMARK                            x       y       z     vdW  Elec       q    Type
REMARK                         _______ _______ _______ _____ _____    ______ ____
ROOT
ATOM      1  O   UNL     1       5.593   3.724  19.380  0.00  0.00    +0.000 OA
ATOM      2  C   UNL     1       5.866   4.759  18.787  0.00  0.00    +0.000 A 
ATOM      3  S   UNL     1       7.386   5.626  19.005  0.00  0.00    +0.000 S 
ATOM      4  N   UNL     1       6.985   6.727  17.779  0.00  0.00    +0.000 N 
ATOM      5  C   UNL     1       5.760   6.454  17.192  0.00  0.00    +0.000 A 
ATOM      6  O   UNL     1       5.323   7.052  16.214  0.00  0.00    +0.000 OA
ATOM      7  N   UNL     1       5.133   5.396  17.823  0.00  0.00    +0.000 N 
ENDROOT
BRANCH   4   8
ATOM      8  C   UNL     1       7.926   7.717  17.285  0.00  0.00    +0.000 C 
BRANCH   8   9
ATOM      9  C   UNL     1       7.686   9.121  17.841  0.00  0.00    +0.000 C 
ATOM     10 CL   UNL     1       9.047   9.673  18.851  0.00  0.00    +0.000 Cl
ENDBRANCH   8   9
ENDBRANCH   4   8
BRANCH   7  11
ATOM     11  C   UNL     1       3.879   4.859  17.346  0.00  0.00    +0.000 C 
BRANCH  11  12
ATOM     12  C   UNL     1       2.876   4.594  18.446  0.00  0.00    +0.000 A 
ATOM     13  C   UNL     1       2.650   5.550  19.447  0.00  0.00    +0.000 A 
ATOM     14  C   UNL     1       1.668   5.344  20.418  0.00  0.00    +0.000 A 
ATOM     15  C   UNL     1       0.906   4.178  20.405  0.00  0.00    +0.000 A 
ATOM     16  C   UNL     1       1.141   3.207  19.433  0.00  0.00    +0.000 A 
ATOM     17  C   UNL     1       2.127   3.408  18.463  0.00  0.00    +0.000 A 
ENDBRANCH  11  12
ENDBRANCH   7  11
TORSDOF 4
ENDMDL
