MODEL 1
REMARK VINA RESULT:      -7.6      0.000      0.000
REMARK  Name = 
REMARK  7 active torsions:
REMARK  status: ('A' for Active; 'I' for Inactive)
REMARK    1  A    between atoms: C_1  and  C_2
REMARK    2  A    between atoms: C_2  and  C_3
REMARK    3  A    between atoms: C_2  and  C_4
REMARK    4  A    between atoms: C_2  and  N_5
REMARK    5  A    between atoms: N_11  and  C_12
REMARK    6  A    between atoms: C_12  and  C_13
REMARK    7  A    between atoms: N_21  and  C_22
REMARK                            x       y       z     vdW  Elec       q    Type
REMARK                         _______ _______ _______ _____ _____    ______ ____
ROOT
ATOM      1  N   UNL     1      -5.251  15.657  23.222  0.00  0.00    +0.000 N 
ATOM      2  N   UNL     1      -4.971  16.139  24.467  0.00  0.00    +0.000 NA
ATOM      3  C   UNL     1      -3.724  15.737  24.705  0.00  0.00    +0.000 A 
ATOM      4  C   UNL     1      -3.208  15.007  23.632  0.00  0.00    +0.000 A 
ATOM      5  C   UNL     1      -1.950  14.415  23.383  0.00  0.00    +0.000 A 
ATOM      6  O   UNL     1      -1.058  14.442  24.217  0.00  0.00    +0.000 OA
ATOM      7  N   UNL     1      -1.865  13.818  22.092  0.00  0.00    +0.000 N 
ATOM      8  C   UNL     1      -3.005  13.660  21.218  0.00  0.00    +0.000 A 
ATOM      9  N   UNL     1      -2.890  12.962  20.002  0.00  0.00    +0.000 N 
ATOM     10  N   UNL     1      -4.164  14.206  21.532  0.00  0.00    +0.000 NA
ATOM     11  C   UNL     1      -4.210  14.900  22.707  0.00  0.00    +0.000 A 
ATOM     12  H   UNL     1      -1.976  12.577  19.825  0.00  0.00    +0.000 HD
ENDROOT
BRANCH   9  13
ATOM     13  C   UNL     1      -3.930  12.113  19.351  0.00  0.00    +0.000 C 
ATOM     14  C   UNL     1      -5.116  12.844  18.660  0.00  0.00    +0.000 C 
ATOM     15  C   UNL     1      -5.559  12.013  17.427  0.00  0.00    +0.000 C 
ATOM     16  C   UNL     1      -4.317  11.259  17.099  0.00  0.00    +0.000 A 
ATOM     17  C   UNL     1      -4.082  10.535  15.929  0.00  0.00    +0.000 A 
ATOM     18  C   UNL     1      -2.847   9.921  15.770  0.00  0.00    +0.000 A 
ATOM     19  C   UNL     1      -1.896   9.999  16.793  0.00  0.00    +0.000 A 
ATOM     20  C   UNL     1      -2.163  10.686  17.990  0.00  0.00    +0.000 A 
ATOM     21  C   UNL     1      -3.379  11.342  18.141  0.00  0.00    +0.000 A 
ENDBRANCH   9  13
BRANCH   1  23
ATOM     22  C   UNL     1      -7.111  17.233  23.444  0.00  0.00    +0.000 C 
ATOM     23  C   UNL     1      -6.491  16.119  22.577  0.00  0.00    +0.000 C 
ATOM     24  C   UNL     1      -7.518  14.963  22.468  0.00  0.00    +0.000 C 
ATOM     25  C   UNL     1      -6.244  16.641  21.155  0.00  0.00    +0.000 C 
ENDBRANCH   1  23
BRANCH   7  26
ATOM     26  C   UNL     1      -0.529  13.262  21.872  0.00  0.00    +0.000 C 
BRANCH  26  27
ATOM     27  C   UNL     1      -0.455  11.742  21.731  0.00  0.00    +0.000 A 
ATOM     28  C   UNL     1       0.117  11.150  20.582  0.00  0.00    +0.000 A 
ATOM     29  C   UNL     1       0.383   9.775  20.534  0.00  0.00    +0.000 A 
ATOM     30  C   UNL     1       0.063   8.981  21.623  0.00  0.00    +0.000 A 
ATOM     31  F   UNL     1       0.376   7.679  21.615  0.00  0.00    +0.000 F 
ATOM     32  C   UNL     1      -0.565   9.530  22.736  0.00  0.00    +0.000 A 
ATOM     33  C   UNL     1      -0.835  10.903  22.787  0.00  0.00    +0.000 A 
ENDBRANCH  26  27
ENDBRANCH   7  26
TORSDOF 4
ENDMDL
MODEL 2
REMARK VINA RESULT:      -7.2      3.611      7.049
REMARK  Name = 
REMARK  7 active torsions:
REMARK  status: ('A' for Active; 'I' for Inactive)
REMARK    1  A    between atoms: C_1  and  C_2
REMARK    2  A    between atoms: C_2  and  C_3
REMARK    3  A    between atoms: C_2  and  C_4
REMARK    4  A    between atoms: C_2  and  N_5
REMARK    5  A    between atoms: N_11  and  C_12
REMARK    6  A    between atoms: C_12  and  C_13
REMARK    7  A    between atoms: N_21  and  C_22
REMARK                            x       y       z     vdW  Elec       q    Type
REMARK                         _______ _______ _______ _____ _____    ______ ____
ROOT
ATOM      1  N   UNL     1       1.955  14.840  18.786  0.00  0.00    +0.000 N 
ATOM      2  N   UNL     1       3.092  14.183  18.418  0.00  0.00    +0.000 NA
ATOM      3  C   UNL     1       2.730  12.903  18.357  0.00  0.00    +0.000 A 
ATOM      4  C   UNL     1       1.382  12.737  18.679  0.00  0.00    +0.000 A 
ATOM      5  C   UNL     1       0.529  11.611  18.716  0.00  0.00    +0.000 A 
ATOM      6  O   UNL     1       0.947  10.488  18.480  0.00  0.00    +0.000 OA
ATOM      7  N   UNL     1      -0.816  11.947  19.047  0.00  0.00    +0.000 N 
ATOM      8  C   UNL     1      -1.216  13.262  19.491  0.00  0.00    +0.000 A 
ATOM      9  N   UNL     1      -2.535  13.510  19.914  0.00  0.00    +0.000 N 
ATOM     10  N   UNL     1      -0.357  14.261  19.468  0.00  0.00    +0.000 NA
ATOM     11  C   UNL     1       0.900  13.971  19.018  0.00  0.00    +0.000 A 
ATOM     12  H   UNL     1      -3.138  12.703  19.901  0.00  0.00    +0.000 HD
ENDROOT
BRANCH   9  13
ATOM     13  C   UNL     1      -2.974  14.450  20.986  0.00  0.00    +0.000 C 
ATOM     14  C   UNL     1      -4.226  15.327  20.697  0.00  0.00    +0.000 C 
ATOM     15  C   UNL     1      -4.995  15.545  22.026  0.00  0.00    +0.000 C 
ATOM     16  C   UNL     1      -4.571  14.364  22.828  0.00  0.00    +0.000 A 
ATOM     17  C   UNL     1      -5.148  13.934  24.024  0.00  0.00    +0.000 A 
ATOM     18  C   UNL     1      -4.649  12.785  24.622  0.00  0.00    +0.000 A 
ATOM     19  C   UNL     1      -3.563  12.118  24.045  0.00  0.00    +0.000 A 
ATOM     20  C   UNL     1      -2.955  12.589  22.869  0.00  0.00    +0.000 A 
ATOM     21  C   UNL     1      -3.474  13.713  22.239  0.00  0.00    +0.000 A 
ENDBRANCH   9  13
BRANCH   1  23
ATOM     22  C   UNL     1       0.628  16.798  18.156  0.00  0.00    +0.000 C 
ATOM     23  C   UNL     1       1.973  16.312  18.731  0.00  0.00    +0.000 C 
ATOM     24  C   UNL     1       3.106  16.814  17.801  0.00  0.00    +0.000 C 
ATOM     25  C   UNL     1       2.208  16.939  20.112  0.00  0.00    +0.000 C 
ENDBRANCH   1  23
BRANCH   7  26
ATOM     26  C   UNL     1      -1.661  10.751  19.027  0.00  0.00    +0.000 C 
BRANCH  26  27
ATOM     27  C   UNL     1      -2.445  10.512  17.736  0.00  0.00    +0.000 A 
ATOM     28  C   UNL     1      -3.645  11.212  17.480  0.00  0.00    +0.000 A 
ATOM     29  C   UNL     1      -4.256  11.160  16.220  0.00  0.00    +0.000 A 
ATOM     30  C   UNL     1      -3.684  10.397  15.215  0.00  0.00    +0.000 A 
ATOM     31  F   UNL     1      -4.220  10.397  13.989  0.00  0.00    +0.000 F 
ATOM     32  C   UNL     1      -2.541   9.644  15.466  0.00  0.00    +0.000 A 
ATOM     33  C   UNL     1      -1.929   9.690  16.725  0.00  0.00    +0.000 A 
ENDBRANCH  26  27
ENDBRANCH   7  26
TORSDOF 4
ENDMDL
MODEL 3
REMARK VINA RESULT:      -7.2      2.741      5.698
REMARK  Name = 
REMARK  7 active torsions:
REMARK  status: ('A' for Active; 'I' for Inactive)
REMARK    1  A    between atoms: C_1  and  C_2
REMARK    2  A    between atoms: C_2  and  C_3
REMARK    3  A    between atoms: C_2  and  C_4
REMARK    4  A    between atoms: C_2  and  N_5
REMARK    5  A    between atoms: N_11  and  C_12
REMARK    6  A    between atoms: C_12  and  C_13
REMARK    7  A    between atoms: N_21  and  C_22
REMARK                            x       y       z     vdW  Elec       q    Type
REMARK                         _______ _______ _______ _____ _____    ______ ____
ROOT
ATOM      1  N   UNL     1      -5.548  11.781  18.889  0.00  0.00    +0.000 N 
ATOM      2  N   UNL     1      -5.940  11.292  17.678  0.00  0.00    +0.000 NA
ATOM      3  C   UNL     1      -4.800  11.067  17.027  0.00  0.00    +0.000 A 
ATOM      4  C   UNL     1      -3.691  11.404  17.805  0.00  0.00    +0.000 A 
ATOM      5  C   UNL     1      -2.298  11.312  17.592  0.00  0.00    +0.000 A 
ATOM      6  O   UNL     1      -1.841  10.911  16.533  0.00  0.00    +0.000 OA
ATOM      7  N   UNL     1      -1.537  11.726  18.724  0.00  0.00    +0.000 N 
ATOM      8  C   UNL     1      -2.124  12.358  19.883  0.00  0.00    +0.000 A 
ATOM      9  N   UNL     1      -1.315  12.850  20.923  0.00  0.00    +0.000 N 
ATOM     10  N   UNL     1      -3.434  12.447  20.000  0.00  0.00    +0.000 NA
ATOM     11  C   UNL     1      -4.172  11.923  18.976  0.00  0.00    +0.000 A 
ATOM     12  H   UNL     1      -0.325  12.746  20.770  0.00  0.00    +0.000 HD
ENDROOT
BRANCH   9  13
ATOM     13  C   UNL     1      -1.569  14.055  21.767  0.00  0.00    +0.000 C 
ATOM     14  C   UNL     1      -2.103  15.327  21.051  0.00  0.00    +0.000 C 
ATOM     15  C   UNL     1      -3.048  16.082  22.023  0.00  0.00    +0.000 C 
ATOM     16  C   UNL     1      -3.500  14.989  22.928  0.00  0.00    +0.000 A 
ATOM     17  C   UNL     1      -4.549  15.065  23.845  0.00  0.00    +0.000 A 
ATOM     18  C   UNL     1      -4.861  13.932  24.586  0.00  0.00    +0.000 A 
ATOM     19  C   UNL     1      -4.097  12.770  24.432  0.00  0.00    +0.000 A 
ATOM     20  C   UNL     1      -3.009  12.721  23.544  0.00  0.00    +0.000 A 
ATOM     21  C   UNL     1      -2.716  13.835  22.766  0.00  0.00    +0.000 A 
ENDBRANCH   9  13
BRANCH   1  23
ATOM     22  C   UNL     1      -7.290  10.572  20.113  0.00  0.00    +0.000 C 
ATOM     23  C   UNL     1      -6.580  11.928  19.929  0.00  0.00    +0.000 C 
ATOM     24  C   UNL     1      -7.642  12.975  19.505  0.00  0.00    +0.000 C 
ATOM     25  C   UNL     1      -5.991  12.396  21.267  0.00  0.00    +0.000 C 
ENDBRANCH   1  23
BRANCH   7  26
ATOM     26  C   UNL     1      -0.105  11.568  18.463  0.00  0.00    +0.000 C 
BRANCH  26  27
ATOM     27  C   UNL     1       0.495  10.214  18.843  0.00  0.00    +0.000 A 
ATOM     28  C   UNL     1       1.255   9.473  17.910  0.00  0.00    +0.000 A 
ATOM     29  C   UNL     1       1.982   8.343  18.305  0.00  0.00    +0.000 A 
ATOM     30  C   UNL     1       1.942   7.935  19.629  0.00  0.00    +0.000 A 
ATOM     31  F   UNL     1       2.688   6.899  20.031  0.00  0.00    +0.000 F 
ATOM     32  C   UNL     1       1.145   8.607  20.550  0.00  0.00    +0.000 A 
ATOM     33  C   UNL     1       0.414   9.736  20.158  0.00  0.00    +0.000 A 
ENDBRANCH  26  27
ENDBRANCH   7  26
TORSDOF 4
ENDMDL
MODEL 4
REMARK VINA RESULT:      -7.1      3.372      6.608
REMARK  Name = 
REMARK  7 active torsions:
REMARK  status: ('A' for Active; 'I' for Inactive)
REMARK    1  A    between atoms: C_1  and  C_2
REMARK    2  A    between atoms: C_2  and  C_3
REMARK    3  A    between atoms: C_2  and  C_4
REMARK    4  A    between atoms: C_2  and  N_5
REMARK    5  A    between atoms: N_11  and  C_12
REMARK    6  A    between atoms: C_12  and  C_13
REMARK    7  A    between atoms: N_21  and  C_22
REMARK                            x       y       z     vdW  Elec       q    Type
REMARK                         _______ _______ _______ _____ _____    ______ ____
ROOT
ATOM      1  N   UNL     1       1.359  15.162  19.490  0.00  0.00    +0.000 N 
ATOM      2  N   UNL     1       2.603  14.635  19.308  0.00  0.00    +0.000 NA
ATOM      3  C   UNL     1       2.395  13.324  19.199  0.00  0.00    +0.000 A 
ATOM      4  C   UNL     1       1.039  13.011  19.309  0.00  0.00    +0.000 A 
ATOM      5  C   UNL     1       0.317  11.799  19.220  0.00  0.00    +0.000 A 
ATOM      6  O   UNL     1       0.885  10.731  19.058  0.00  0.00    +0.000 OA
ATOM      7  N   UNL     1      -1.092  11.985  19.336  0.00  0.00    +0.000 N 
ATOM      8  C   UNL     1      -1.695  13.246  19.704  0.00  0.00    +0.000 A 
ATOM      9  N   UNL     1      -3.082  13.345  19.914  0.00  0.00    +0.000 N 
ATOM     10  N   UNL     1      -0.955  14.331  19.808  0.00  0.00    +0.000 NA
ATOM     11  C   UNL     1       0.380  14.183  19.561  0.00  0.00    +0.000 A 
ATOM     12  H   UNL     1      -3.586  12.479  19.813  0.00  0.00    +0.000 HD
ENDROOT
BRANCH   9  13
ATOM     13  C   UNL     1      -3.781  14.222  20.900  0.00  0.00    +0.000 C 
ATOM     14  C   UNL     1      -5.225  14.680  20.547  0.00  0.00    +0.000 C 
ATOM     15  C   UNL     1      -6.041  14.799  21.861  0.00  0.00    +0.000 C 
ATOM     16  C   UNL     1      -5.313  13.865  22.765  0.00  0.00    +0.000 A 
ATOM     17  C   UNL     1      -5.761  13.406  24.004  0.00  0.00    +0.000 A 
ATOM     18  C   UNL     1      -4.966  12.505  24.701  0.00  0.00    +0.000 A 
ATOM     19  C   UNL     1      -3.729  12.118  24.173  0.00  0.00    +0.000 A 
ATOM     20  C   UNL     1      -3.264  12.628  22.950  0.00  0.00    +0.000 A 
ATOM     21  C   UNL     1      -4.070  13.496  22.224  0.00  0.00    +0.000 A 
ENDBRANCH   9  13
BRANCH   1  23
ATOM     22  C   UNL     1       2.632  17.243  19.293  0.00  0.00    +0.000 C 
ATOM     23  C   UNL     1       1.226  16.628  19.430  0.00  0.00    +0.000 C 
ATOM     24  C   UNL     1       0.584  17.175  20.730  0.00  0.00    +0.000 C 
ATOM     25  C   UNL     1       0.341  17.081  18.261  0.00  0.00    +0.000 C 
ENDBRANCH   1  23
BRANCH   7  26
ATOM     26  C   UNL     1      -1.789  10.706  19.192  0.00  0.00    +0.000 C 
BRANCH  26  27
ATOM     27  C   UNL     1      -2.475  10.470  17.846  0.00  0.00    +0.000 A 
ATOM     28  C   UNL     1      -3.730  11.055  17.562  0.00  0.00    +0.000 A 
ATOM     29  C   UNL     1      -4.266  11.021  16.268  0.00  0.00    +0.000 A 
ATOM     30  C   UNL     1      -3.563  10.389  15.255  0.00  0.00    +0.000 A 
ATOM     31  F   UNL     1      -4.033  10.412  14.001  0.00  0.00    +0.000 F 
ATOM     32  C   UNL     1      -2.360   9.745  15.527  0.00  0.00    +0.000 A 
ATOM     33  C   UNL     1      -1.822   9.774  16.819  0.00  0.00    +0.000 A 
ENDBRANCH  26  27
ENDBRANCH   7  26
TORSDOF 4
ENDMDL
MODEL 5
REMARK VINA RESULT:      -7.0      3.259      6.138
REMARK  Name = 
REMARK  7 active torsions:
REMARK  status: ('A' for Active; 'I' for Inactive)
REMARK    1  A    between atoms: C_1  and  C_2
REMARK    2  A    between atoms: C_2  and  C_3
REMARK    3  A    between atoms: C_2  and  C_4
REMARK    4  A    between atoms: C_2  and  N_5
REMARK    5  A    between atoms: N_11  and  C_12
REMARK    6  A    between atoms: C_12  and  C_13
REMARK    7  A    between atoms: N_21  and  C_22
REMARK                            x       y       z     vdW  Elec       q    Type
REMARK                         _______ _______ _______ _____ _____    ______ ____
ROOT
ATOM      1  N   UNL     1      -5.055  12.052  18.283  0.00  0.00    +0.000 N 
ATOM      2  N   UNL     1      -5.179  11.413  17.085  0.00  0.00    +0.000 NA
ATOM      3  C   UNL     1      -3.989  10.847  16.887  0.00  0.00    +0.000 A 
ATOM      4  C   UNL     1      -3.113  11.117  17.940  0.00  0.00    +0.000 A 
ATOM      5  C   UNL     1      -1.786  10.720  18.218  0.00  0.00    +0.000 A 
ATOM      6  O   UNL     1      -1.150  10.033  17.434  0.00  0.00    +0.000 OA
ATOM      7  N   UNL     1      -1.316  11.202  19.475  0.00  0.00    +0.000 N 
ATOM      8  C   UNL     1      -2.046  12.156  20.278  0.00  0.00    +0.000 A 
ATOM      9  N   UNL     1      -1.485  12.685  21.455  0.00  0.00    +0.000 N 
ATOM     10  N   UNL     1      -3.268  12.514  19.938  0.00  0.00    +0.000 NA
ATOM     11  C   UNL     1      -3.775  11.945  18.805  0.00  0.00    +0.000 A 
ATOM     12  H   UNL     1      -0.551  12.364  21.655  0.00  0.00    +0.000 HD
ENDROOT
BRANCH   9  13
ATOM     13  C   UNL     1      -1.673  14.061  22.001  0.00  0.00    +0.000 C 
ATOM     14  C   UNL     1      -1.129  14.340  23.431  0.00  0.00    +0.000 C 
ATOM     15  C   UNL     1      -0.643  15.812  23.497  0.00  0.00    +0.000 C 
ATOM     16  C   UNL     1      -0.341  16.103  22.067  0.00  0.00    +0.000 A 
ATOM     17  C   UNL     1       0.355  17.212  21.586  0.00  0.00    +0.000 A 
ATOM     18  C   UNL     1       0.581  17.307  20.219  0.00  0.00    +0.000 A 
ATOM     19  C   UNL     1       0.072  16.326  19.361  0.00  0.00    +0.000 A 
ATOM     20  C   UNL     1      -0.674  15.241  19.852  0.00  0.00    +0.000 A 
ATOM     21  C   UNL     1      -0.868  15.113  21.222  0.00  0.00    +0.000 A 
ENDBRANCH   9  13
BRANCH   1  23
ATOM     22  C   UNL     1      -7.344  12.763  17.788  0.00  0.00    +0.000 C 
ATOM     23  C   UNL     1      -6.279  12.602  18.890  0.00  0.00    +0.000 C 
ATOM     24  C   UNL     1      -6.008  13.997  19.508  0.00  0.00    +0.000 C 
ATOM     25  C   UNL     1      -6.820  11.706  20.013  0.00  0.00    +0.000 C 
ENDBRANCH   1  23
BRANCH   7  26
ATOM     26  C   UNL     1       0.044  10.724  19.729  0.00  0.00    +0.000 C 
BRANCH  26  27
ATOM     27  C   UNL     1       1.148  11.777  19.636  0.00  0.00    +0.000 A 
ATOM     28  C   UNL     1       1.608  12.233  18.380  0.00  0.00    +0.000 A 
ATOM     29  C   UNL     1       2.461  13.340  18.281  0.00  0.00    +0.000 A 
ATOM     30  C   UNL     1       2.874  13.987  19.434  0.00  0.00    +0.000 A 
ATOM     31  F   UNL     1       3.632  15.087  19.348  0.00  0.00    +0.000 F 
ATOM     32  C   UNL     1       2.491  13.513  20.685  0.00  0.00    +0.000 A 
ATOM     33  C   UNL     1       1.641  12.405  20.788  0.00  0.00    +0.000 A 
ENDBRANCH  26  27
ENDBRANCH   7  26
TORSDOF 4
ENDMDL
MODEL 6
REMARK VINA RESULT:      -7.0      8.644     10.904
REMARK  Name = 
REMARK  7 active torsions:
REMARK  status: ('A' for Active; 'I' for Inactive)
REMARK    1  A    between atoms: C_1  and  C_2
REMARK    2  A    between atoms: C_2  and  C_3
REMARK    3  A    between atoms: C_2  and  C_4
REMARK    4  A    between atoms: C_2  and  N_5
REMARK    5  A    between atoms: N_11  and  C_12
REMARK    6  A    between atoms: C_12  and  C_13
REMARK    7  A    between atoms: N_21  and  C_22
REMARK                            x       y       z     vdW  Elec       q    Type
REMARK                         _______ _______ _______ _____ _____    ______ ____
ROOT
ATOM      1  N   UNL     1       2.929  15.218  19.673  0.00  0.00    +0.000 N 
ATOM      2  N   UNL     1       2.034  14.360  20.241  0.00  0.00    +0.000 NA
ATOM      3  C   UNL     1       2.720  13.759  21.211  0.00  0.00    +0.000 A 
ATOM      4  C   UNL     1       4.037  14.222  21.268  0.00  0.00    +0.000 A 
ATOM      5  C   UNL     1       5.124  13.939  22.125  0.00  0.00    +0.000 A 
ATOM      6  O   UNL     1       5.034  13.104  23.012  0.00  0.00    +0.000 OA
ATOM      7  N   UNL     1       6.278  14.722  21.831  0.00  0.00    +0.000 N 
ATOM      8  C   UNL     1       6.386  15.563  20.661  0.00  0.00    +0.000 A 
ATOM      9  N   UNL     1       7.589  16.225  20.358  0.00  0.00    +0.000 N 
ATOM     10  N   UNL     1       5.340  15.752  19.880  0.00  0.00    +0.000 NA
ATOM     11  C   UNL     1       4.189  15.111  20.240  0.00  0.00    +0.000 A 
ATOM     12  H   UNL     1       8.343  16.039  20.999  0.00  0.00    +0.000 HD
ENDROOT
BRANCH   9  13
ATOM     13  C   UNL     1       8.140  16.514  19.001  0.00  0.00    +0.000 C 
ATOM     14  C   UNL     1       9.287  17.559  18.906  0.00  0.00    +0.000 C 
ATOM     15  C   UNL     1      10.240  17.146  17.753  0.00  0.00    +0.000 C 
ATOM     16  C   UNL     1      10.003  15.677  17.668  0.00  0.00    +0.000 A 
ATOM     17  C   UNL     1      10.778  14.762  16.953  0.00  0.00    +0.000 A 
ATOM     18  C   UNL     1      10.435  13.418  17.014  0.00  0.00    +0.000 A 
ATOM     19  C   UNL     1       9.307  13.022  17.741  0.00  0.00    +0.000 A 
ATOM     20  C   UNL     1       8.503  13.958  18.413  0.00  0.00    +0.000 A 
ATOM     21  C   UNL     1       8.863  15.300  18.396  0.00  0.00    +0.000 A 
ENDBRANCH   9  13
BRANCH   1  23
ATOM     22  C   UNL     1       0.951  15.827  18.364  0.00  0.00    +0.000 C 
ATOM     23  C   UNL     1       2.411  16.193  18.698  0.00  0.00    +0.000 C 
ATOM     24  C   UNL     1       3.233  16.147  17.385  0.00  0.00    +0.000 C 
ATOM     25  C   UNL     1       2.480  17.632  19.227  0.00  0.00    +0.000 C 
ENDBRANCH   1  23
BRANCH   7  26
ATOM     26  C   UNL     1       7.355  14.420  22.775  0.00  0.00    +0.000 C 
BRANCH  26  27
ATOM     27  C   UNL     1       8.522  13.605  22.216  0.00  0.00    +0.000 A 
ATOM     28  C   UNL     1       8.371  12.228  21.934  0.00  0.00    +0.000 A 
ATOM     29  C   UNL     1       9.357  11.524  21.229  0.00  0.00    +0.000 A 
ATOM     30  C   UNL     1      10.504  12.183  20.820  0.00  0.00    +0.000 A 
ATOM     31  F   UNL     1      11.419  11.537  20.086  0.00  0.00    +0.000 F 
ATOM     32  C   UNL     1      10.705  13.520  21.148  0.00  0.00    +0.000 A 
ATOM     33  C   UNL     1       9.724  14.227  21.854  0.00  0.00    +0.000 A 
ENDBRANCH  26  27
ENDBRANCH   7  26
TORSDOF 4
ENDMDL
MODEL 7
REMARK VINA RESULT:      -7.0      3.700      6.475
REMARK  Name = 
REMARK  7 active torsions:
REMARK  status: ('A' for Active; 'I' for Inactive)
REMARK    1  A    between atoms: C_1  and  C_2
REMARK    2  A    between atoms: C_2  and  C_3
REMARK    3  A    between atoms: C_2  and  C_4
REMARK    4  A    between atoms: C_2  and  N_5
REMARK    5  A    between atoms: N_11  and  C_12
REMARK    6  A    between atoms: C_12  and  C_13
REMARK    7  A    between atoms: N_21  and  C_22
REMARK                            x       y       z     vdW  Elec       q    Type
REMARK                         _______ _______ _______ _____ _____    ______ ____
ROOT
ATOM      1  N   UNL     1      -4.069  11.256  18.154  0.00  0.00    +0.000 N 
ATOM      2  N   UNL     1      -3.933  10.292  17.199  0.00  0.00    +0.000 NA
ATOM      3  C   UNL     1      -2.642   9.970  17.235  0.00  0.00    +0.000 A 
ATOM      4  C   UNL     1      -1.956  10.714  18.198  0.00  0.00    +0.000 A 
ATOM      5  C   UNL     1      -0.615  10.714  18.643  0.00  0.00    +0.000 A 
ATOM      6  O   UNL     1       0.226   9.991  18.132  0.00  0.00    +0.000 OA
ATOM      7  N   UNL     1      -0.389  11.624  19.718  0.00  0.00    +0.000 N 
ATOM      8  C   UNL     1      -1.376  12.581  20.164  0.00  0.00    +0.000 A 
ATOM      9  N   UNL     1      -1.062  13.531  21.151  0.00  0.00    +0.000 N 
ATOM     10  N   UNL     1      -2.600  12.549  19.676  0.00  0.00    +0.000 NA
ATOM     11  C   UNL     1      -2.858  11.585  18.743  0.00  0.00    +0.000 A 
ATOM     12  H   UNL     1      -0.112  13.495  21.482  0.00  0.00    +0.000 HD
ENDROOT
BRANCH   9  13
ATOM     13  C   UNL     1      -1.577  14.929  21.251  0.00  0.00    +0.000 C 
ATOM     14  C   UNL     1      -1.316  15.691  22.581  0.00  0.00    +0.000 C 
ATOM     15  C   UNL     1      -1.119  17.196  22.259  0.00  0.00    +0.000 C 
ATOM     16  C   UNL     1      -0.660  17.152  20.842  0.00  0.00    +0.000 A 
ATOM     17  C   UNL     1      -0.110  18.215  20.125  0.00  0.00    +0.000 A 
ATOM     18  C   UNL     1       0.301  17.988  18.819  0.00  0.00    +0.000 A 
ATOM     19  C   UNL     1       0.114  16.727  18.242  0.00  0.00    +0.000 A 
ATOM     20  C   UNL     1      -0.490  15.678  18.955  0.00  0.00    +0.000 A 
ATOM     21  C   UNL     1      -0.865  15.882  20.278  0.00  0.00    +0.000 A 
ENDBRANCH   9  13
BRANCH   1  23
ATOM     22  C   UNL     1      -5.944  12.662  17.446  0.00  0.00    +0.000 C 
ATOM     23  C   UNL     1      -5.437  11.670  18.512  0.00  0.00    +0.000 C 
ATOM     24  C   UNL     1      -5.452  12.388  19.885  0.00  0.00    +0.000 C 
ATOM     25  C   UNL     1      -6.396  10.476  18.613  0.00  0.00    +0.000 C 
ENDBRANCH   1  23
BRANCH   7  26
ATOM     26  C   UNL     1       1.002  11.549  20.166  0.00  0.00    +0.000 C 
BRANCH  26  27
ATOM     27  C   UNL     1       1.888  12.737  19.788  0.00  0.00    +0.000 A 
ATOM     28  C   UNL     1       2.251  12.967  18.442  0.00  0.00    +0.000 A 
ATOM     29  C   UNL     1       2.880  14.159  18.058  0.00  0.00    +0.000 A 
ATOM     30  C   UNL     1       3.166  15.118  19.015  0.00  0.00    +0.000 A 
ATOM     31  F   UNL     1       3.703  16.288  18.649  0.00  0.00    +0.000 F 
ATOM     32  C   UNL     1       2.881  14.883  20.357  0.00  0.00    +0.000 A 
ATOM     33  C   UNL     1       2.255  13.692  20.745  0.00  0.00    +0.000 A 
ENDBRANCH  26  27
ENDBRANCH   7  26
TORSDOF 4
ENDMDL
MODEL 8
REMARK VINA RESULT:      -6.9      2.853      5.739
REMARK  Name = 
REMARK  7 active torsions:
REMARK  status: ('A' for Active; 'I' for Inactive)
REMARK    1  A    between atoms: C_1  and  C_2
REMARK    2  A    between atoms: C_2  and  C_3
REMARK    3  A    between atoms: C_2  and  C_4
REMARK    4  A    between atoms: C_2  and  N_5
REMARK    5  A    between atoms: N_11  and  C_12
REMARK    6  A    between atoms: C_12  and  C_13
REMARK    7  A    between atoms: N_21  and  C_22
REMARK                            x       y       z     vdW  Elec       q    Type
REMARK                         _______ _______ _______ _____ _____    ______ ____
ROOT
ATOM      1  N   UNL     1      -4.854  11.876  19.200  0.00  0.00    +0.000 N 
ATOM      2  N   UNL     1      -5.343  11.118  18.177  0.00  0.00    +0.000 NA
ATOM      3  C   UNL     1      -4.258  10.652  17.562  0.00  0.00    +0.000 A 
ATOM      4  C   UNL     1      -3.088  11.102  18.178  0.00  0.00    +0.000 A 
ATOM      5  C   UNL     1      -1.716  10.862  17.939  0.00  0.00    +0.000 A 
ATOM      6  O   UNL     1      -1.346  10.168  17.005  0.00  0.00    +0.000 OA
ATOM      7  N   UNL     1      -0.869  11.503  18.889  0.00  0.00    +0.000 N 
ATOM      8  C   UNL     1      -1.351  12.454  19.864  0.00  0.00    +0.000 A 
ATOM      9  N   UNL     1      -0.457  13.143  20.702  0.00  0.00    +0.000 N 
ATOM     10  N   UNL     1      -2.646  12.660  20.007  0.00  0.00    +0.000 NA
ATOM     11  C   UNL     1      -3.470  11.941  19.189  0.00  0.00    +0.000 A 
ATOM     12  H   UNL     1       0.515  12.933  20.541  0.00  0.00    +0.000 HD
ENDROOT
BRANCH   9  13
ATOM     13  C   UNL     1      -0.593  14.540  21.209  0.00  0.00    +0.000 C 
ATOM     14  C   UNL     1      -1.152  15.604  20.222  0.00  0.00    +0.000 C 
ATOM     15  C   UNL     1      -1.978  16.641  21.028  0.00  0.00    +0.000 C 
ATOM     16  C   UNL     1      -2.378  15.854  22.228  0.00  0.00    +0.000 A 
ATOM     17  C   UNL     1      -3.334  16.228  23.173  0.00  0.00    +0.000 A 
ATOM     18  C   UNL     1      -3.611  15.352  24.214  0.00  0.00    +0.000 A 
ATOM     19  C   UNL     1      -2.901  14.150  24.318  0.00  0.00    +0.000 A 
ATOM     20  C   UNL     1      -1.902  13.808  23.390  0.00  0.00    +0.000 A 
ATOM     21  C   UNL     1      -1.648  14.657  22.320  0.00  0.00    +0.000 A 
ENDBRANCH   9  13
BRANCH   1  23
ATOM     22  C   UNL     1      -6.906  11.290  20.400  0.00  0.00    +0.000 C 
ATOM     23  C   UNL     1      -5.815  12.361  20.206  0.00  0.00    +0.000 C 
ATOM     24  C   UNL     1      -6.500  13.667  19.728  0.00  0.00    +0.000 C 
ATOM     25  C   UNL     1      -5.139  12.669  21.549  0.00  0.00    +0.000 C 
ENDBRANCH   1  23
BRANCH   7  26
ATOM     26  C   UNL     1       0.534  11.183  18.620  0.00  0.00    +0.000 C 
BRANCH  26  27
ATOM     27  C   UNL     1       0.978   9.769  18.996  0.00  0.00    +0.000 A 
ATOM     28  C   UNL     1       1.684   8.964  18.074  0.00  0.00    +0.000 A 
ATOM     29  C   UNL     1       2.278   7.759  18.473  0.00  0.00    +0.000 A 
ATOM     30  C   UNL     1       2.156   7.342  19.788  0.00  0.00    +0.000 A 
ATOM     31  F   UNL     1       2.777   6.229  20.196  0.00  0.00    +0.000 F 
ATOM     32  C   UNL     1       1.406   8.083  20.696  0.00  0.00    +0.000 A 
ATOM     33  C   UNL     1       0.809   9.286  20.301  0.00  0.00    +0.000 A 
ENDBRANCH  26  27
ENDBRANCH   7  26
TORSDOF 4
ENDMDL
MODEL 9
REMARK VINA RESULT:      -6.9      3.178      6.028
REMARK  Name = 
REMARK  7 active torsions:
REMARK  status: ('A' for Active; 'I' for Inactive)
REMARK    1  A    between atoms: C_1  and  C_2
REMARK    2  A    between atoms: C_2  and  C_3
REMARK    3  A    between atoms: C_2  and  C_4
REMARK    4  A    between atoms: C_2  and  N_5
REMARK    5  A    between atoms: N_11  and  C_12
REMARK    6  A    between atoms: C_12  and  C_13
REMARK    7  A    between atoms: N_21  and  C_22
REMARK                            x       y       z     vdW  Elec       q    Type
REMARK                         _______ _______ _______ _____ _____    ______ ____
ROOT
ATOM      1  N   UNL     1      -4.634  11.944  19.174  0.00  0.00    +0.000 N 
ATOM      2  N   UNL     1      -5.224  11.142  18.242  0.00  0.00    +0.000 NA
ATOM      3  C   UNL     1      -4.205  10.552  17.620  0.00  0.00    +0.000 A 
ATOM      4  C   UNL     1      -2.977  10.966  18.142  0.00  0.00    +0.000 A 
ATOM      5  C   UNL     1      -1.639  10.610  17.863  0.00  0.00    +0.000 A 
ATOM      6  O   UNL     1      -1.363   9.819  16.975  0.00  0.00    +0.000 OA
ATOM      7  N   UNL     1      -0.703  11.263  18.717  0.00  0.00    +0.000 N 
ATOM      8  C   UNL     1      -1.071  12.322  19.630  0.00  0.00    +0.000 A 
ATOM      9  N   UNL     1      -0.091  13.010  20.367  0.00  0.00    +0.000 N 
ATOM     10  N   UNL     1      -2.339  12.631  19.813  0.00  0.00    +0.000 NA
ATOM     11  C   UNL     1      -3.250  11.909  19.096  0.00  0.00    +0.000 A 
ATOM     12  H   UNL     1       0.856  12.720  20.180  0.00  0.00    +0.000 HD
ENDROOT
BRANCH   9  13
ATOM     13  C   UNL     1      -0.107  14.450  20.760  0.00  0.00    +0.000 C 
ATOM     14  C   UNL     1       0.196  14.786  22.248  0.00  0.00    +0.000 C 
ATOM     15  C   UNL     1       0.940  16.146  22.308  0.00  0.00    +0.000 C 
ATOM     16  C   UNL     1       1.562  16.218  20.957  0.00  0.00    +0.000 A 
ATOM     17  C   UNL     1       2.542  17.126  20.553  0.00  0.00    +0.000 A 
ATOM     18  C   UNL     1       3.041  17.027  19.261  0.00  0.00    +0.000 A 
ATOM     19  C   UNL     1       2.524  16.062  18.389  0.00  0.00    +0.000 A 
ATOM     20  C   UNL     1       1.499  15.188  18.789  0.00  0.00    +0.000 A 
ATOM     21  C   UNL     1       1.024  15.249  20.093  0.00  0.00    +0.000 A 
ENDBRANCH   9  13
BRANCH   1  23
ATOM     22  C   UNL     1      -6.833  11.791  20.239  0.00  0.00    +0.000 C 
ATOM     23  C   UNL     1      -5.507  12.576  20.178  0.00  0.00    +0.000 C 
ATOM     24  C   UNL     1      -5.830  14.039  19.783  0.00  0.00    +0.000 C 
ATOM     25  C   UNL     1      -4.858  12.613  21.568  0.00  0.00    +0.000 C 
ENDBRANCH   1  23
BRANCH   7  26
ATOM     26  C   UNL     1       0.659  10.824  18.414  0.00  0.00    +0.000 C 
BRANCH  26  27
ATOM     27  C   UNL     1       1.149   9.595  19.181  0.00  0.00    +0.000 A 
ATOM     28  C   UNL     1       0.748   9.371  20.518  0.00  0.00    +0.000 A 
ATOM     29  C   UNL     1       1.014   8.153  21.157  0.00  0.00    +0.000 A 
ATOM     30  C   UNL     1       1.698   7.160  20.474  0.00  0.00    +0.000 A 
ATOM     31  F   UNL     1       1.896   5.968  21.051  0.00  0.00    +0.000 F 
ATOM     32  C   UNL     1       2.164   7.385  19.183  0.00  0.00    +0.000 A 
ATOM     33  C   UNL     1       1.902   8.601  18.541  0.00  0.00    +0.000 A 
ENDBRANCH  26  27
ENDBRANCH   7  26
TORSDOF 4
ENDMDL
