MODEL 1
REMARK VINA RESULT:      -5.7      0.000      0.000
REMARK  Name = 
REMARK  2 active torsions:
REMARK  status: ('A' for Active; 'I' for Inactive)
REMARK    1  A    between atoms: N_1  and  C_2
REMARK    2  A    between atoms: C_4  and  O_5
REMARK                            x       y       z     vdW  Elec       q    Type
REMARK                         _______ _______ _______ _____ _____    ______ ____
ROOT
ATOM      1  C   UNL     1       5.549   4.097  18.184  0.00  0.00    +0.000 A 
ATOM      2  N   UNL     1       6.178   4.466  19.314  0.00  0.00    +0.000 NA
ATOM      3  C   UNL     1       7.196   5.328  19.211  0.00  0.00    +0.000 A 
ATOM      4  N   UNL     1       7.709   5.891  18.125  0.00  0.00    +0.000 NA
ATOM      5  C   UNL     1       7.079   5.511  16.990  0.00  0.00    +0.000 A 
ATOM      6  N   UNL     1       7.457   5.980  15.739  0.00  0.00    +0.000 NA
ATOM      7  N   UNL     1       6.702   5.475  14.776  0.00  0.00    +0.000 NA
ATOM      8  S   UNL     1       5.527   4.436  15.351  0.00  0.00    +0.000 S 
ATOM      9  C   UNL     1       6.007   4.624  16.985  0.00  0.00    +0.000 A 
ENDROOT
BRANCH   1  10
ATOM     10  N   UNL     1       4.485   3.220  18.298  0.00  0.00    +0.000 N 
ATOM     11  H   UNL     1       3.709   3.449  17.687  0.00  0.00    +0.000 HD
ATOM     12  H   UNL     1       4.259   2.862  19.215  0.00  0.00    +0.000 HD
ENDBRANCH   1  10
BRANCH   3  13
ATOM     13  O   UNL     1       7.767   5.654  20.402  0.00  0.00    +0.000 OA
ATOM     14  H   UNL     1       8.502   6.202  20.082  0.00  0.00    +0.000 HD
ENDBRANCH   3  13
TORSDOF 2
ENDMDL
MODEL 2
REMARK VINA RESULT:      -5.5      1.098      1.098
REMARK  Name = 
REMARK  2 active torsions:
REMARK  status: ('A' for Active; 'I' for Inactive)
REMARK    1  A    between atoms: N_1  and  C_2
REMARK    2  A    between atoms: C_4  and  O_5
REMARK                            x       y       z     vdW  Elec       q    Type
REMARK                         _______ _______ _______ _____ _____    ______ ____
ROOT
ATOM      1  C   UNL     1       5.184   5.161  18.555  0.00  0.00    +0.000 A 
ATOM      2  N   UNL     1       5.953   5.354  19.641  0.00  0.00    +0.000 NA
ATOM      3  C   UNL     1       7.279   5.266  19.493  0.00  0.00    +0.000 A 
ATOM      4  N   UNL     1       7.984   4.998  18.400  0.00  0.00    +0.000 NA
ATOM      5  C   UNL     1       7.206   4.797  17.312  0.00  0.00    +0.000 A 
ATOM      6  N   UNL     1       7.739   4.502  16.064  0.00  0.00    +0.000 NA
ATOM      7  N   UNL     1       6.794   4.346  15.150  0.00  0.00    +0.000 NA
ATOM      8  S   UNL     1       5.255   4.555  15.767  0.00  0.00    +0.000 S 
ATOM      9  C   UNL     1       5.817   4.870  17.355  0.00  0.00    +0.000 A 
ENDROOT
BRANCH   1  10
ATOM     10  N   UNL     1       3.814   5.272  18.709  0.00  0.00    +0.000 N 
ATOM     11  H   UNL     1       3.464   4.811  19.542  0.00  0.00    +0.000 HD
ATOM     12  H   UNL     1       3.236   5.227  17.882  0.00  0.00    +0.000 HD
ENDBRANCH   1  10
BRANCH   3  13
ATOM     13  O   UNL     1       7.979   5.484  20.638  0.00  0.00    +0.000 OA
ATOM     14  H   UNL     1       7.256   5.787  21.212  0.00  0.00    +0.000 HD
ENDBRANCH   3  13
TORSDOF 2
ENDMDL
MODEL 3
REMARK VINA RESULT:      -5.4      4.751      5.536
REMARK  Name = 
REMARK  2 active torsions:
REMARK  status: ('A' for Active; 'I' for Inactive)
REMARK    1  A    between atoms: N_1  and  C_2
REMARK    2  A    between atoms: C_4  and  O_5
REMARK                            x       y       z     vdW  Elec       q    Type
REMARK                         _______ _______ _______ _____ _____    ______ ____
ROOT
ATOM      1  C   UNL     1       3.767   2.430  20.233  0.00  0.00    +0.000 A 
ATOM      2  N   UNL     1       3.083   2.359  21.389  0.00  0.00    +0.000 NA
ATOM      3  C   UNL     1       1.784   2.678  21.368  0.00  0.00    +0.000 A 
ATOM      4  N   UNL     1       1.037   3.078  20.347  0.00  0.00    +0.000 NA
ATOM      5  C   UNL     1       1.730   3.155  19.189  0.00  0.00    +0.000 A 
ATOM      6  N   UNL     1       1.141   3.555  17.997  0.00  0.00    +0.000 NA
ATOM      7  N   UNL     1       2.008   3.557  16.996  0.00  0.00    +0.000 NA
ATOM      8  S   UNL     1       3.538   3.076  17.464  0.00  0.00    +0.000 S 
ATOM      9  C   UNL     1       3.083   2.842  19.099  0.00  0.00    +0.000 A 
ENDROOT
BRANCH   1  10
ATOM     10  N   UNL     1       5.105   2.081  20.256  0.00  0.00    +0.000 N 
ATOM     11  H   UNL     1       5.264   1.112  20.508  0.00  0.00    +0.000 HD
ATOM     12  H   UNL     1       5.769   2.761  20.602  0.00  0.00    +0.000 HD
ENDBRANCH   1  10
BRANCH   3  13
ATOM     13  O   UNL     1       1.169   2.569  22.576  0.00  0.00    +0.000 OA
ATOM     14  H   UNL     1       1.919   2.778  23.157  0.00  0.00    +0.000 HD
ENDBRANCH   3  13
TORSDOF 2
ENDMDL
MODEL 4
REMARK VINA RESULT:      -5.4      1.516      2.871
REMARK  Name = 
REMARK  2 active torsions:
REMARK  status: ('A' for Active; 'I' for Inactive)
REMARK    1  A    between atoms: N_1  and  C_2
REMARK    2  A    between atoms: C_4  and  O_5
REMARK                            x       y       z     vdW  Elec       q    Type
REMARK                         _______ _______ _______ _____ _____    ______ ____
ROOT
ATOM      1  C   UNL     1       7.357   6.885  17.745  0.00  0.00    +0.000 A 
ATOM      2  N   UNL     1       7.992   6.611  18.899  0.00  0.00    +0.000 NA
ATOM      3  C   UNL     1       7.576   5.556  19.608  0.00  0.00    +0.000 A 
ATOM      4  N   UNL     1       6.589   4.708  19.346  0.00  0.00    +0.000 NA
ATOM      5  C   UNL     1       5.948   4.991  18.190  0.00  0.00    +0.000 A 
ATOM      6  N   UNL     1       4.882   4.231  17.727  0.00  0.00    +0.000 NA
ATOM      7  N   UNL     1       4.411   4.692  16.579  0.00  0.00    +0.000 NA
ATOM      8  S   UNL     1       5.238   6.037  16.033  0.00  0.00    +0.000 S 
ATOM      9  C   UNL     1       6.303   6.062  17.374  0.00  0.00    +0.000 A 
ENDROOT
BRANCH   1  10
ATOM     10  N   UNL     1       7.803   7.965  17.007  0.00  0.00    +0.000 N 
ATOM     11  H   UNL     1       8.179   8.715  17.577  0.00  0.00    +0.000 HD
ATOM     12  H   UNL     1       7.277   8.231  16.186  0.00  0.00    +0.000 HD
ENDBRANCH   1  10
BRANCH   3  13
ATOM     13  O   UNL     1       8.280   5.348  20.753  0.00  0.00    +0.000 OA
ATOM     14  H   UNL     1       7.971   6.109  21.271  0.00  0.00    +0.000 HD
ENDBRANCH   3  13
TORSDOF 2
ENDMDL
MODEL 5
REMARK VINA RESULT:      -5.3      0.741      2.864
REMARK  Name = 
REMARK  2 active torsions:
REMARK  status: ('A' for Active; 'I' for Inactive)
REMARK    1  A    between atoms: N_1  and  C_2
REMARK    2  A    between atoms: C_4  and  O_5
REMARK                            x       y       z     vdW  Elec       q    Type
REMARK                         _______ _______ _______ _____ _____    ______ ____
ROOT
ATOM      1  C   UNL     1       7.038   5.718  17.274  0.00  0.00    +0.000 A 
ATOM      2  N   UNL     1       7.726   5.937  18.410  0.00  0.00    +0.000 NA
ATOM      3  C   UNL     1       7.272   5.375  19.535  0.00  0.00    +0.000 A 
ATOM      4  N   UNL     1       6.201   4.612  19.717  0.00  0.00    +0.000 NA
ATOM      5  C   UNL     1       5.508   4.401  18.575  0.00  0.00    +0.000 A 
ATOM      6  N   UNL     1       4.353   3.632  18.540  0.00  0.00    +0.000 NA
ATOM      7  N   UNL     1       3.844   3.563  17.319  0.00  0.00    +0.000 NA
ATOM      8  S   UNL     1       4.742   4.412  16.195  0.00  0.00    +0.000 S 
ATOM      9  C   UNL     1       5.895   4.935  17.349  0.00  0.00    +0.000 A 
ENDROOT
BRANCH   1  10
ATOM     10  N   UNL     1       7.522   6.286  16.110  0.00  0.00    +0.000 N 
ATOM     11  H   UNL     1       7.176   7.225  15.946  0.00  0.00    +0.000 HD
ATOM     12  H   UNL     1       7.638   5.691  15.302  0.00  0.00    +0.000 HD
ENDBRANCH   1  10
BRANCH   3  13
ATOM     13  O   UNL     1       8.032   5.640  20.631  0.00  0.00    +0.000 OA
ATOM     14  H   UNL     1       7.699   4.949  21.228  0.00  0.00    +0.000 HD
ENDBRANCH   3  13
TORSDOF 2
ENDMDL
MODEL 6
REMARK VINA RESULT:      -5.2      2.269      3.611
REMARK  Name = 
REMARK  2 active torsions:
REMARK  status: ('A' for Active; 'I' for Inactive)
REMARK    1  A    between atoms: N_1  and  C_2
REMARK    2  A    between atoms: C_4  and  O_5
REMARK                            x       y       z     vdW  Elec       q    Type
REMARK                         _______ _______ _______ _____ _____    ______ ____
ROOT
ATOM      1  C   UNL     1       5.631   6.031  16.523  0.00  0.00    +0.000 A 
ATOM      2  N   UNL     1       6.802   5.372  16.583  0.00  0.00    +0.000 NA
ATOM      3  C   UNL     1       7.074   4.680  17.694  0.00  0.00    +0.000 A 
ATOM      4  N   UNL     1       6.346   4.542  18.795  0.00  0.00    +0.000 NA
ATOM      5  C   UNL     1       5.173   5.213  18.735  0.00  0.00    +0.000 A 
ATOM      6  N   UNL     1       4.260   5.206  19.780  0.00  0.00    +0.000 NA
ATOM      7  N   UNL     1       3.187   5.929  19.501  0.00  0.00    +0.000 NA
ATOM      8  S   UNL     1       3.251   6.624  17.982  0.00  0.00    +0.000 S 
ATOM      9  C   UNL     1       4.789   5.960  17.625  0.00  0.00    +0.000 A 
ENDROOT
BRANCH   1  10
ATOM     10  N   UNL     1       5.345   6.731  15.365  0.00  0.00    +0.000 N 
ATOM     11  H   UNL     1       5.613   6.237  14.521  0.00  0.00    +0.000 HD
ATOM     12  H   UNL     1       5.471   7.734  15.371  0.00  0.00    +0.000 HD
ENDBRANCH   1  10
BRANCH   3  13
ATOM     13  O   UNL     1       8.273   4.037  17.665  0.00  0.00    +0.000 OA
ATOM     14  H   UNL     1       8.592   4.254  18.557  0.00  0.00    +0.000 HD
ENDBRANCH   3  13
TORSDOF 2
ENDMDL
MODEL 7
REMARK VINA RESULT:      -5.2      3.013      4.062
REMARK  Name = 
REMARK  2 active torsions:
REMARK  status: ('A' for Active; 'I' for Inactive)
REMARK    1  A    between atoms: N_1  and  C_2
REMARK    2  A    between atoms: C_4  and  O_5
REMARK                            x       y       z     vdW  Elec       q    Type
REMARK                         _______ _______ _______ _____ _____    ______ ____
ROOT
ATOM      1  C   UNL     1       4.602   3.040  19.404  0.00  0.00    +0.000 A 
ATOM      2  N   UNL     1       5.523   3.999  19.200  0.00  0.00    +0.000 NA
ATOM      3  C   UNL     1       5.157   5.079  18.501  0.00  0.00    +0.000 A 
ATOM      4  N   UNL     1       3.984   5.360  17.947  0.00  0.00    +0.000 NA
ATOM      5  C   UNL     1       3.064   4.389  18.148  0.00  0.00    +0.000 A 
ATOM      6  N   UNL     1       1.770   4.480  17.652  0.00  0.00    +0.000 NA
ATOM      7  N   UNL     1       1.046   3.418  17.970  0.00  0.00    +0.000 NA
ATOM      8  S   UNL     1       1.899   2.298  18.869  0.00  0.00    +0.000 S 
ATOM      9  C   UNL     1       3.338   3.228  18.864  0.00  0.00    +0.000 A 
ENDROOT
BRANCH   1  10
ATOM     10  N   UNL     1       4.980   1.934  20.144  0.00  0.00    +0.000 N 
ATOM     11  H   UNL     1       4.349   1.728  20.910  0.00  0.00    +0.000 HD
ATOM     12  H   UNL     1       5.966   1.783  20.306  0.00  0.00    +0.000 HD
ENDBRANCH   1  10
BRANCH   3  13
ATOM     13  O   UNL     1       6.145   6.001  18.351  0.00  0.00    +0.000 OA
ATOM     14  H   UNL     1       6.851   5.425  18.014  0.00  0.00    +0.000 HD
ENDBRANCH   3  13
TORSDOF 2
ENDMDL
MODEL 8
REMARK VINA RESULT:      -5.2      1.141      1.206
REMARK  Name = 
REMARK  2 active torsions:
REMARK  status: ('A' for Active; 'I' for Inactive)
REMARK    1  A    between atoms: N_1  and  C_2
REMARK    2  A    between atoms: C_4  and  O_5
REMARK                            x       y       z     vdW  Elec       q    Type
REMARK                         _______ _______ _______ _____ _____    ______ ____
ROOT
ATOM      1  C   UNL     1       6.289   4.539  18.290  0.00  0.00    +0.000 A 
ATOM      2  N   UNL     1       7.018   5.431  18.985  0.00  0.00    +0.000 NA
ATOM      3  C   UNL     1       7.712   6.344  18.297  0.00  0.00    +0.000 A 
ATOM      4  N   UNL     1       7.805   6.510  16.984  0.00  0.00    +0.000 NA
ATOM      5  C   UNL     1       7.077   5.607  16.288  0.00  0.00    +0.000 A 
ATOM      6  N   UNL     1       7.034   5.599  14.901  0.00  0.00    +0.000 NA
ATOM      7  N   UNL     1       6.260   4.629  14.438  0.00  0.00    +0.000 NA
ATOM      8  S   UNL     1       5.569   3.715  15.655  0.00  0.00    +0.000 S 
ATOM      9  C   UNL     1       6.316   4.618  16.905  0.00  0.00    +0.000 A 
ENDROOT
BRANCH   1  10
ATOM     10  N   UNL     1       5.559   3.608  19.007  0.00  0.00    +0.000 N 
ATOM     11  H   UNL     1       4.564   3.647  18.819  0.00  0.00    +0.000 HD
ATOM     12  H   UNL     1       5.841   3.410  19.957  0.00  0.00    +0.000 HD
ENDBRANCH   1  10
BRANCH   3  13
ATOM     13  O   UNL     1       8.411   7.211  19.078  0.00  0.00    +0.000 OA
ATOM     14  H   UNL     1       8.900   6.574  19.625  0.00  0.00    +0.000 HD
ENDBRANCH   3  13
TORSDOF 2
ENDMDL
MODEL 9
REMARK VINA RESULT:      -5.2      2.428      3.749
REMARK  Name = 
REMARK  2 active torsions:
REMARK  status: ('A' for Active; 'I' for Inactive)
REMARK    1  A    between atoms: N_1  and  C_2
REMARK    2  A    between atoms: C_4  and  O_5
REMARK                            x       y       z     vdW  Elec       q    Type
REMARK                         _______ _______ _______ _____ _____    ______ ____
ROOT
ATOM      1  C   UNL     1       7.021   4.932  17.994  0.00  0.00    +0.000 A 
ATOM      2  N   UNL     1       7.607   5.198  16.812  0.00  0.00    +0.000 NA
ATOM      3  C   UNL     1       6.903   4.969  15.699  0.00  0.00    +0.000 A 
ATOM      4  N   UNL     1       5.670   4.494  15.570  0.00  0.00    +0.000 NA
ATOM      5  C   UNL     1       5.087   4.221  16.760  0.00  0.00    +0.000 A 
ATOM      6  N   UNL     1       3.798   3.713  16.855  0.00  0.00    +0.000 NA
ATOM      7  N   UNL     1       3.437   3.523  18.114  0.00  0.00    +0.000 NA
ATOM      8  S   UNL     1       4.629   3.953  19.203  0.00  0.00    +0.000 S 
ATOM      9  C   UNL     1       5.729   4.426  17.978  0.00  0.00    +0.000 A 
ENDROOT
BRANCH   1  10
ATOM     10  N   UNL     1       7.746   5.188  19.143  0.00  0.00    +0.000 N 
ATOM     11  H   UNL     1       7.191   5.134  19.989  0.00  0.00    +0.000 HD
ATOM     12  H   UNL     1       8.461   5.901  19.106  0.00  0.00    +0.000 HD
ENDBRANCH   1  10
BRANCH   3  13
ATOM     13  O   UNL     1       7.567   5.274  14.552  0.00  0.00    +0.000 OA
ATOM     14  H   UNL     1       8.042   4.438  14.415  0.00  0.00    +0.000 HD
ENDBRANCH   3  13
TORSDOF 2
ENDMDL
