MODEL 1
REMARK VINA RESULT:      -7.8      0.000      0.000
REMARK  Name = 
REMARK  9 active torsions:
REMARK  status: ('A' for Active; 'I' for Inactive)
REMARK    1  A    between atoms: C_1  and  N_2
REMARK    2  A    between atoms: N_2  and  C_3
REMARK    3  A    between atoms: C_3  and  C_4
REMARK    4  A    between atoms: C_4  and  C_5
REMARK    5  A    between atoms: C_13  and  C_14
REMARK    6  A    between atoms: N_16  and  C_17
REMARK    7  A    between atoms: C_17  and  C_18
REMARK    8  A    between atoms: C_22  and  N_23
REMARK    9  A    between atoms: C_26  and  O_27
REMARK                            x       y       z     vdW  Elec       q    Type
REMARK                         _______ _______ _______ _____ _____    ______ ____
ROOT
ATOM      1  C   UNL     1       2.703  10.035  17.870  0.00  0.00    +0.000 C 
ATOM      2  N   UNL     1       2.080   8.875  18.467  0.00  0.00    +0.000 N 
ATOM      3  C   UNL     1       2.680   7.653  18.253  0.00  0.00    +0.000 A 
ATOM      4  N   UNL     1       3.721   7.591  17.419  0.00  0.00    +0.000 NA
ATOM      5  C   UNL     1       4.257   6.369  17.214  0.00  0.00    +0.000 A 
ATOM      6  C   UNL     1       3.804   5.220  17.821  0.00  0.00    +0.000 A 
ATOM      7  C   UNL     1       2.749   5.356  18.684  0.00  0.00    +0.000 A 
ATOM      8  N   UNL     1       2.194   6.566  18.878  0.00  0.00    +0.000 NA
ENDROOT
BRANCH   7   9
ATOM      9  N   UNL     1       2.261   4.302  19.414  0.00  0.00    +0.000 N 
ATOM     10  C   UNL     1       1.148   3.499  18.939  0.00  0.00    +0.000 C 
ATOM     11  C   UNL     1       0.665   2.837  20.222  0.00  0.00    +0.000 C 
ATOM     12  C   UNL     1       1.933   2.628  21.051  0.00  0.00    +0.000 C 
ATOM     13  C   UNL     1       2.985   3.592  20.459  0.00  0.00    +0.000 C 
BRANCH  12  14
ATOM     14  O   UNL     1       1.664   2.926  22.419  0.00  0.00    +0.000 OA
ATOM     15  H   UNL     1       1.535   2.075  22.878  0.00  0.00    +0.000 HD
ENDBRANCH  12  14
ENDBRANCH   7   9
BRANCH   5  16
ATOM     16  C   UNL     1       5.403   6.298  16.262  0.00  0.00    +0.000 C 
ATOM     17  O   UNL     1       6.250   7.183  16.224  0.00  0.00    +0.000 OA
ATOM     18  N   UNL     1       5.444   5.173  15.463  0.00  0.00    +0.000 N 
ATOM     19  H   UNL     1       4.677   4.512  15.553  0.00  0.00    +0.000 HD
BRANCH  18  20
ATOM     20  C   UNL     1       6.479   4.981  14.475  0.00  0.00    +0.000 C 
BRANCH  20  21
ATOM     21  C   UNL     1       6.230   3.735  13.689  0.00  0.00    +0.000 C 
ATOM     22  C   UNL     1       5.165   3.680  12.622  0.00  0.00    +0.000 C 
ATOM     23  C   UNL     1       6.615   3.666  12.231  0.00  0.00    +0.000 C 
ENDBRANCH  20  21
ENDBRANCH  18  20
ENDBRANCH   5  16
BRANCH   2  24
ATOM     24  C   UNL     1       0.786   8.946  19.147  0.00  0.00    +0.000 C 
BRANCH  24  25
ATOM     25  C   UNL     1       0.262  10.389  19.236  0.00  0.00    +0.000 C 
BRANCH  25  26
ATOM     26  C   UNL     1      -1.083  10.558  18.574  0.00  0.00    +0.000 A 
ATOM     27  C   UNL     1      -1.396   9.844  17.409  0.00  0.00    +0.000 A 
ATOM     28  C   UNL     1      -2.634  10.013  16.789  0.00  0.00    +0.000 A 
ATOM     29  C   UNL     1      -3.568  10.896  17.326  0.00  0.00    +0.000 A 
ATOM     30  C   UNL     1      -3.266  11.610  18.485  0.00  0.00    +0.000 A 
ATOM     31  C   UNL     1      -2.028  11.443  19.107  0.00  0.00    +0.000 A 
ENDBRANCH  25  26
ENDBRANCH  24  25
ENDBRANCH   2  24
TORSDOF 8
ENDMDL
MODEL 2
REMARK VINA RESULT:      -7.8      0.653      1.108
REMARK  Name = 
REMARK  9 active torsions:
REMARK  status: ('A' for Active; 'I' for Inactive)
REMARK    1  A    between atoms: C_1  and  N_2
REMARK    2  A    between atoms: N_2  and  C_3
REMARK    3  A    between atoms: C_3  and  C_4
REMARK    4  A    between atoms: C_4  and  C_5
REMARK    5  A    between atoms: C_13  and  C_14
REMARK    6  A    between atoms: N_16  and  C_17
REMARK    7  A    between atoms: C_17  and  C_18
REMARK    8  A    between atoms: C_22  and  N_23
REMARK    9  A    between atoms: C_26  and  O_27
REMARK                            x       y       z     vdW  Elec       q    Type
REMARK                         _______ _______ _______ _____ _____    ______ ____
ROOT
ATOM      1  C   UNL     1       2.547  10.020  17.887  0.00  0.00    +0.000 C 
ATOM      2  N   UNL     1       2.021   8.874  18.594  0.00  0.00    +0.000 N 
ATOM      3  C   UNL     1       2.602   7.650  18.338  0.00  0.00    +0.000 A 
ATOM      4  N   UNL     1       3.526   7.571  17.378  0.00  0.00    +0.000 NA
ATOM      5  C   UNL     1       4.045   6.348  17.140  0.00  0.00    +0.000 A 
ATOM      6  C   UNL     1       3.688   5.214  17.834  0.00  0.00    +0.000 A 
ATOM      7  C   UNL     1       2.753   5.368  18.824  0.00  0.00    +0.000 A 
ATOM      8  N   UNL     1       2.215   6.578  19.053  0.00  0.00    +0.000 NA
ENDROOT
BRANCH   7   9
ATOM      9  N   UNL     1       2.378   4.333  19.642  0.00  0.00    +0.000 N 
ATOM     10  C   UNL     1       1.002   4.175  20.083  0.00  0.00    +0.000 C 
ATOM     11  C   UNL     1       1.162   3.268  21.296  0.00  0.00    +0.000 C 
ATOM     12  C   UNL     1       2.348   2.365  20.950  0.00  0.00    +0.000 C 
ATOM     13  C   UNL     1       3.111   3.087  19.819  0.00  0.00    +0.000 C 
BRANCH  12  14
ATOM     14  O   UNL     1       3.167   2.190  22.104  0.00  0.00    +0.000 OA
ATOM     15  H   UNL     1       4.095   2.234  21.807  0.00  0.00    +0.000 HD
ENDBRANCH  12  14
ENDBRANCH   7   9
BRANCH   5  16
ATOM     16  C   UNL     1       5.058   6.256  16.049  0.00  0.00    +0.000 C 
ATOM     17  O   UNL     1       5.159   7.138  15.204  0.00  0.00    +0.000 OA
ATOM     18  N   UNL     1       5.866   5.137  16.079  0.00  0.00    +0.000 N 
ATOM     19  H   UNL     1       5.681   4.451  16.805  0.00  0.00    +0.000 HD
BRANCH  18  20
ATOM     20  C   UNL     1       6.871   4.900  15.071  0.00  0.00    +0.000 C 
BRANCH  20  21
ATOM     21  C   UNL     1       6.452   3.792  14.160  0.00  0.00    +0.000 C 
ATOM     22  C   UNL     1       5.246   3.929  13.264  0.00  0.00    +0.000 C 
ATOM     23  C   UNL     1       6.625   3.928  12.667  0.00  0.00    +0.000 C 
ENDBRANCH  20  21
ENDBRANCH  18  20
ENDBRANCH   5  16
BRANCH   2  24
ATOM     24  C   UNL     1       0.826   8.955  19.435  0.00  0.00    +0.000 C 
BRANCH  24  25
ATOM     25  C   UNL     1       0.282  10.391  19.524  0.00  0.00    +0.000 C 
BRANCH  25  26
ATOM     26  C   UNL     1      -0.993  10.576  18.741  0.00  0.00    +0.000 A 
ATOM     27  C   UNL     1      -1.985  11.456  19.196  0.00  0.00    +0.000 A 
ATOM     28  C   UNL     1      -3.171  11.615  18.479  0.00  0.00    +0.000 A 
ATOM     29  C   UNL     1      -3.376  10.896  17.303  0.00  0.00    +0.000 A 
ATOM     30  C   UNL     1      -2.395  10.020  16.842  0.00  0.00    +0.000 A 
ATOM     31  C   UNL     1      -1.208   9.859  17.557  0.00  0.00    +0.000 A 
ENDBRANCH  25  26
ENDBRANCH  24  25
ENDBRANCH   2  24
TORSDOF 8
ENDMDL
MODEL 3
REMARK VINA RESULT:      -7.8      1.411      2.097
REMARK  Name = 
REMARK  9 active torsions:
REMARK  status: ('A' for Active; 'I' for Inactive)
REMARK    1  A    between atoms: C_1  and  N_2
REMARK    2  A    between atoms: N_2  and  C_3
REMARK    3  A    between atoms: C_3  and  C_4
REMARK    4  A    between atoms: C_4  and  C_5
REMARK    5  A    between atoms: C_13  and  C_14
REMARK    6  A    between atoms: N_16  and  C_17
REMARK    7  A    between atoms: C_17  and  C_18
REMARK    8  A    between atoms: C_22  and  N_23
REMARK    9  A    between atoms: C_26  and  O_27
REMARK                            x       y       z     vdW  Elec       q    Type
REMARK                         _______ _______ _______ _____ _____    ______ ____
ROOT
ATOM      1  C   UNL     1       2.678   9.872  17.830  0.00  0.00    +0.000 C 
ATOM      2  N   UNL     1       2.069   8.699  18.416  0.00  0.00    +0.000 N 
ATOM      3  C   UNL     1       2.688   7.487  18.197  0.00  0.00    +0.000 A 
ATOM      4  N   UNL     1       3.735   7.445  17.370  0.00  0.00    +0.000 NA
ATOM      5  C   UNL     1       4.290   6.233  17.160  0.00  0.00    +0.000 A 
ATOM      6  C   UNL     1       3.850   5.074  17.757  0.00  0.00    +0.000 A 
ATOM      7  C   UNL     1       2.787   5.189  18.614  0.00  0.00    +0.000 A 
ATOM      8  N   UNL     1       2.214   6.388  18.812  0.00  0.00    +0.000 NA
ENDROOT
BRANCH   7   9
ATOM      9  N   UNL     1       2.311   4.123  19.334  0.00  0.00    +0.000 N 
ATOM     10  C   UNL     1       1.239   3.283  18.828  0.00  0.00    +0.000 C 
ATOM     11  C   UNL     1       0.737   2.611  20.099  0.00  0.00    +0.000 C 
ATOM     12  C   UNL     1       1.985   2.447  20.968  0.00  0.00    +0.000 C 
ATOM     13  C   UNL     1       3.024   3.440  20.405  0.00  0.00    +0.000 C 
BRANCH  12  14
ATOM     14  O   UNL     1       1.663   2.742  22.326  0.00  0.00    +0.000 OA
ATOM     15  H   UNL     1       2.499   2.741  22.827  0.00  0.00    +0.000 HD
ENDBRANCH  12  14
ENDBRANCH   7   9
BRANCH   5  16
ATOM     16  C   UNL     1       5.443   6.185  16.215  0.00  0.00    +0.000 C 
ATOM     17  O   UNL     1       6.325   7.035  16.249  0.00  0.00    +0.000 OA
ATOM     18  N   UNL     1       5.448   5.120  15.336  0.00  0.00    +0.000 N 
ATOM     19  H   UNL     1       4.654   4.487  15.370  0.00  0.00    +0.000 HD
BRANCH  18  20
ATOM     20  C   UNL     1       6.485   4.959  14.345  0.00  0.00    +0.000 C 
BRANCH  20  21
ATOM     21  C   UNL     1       6.281   3.698  13.570  0.00  0.00    +0.000 C 
ATOM     22  C   UNL     1       5.212   3.592  12.511  0.00  0.00    +0.000 C 
ATOM     23  C   UNL     1       6.659   3.631  12.111  0.00  0.00    +0.000 C 
ENDBRANCH  20  21
ENDBRANCH  18  20
ENDBRANCH   5  16
BRANCH   2  24
ATOM     24  C   UNL     1       0.770   8.746  19.088  0.00  0.00    +0.000 C 
BRANCH  24  25
ATOM     25  C   UNL     1       0.246  10.186  19.226  0.00  0.00    +0.000 C 
BRANCH  25  26
ATOM     26  C   UNL     1      -0.276  10.482  20.609  0.00  0.00    +0.000 A 
ATOM     27  C   UNL     1      -0.133   9.542  21.639  0.00  0.00    +0.000 A 
ATOM     28  C   UNL     1      -0.630   9.811  22.915  0.00  0.00    +0.000 A 
ATOM     29  C   UNL     1      -1.275  11.019  23.171  0.00  0.00    +0.000 A 
ATOM     30  C   UNL     1      -1.421  11.961  22.153  0.00  0.00    +0.000 A 
ATOM     31  C   UNL     1      -0.925  11.694  20.877  0.00  0.00    +0.000 A 
ENDBRANCH  25  26
ENDBRANCH  24  25
ENDBRANCH   2  24
TORSDOF 8
ENDMDL
MODEL 4
REMARK VINA RESULT:      -7.7      0.827      1.032
REMARK  Name = 
REMARK  9 active torsions:
REMARK  status: ('A' for Active; 'I' for Inactive)
REMARK    1  A    between atoms: C_1  and  N_2
REMARK    2  A    between atoms: N_2  and  C_3
REMARK    3  A    between atoms: C_3  and  C_4
REMARK    4  A    between atoms: C_4  and  C_5
REMARK    5  A    between atoms: C_13  and  C_14
REMARK    6  A    between atoms: N_16  and  C_17
REMARK    7  A    between atoms: C_17  and  C_18
REMARK    8  A    between atoms: C_22  and  N_23
REMARK    9  A    between atoms: C_26  and  O_27
REMARK                            x       y       z     vdW  Elec       q    Type
REMARK                         _______ _______ _______ _____ _____    ______ ____
ROOT
ATOM      1  C   UNL     1       2.687  10.297  17.810  0.00  0.00    +0.000 C 
ATOM      2  N   UNL     1       1.966   9.149  18.309  0.00  0.00    +0.000 N 
ATOM      3  C   UNL     1       2.534   7.908  18.112  0.00  0.00    +0.000 A 
ATOM      4  N   UNL     1       3.646   7.825  17.378  0.00  0.00    +0.000 NA
ATOM      5  C   UNL     1       4.150   6.588  17.185  0.00  0.00    +0.000 A 
ATOM      6  C   UNL     1       3.596   5.443  17.709  0.00  0.00    +0.000 A 
ATOM      7  C   UNL     1       2.470   5.600  18.474  0.00  0.00    +0.000 A 
ATOM      8  N   UNL     1       1.949   6.825  18.655  0.00  0.00    +0.000 NA
ENDROOT
BRANCH   7   9
ATOM      9  N   UNL     1       1.875   4.547  19.122  0.00  0.00    +0.000 N 
ATOM     10  C   UNL     1       1.525   4.622  20.530  0.00  0.00    +0.000 C 
ATOM     11  C   UNL     1       1.384   3.150  20.899  0.00  0.00    +0.000 C 
ATOM     12  C   UNL     1       0.838   2.486  19.634  0.00  0.00    +0.000 C 
ATOM     13  C   UNL     1       1.147   3.462  18.478  0.00  0.00    +0.000 C 
BRANCH  12  14
ATOM     14  O   UNL     1       1.480   1.227  19.441  0.00  0.00    +0.000 OA
ATOM     15  H   UNL     1       2.430   1.360  19.615  0.00  0.00    +0.000 HD
ENDBRANCH  12  14
ENDBRANCH   7   9
BRANCH   5  16
ATOM     16  C   UNL     1       5.377   6.495  16.342  0.00  0.00    +0.000 C 
ATOM     17  O   UNL     1       6.287   7.309  16.456  0.00  0.00    +0.000 OA
ATOM     18  N   UNL     1       5.415   5.434  15.460  0.00  0.00    +0.000 N 
ATOM     19  H   UNL     1       4.596   4.833  15.422  0.00  0.00    +0.000 HD
BRANCH  18  20
ATOM     20  C   UNL     1       6.526   5.233  14.561  0.00  0.00    +0.000 C 
BRANCH  20  21
ATOM     21  C   UNL     1       6.399   3.923  13.853  0.00  0.00    +0.000 C 
ATOM     22  C   UNL     1       5.275   3.663  12.881  0.00  0.00    +0.000 C 
ATOM     23  C   UNL     1       6.680   3.828  12.373  0.00  0.00    +0.000 C 
ENDBRANCH  20  21
ENDBRANCH  18  20
ENDBRANCH   5  16
BRANCH   2  24
ATOM     24  C   UNL     1       0.617   9.255  18.868  0.00  0.00    +0.000 C 
BRANCH  24  25
ATOM     25  C   UNL     1       0.052  10.680  18.738  0.00  0.00    +0.000 C 
BRANCH  25  26
ATOM     26  C   UNL     1      -1.348  10.698  18.177  0.00  0.00    +0.000 A 
ATOM     27  C   UNL     1      -1.703   9.841  17.127  0.00  0.00    +0.000 A 
ATOM     28  C   UNL     1      -2.994   9.870  16.598  0.00  0.00    +0.000 A 
ATOM     29  C   UNL     1      -3.938  10.757  17.111  0.00  0.00    +0.000 A 
ATOM     30  C   UNL     1      -3.594  11.613  18.156  0.00  0.00    +0.000 A 
ATOM     31  C   UNL     1      -2.303  11.586  18.687  0.00  0.00    +0.000 A 
ENDBRANCH  25  26
ENDBRANCH  24  25
ENDBRANCH   2  24
TORSDOF 8
ENDMDL
MODEL 5
REMARK VINA RESULT:      -7.7      1.570      2.317
REMARK  Name = 
REMARK  9 active torsions:
REMARK  status: ('A' for Active; 'I' for Inactive)
REMARK    1  A    between atoms: C_1  and  N_2
REMARK    2  A    between atoms: N_2  and  C_3
REMARK    3  A    between atoms: C_3  and  C_4
REMARK    4  A    between atoms: C_4  and  C_5
REMARK    5  A    between atoms: C_13  and  C_14
REMARK    6  A    between atoms: N_16  and  C_17
REMARK    7  A    between atoms: C_17  and  C_18
REMARK    8  A    between atoms: C_22  and  N_23
REMARK    9  A    between atoms: C_26  and  O_27
REMARK                            x       y       z     vdW  Elec       q    Type
REMARK                         _______ _______ _______ _____ _____    ______ ____
ROOT
ATOM      1  C   UNL     1       2.432   9.832  17.795  0.00  0.00    +0.000 C 
ATOM      2  N   UNL     1       2.057   8.692  18.600  0.00  0.00    +0.000 N 
ATOM      3  C   UNL     1       2.791   7.536  18.443  0.00  0.00    +0.000 A 
ATOM      4  N   UNL     1       3.719   7.495  17.484  0.00  0.00    +0.000 NA
ATOM      5  C   UNL     1       4.392   6.333  17.346  0.00  0.00    +0.000 A 
ATOM      6  C   UNL     1       4.182   5.226  18.135  0.00  0.00    +0.000 A 
ATOM      7  C   UNL     1       3.233   5.341  19.116  0.00  0.00    +0.000 A 
ATOM      8  N   UNL     1       2.543   6.487  19.248  0.00  0.00    +0.000 NA
ENDROOT
BRANCH   7   9
ATOM      9  N   UNL     1       2.992   4.339  20.021  0.00  0.00    +0.000 N 
ATOM     10  C   UNL     1       3.836   3.158  20.090  0.00  0.00    +0.000 C 
ATOM     11  C   UNL     1       2.939   2.171  20.824  0.00  0.00    +0.000 C 
ATOM     12  C   UNL     1       2.124   3.033  21.790  0.00  0.00    +0.000 C 
ATOM     13  C   UNL     1       2.215   4.475  21.246  0.00  0.00    +0.000 C 
BRANCH  12  14
ATOM     14  O   UNL     1       0.775   2.571  21.821  0.00  0.00    +0.000 OA
ATOM     15  H   UNL     1       0.747   1.809  22.430  0.00  0.00    +0.000 HD
ENDBRANCH  12  14
ENDBRANCH   7   9
BRANCH   5  16
ATOM     16  C   UNL     1       5.411   6.281  16.257  0.00  0.00    +0.000 C 
ATOM     17  O   UNL     1       6.262   7.156  16.145  0.00  0.00    +0.000 OA
ATOM     18  N   UNL     1       5.332   5.186  15.420  0.00  0.00    +0.000 N 
ATOM     19  H   UNL     1       4.571   4.533  15.581  0.00  0.00    +0.000 HD
BRANCH  18  20
ATOM     20  C   UNL     1       6.233   5.016  14.306  0.00  0.00    +0.000 C 
BRANCH  20  21
ATOM     21  C   UNL     1       5.968   3.722  13.607  0.00  0.00    +0.000 C 
ATOM     22  C   UNL     1       5.040   3.649  12.420  0.00  0.00    +0.000 C 
ATOM     23  C   UNL     1       6.520   3.478  12.224  0.00  0.00    +0.000 C 
ENDBRANCH  20  21
ENDBRANCH  18  20
ENDBRANCH   5  16
BRANCH   2  24
ATOM     24  C   UNL     1       0.860   8.689  19.442  0.00  0.00    +0.000 C 
BRANCH  24  25
ATOM     25  C   UNL     1       0.086  10.015  19.345  0.00  0.00    +0.000 C 
BRANCH  25  26
ATOM     26  C   UNL     1      -0.455  10.469  20.678  0.00  0.00    +0.000 A 
ATOM     27  C   UNL     1      -1.172  11.669  20.782  0.00  0.00    +0.000 A 
ATOM     28  C   UNL     1      -1.659  12.095  22.019  0.00  0.00    +0.000 A 
ATOM     29  C   UNL     1      -1.432  11.327  23.159  0.00  0.00    +0.000 A 
ATOM     30  C   UNL     1      -0.722  10.131  23.065  0.00  0.00    +0.000 A 
ATOM     31  C   UNL     1      -0.233   9.703  21.829  0.00  0.00    +0.000 A 
ENDBRANCH  25  26
ENDBRANCH  24  25
ENDBRANCH   2  24
TORSDOF 8
ENDMDL
MODEL 6
REMARK VINA RESULT:      -7.5      1.658      2.353
REMARK  Name = 
REMARK  9 active torsions:
REMARK  status: ('A' for Active; 'I' for Inactive)
REMARK    1  A    between atoms: C_1  and  N_2
REMARK    2  A    between atoms: N_2  and  C_3
REMARK    3  A    between atoms: C_3  and  C_4
REMARK    4  A    between atoms: C_4  and  C_5
REMARK    5  A    between atoms: C_13  and  C_14
REMARK    6  A    between atoms: N_16  and  C_17
REMARK    7  A    between atoms: C_17  and  C_18
REMARK    8  A    between atoms: C_22  and  N_23
REMARK    9  A    between atoms: C_26  and  O_27
REMARK                            x       y       z     vdW  Elec       q    Type
REMARK                         _______ _______ _______ _____ _____    ______ ____
ROOT
ATOM      1  C   UNL     1       2.771  10.277  17.764  0.00  0.00    +0.000 C 
ATOM      2  N   UNL     1       2.025   9.137  18.248  0.00  0.00    +0.000 N 
ATOM      3  C   UNL     1       2.578   7.889  18.056  0.00  0.00    +0.000 A 
ATOM      4  N   UNL     1       3.700   7.792  17.339  0.00  0.00    +0.000 NA
ATOM      5  C   UNL     1       4.188   6.549  17.150  0.00  0.00    +0.000 A 
ATOM      6  C   UNL     1       3.610   5.410  17.663  0.00  0.00    +0.000 A 
ATOM      7  C   UNL     1       2.475   5.581  18.410  0.00  0.00    +0.000 A 
ATOM      8  N   UNL     1       1.968   6.814  18.586  0.00  0.00    +0.000 NA
ENDROOT
BRANCH   7   9
ATOM      9  N   UNL     1       1.854   4.535  19.045  0.00  0.00    +0.000 N 
ATOM     10  C   UNL     1       1.457   4.622  20.440  0.00  0.00    +0.000 C 
ATOM     11  C   UNL     1       1.298   3.154  20.814  0.00  0.00    +0.000 C 
ATOM     12  C   UNL     1       0.792   2.482  19.537  0.00  0.00    +0.000 C 
ATOM     13  C   UNL     1       1.144   3.448  18.385  0.00  0.00    +0.000 C 
BRANCH  12  14
ATOM     14  O   UNL     1       1.435   1.219  19.375  0.00  0.00    +0.000 OA
ATOM     15  H   UNL     1       0.781   0.532  19.601  0.00  0.00    +0.000 HD
ENDBRANCH  12  14
ENDBRANCH   7   9
BRANCH   5  16
ATOM     16  C   UNL     1       5.428   6.440  16.327  0.00  0.00    +0.000 C 
ATOM     17  O   UNL     1       6.364   7.214  16.486  0.00  0.00    +0.000 OA
ATOM     18  N   UNL     1       5.443   5.410  15.407  0.00  0.00    +0.000 N 
ATOM     19  H   UNL     1       4.603   4.842  15.333  0.00  0.00    +0.000 HD
BRANCH  18  20
ATOM     20  C   UNL     1       6.563   5.200  14.521  0.00  0.00    +0.000 C 
BRANCH  20  21
ATOM     21  C   UNL     1       6.422   3.902  13.794  0.00  0.00    +0.000 C 
ATOM     22  C   UNL     1       5.365   3.707  12.736  0.00  0.00    +0.000 C 
ATOM     23  C   UNL     1       6.812   3.798  12.340  0.00  0.00    +0.000 C 
ENDBRANCH  20  21
ENDBRANCH  18  20
ENDBRANCH   5  16
BRANCH   2  24
ATOM     24  C   UNL     1       0.669   9.262  18.786  0.00  0.00    +0.000 C 
BRANCH  24  25
ATOM     25  C   UNL     1       0.369  10.693  19.261  0.00  0.00    +0.000 C 
BRANCH  25  26
ATOM     26  C   UNL     1      -0.183  10.734  20.664  0.00  0.00    +0.000 A 
ATOM     27  C   UNL     1       0.111   9.708  21.573  0.00  0.00    +0.000 A 
ATOM     28  C   UNL     1      -0.414   9.739  22.865  0.00  0.00    +0.000 A 
ATOM     29  C   UNL     1      -1.235  10.792  23.259  0.00  0.00    +0.000 A 
ATOM     30  C   UNL     1      -1.533  11.817  22.363  0.00  0.00    +0.000 A 
ATOM     31  C   UNL     1      -1.010  11.789  21.069  0.00  0.00    +0.000 A 
ENDBRANCH  25  26
ENDBRANCH  24  25
ENDBRANCH   2  24
TORSDOF 8
ENDMDL
MODEL 7
REMARK VINA RESULT:      -7.2      2.214      7.973
REMARK  Name = 
REMARK  9 active torsions:
REMARK  status: ('A' for Active; 'I' for Inactive)
REMARK    1  A    between atoms: C_1  and  N_2
REMARK    2  A    between atoms: N_2  and  C_3
REMARK    3  A    between atoms: C_3  and  C_4
REMARK    4  A    between atoms: C_4  and  C_5
REMARK    5  A    between atoms: C_13  and  C_14
REMARK    6  A    between atoms: N_16  and  C_17
REMARK    7  A    between atoms: C_17  and  C_18
REMARK    8  A    between atoms: C_22  and  N_23
REMARK    9  A    between atoms: C_26  and  O_27
REMARK                            x       y       z     vdW  Elec       q    Type
REMARK                         _______ _______ _______ _____ _____    ______ ____
ROOT
ATOM      1  C   UNL     1       5.098   6.982  15.330  0.00  0.00    +0.000 C 
ATOM      2  N   UNL     1       5.025   5.971  16.360  0.00  0.00    +0.000 N 
ATOM      3  C   UNL     1       4.125   6.173  17.385  0.00  0.00    +0.000 A 
ATOM      4  N   UNL     1       3.465   7.332  17.433  0.00  0.00    +0.000 NA
ATOM      5  C   UNL     1       2.618   7.500  18.471  0.00  0.00    +0.000 A 
ATOM      6  C   UNL     1       2.397   6.551  19.443  0.00  0.00    +0.000 A 
ATOM      7  C   UNL     1       3.088   5.375  19.321  0.00  0.00    +0.000 A 
ATOM      8  N   UNL     1       3.950   5.207  18.303  0.00  0.00    +0.000 NA
ENDROOT
BRANCH   7   9
ATOM      9  N   UNL     1       2.893   4.320  20.177  0.00  0.00    +0.000 N 
ATOM     10  C   UNL     1       3.663   3.094  20.060  0.00  0.00    +0.000 C 
ATOM     11  C   UNL     1       2.798   2.103  20.828  0.00  0.00    +0.000 C 
ATOM     12  C   UNL     1       2.158   2.931  21.943  0.00  0.00    +0.000 C 
ATOM     13  C   UNL     1       2.274   4.404  21.493  0.00  0.00    +0.000 C 
BRANCH  12  14
ATOM     14  O   UNL     1       0.796   2.541  22.106  0.00  0.00    +0.000 OA
ATOM     15  H   UNL     1       0.334   2.758  21.275  0.00  0.00    +0.000 HD
ENDBRANCH  12  14
ENDBRANCH   7   9
BRANCH   5  16
ATOM     16  C   UNL     1       1.900   8.806  18.538  0.00  0.00    +0.000 C 
ATOM     17  O   UNL     1       1.937   9.597  17.603  0.00  0.00    +0.000 OA
ATOM     18  N   UNL     1       1.191   9.037  19.701  0.00  0.00    +0.000 N 
ATOM     19  H   UNL     1       1.250   8.329  20.428  0.00  0.00    +0.000 HD
BRANCH  18  20
ATOM     20  C   UNL     1       0.472  10.268  19.919  0.00  0.00    +0.000 C 
BRANCH  20  21
ATOM     21  C   UNL     1      -0.530  10.105  21.016  0.00  0.00    +0.000 C 
ATOM     22  C   UNL     1      -0.316   9.112  22.132  0.00  0.00    +0.000 C 
ATOM     23  C   UNL     1      -0.215  10.585  22.411  0.00  0.00    +0.000 C 
ENDBRANCH  20  21
ENDBRANCH  18  20
ENDBRANCH   5  16
BRANCH   2  24
ATOM     24  C   UNL     1       5.959   4.846  16.419  0.00  0.00    +0.000 C 
BRANCH  24  25
ATOM     25  C   UNL     1       7.213   5.095  15.562  0.00  0.00    +0.000 C 
BRANCH  25  26
ATOM     26  C   UNL     1       7.029   4.666  14.128  0.00  0.00    +0.000 A 
ATOM     27  C   UNL     1       6.082   3.688  13.795  0.00  0.00    +0.000 A 
ATOM     28  C   UNL     1       5.924   3.280  12.470  0.00  0.00    +0.000 A 
ATOM     29  C   UNL     1       6.710   3.844  11.469  0.00  0.00    +0.000 A 
ATOM     30  C   UNL     1       7.654   4.818  11.790  0.00  0.00    +0.000 A 
ATOM     31  C   UNL     1       7.815   5.228  13.115  0.00  0.00    +0.000 A 
ENDBRANCH  25  26
ENDBRANCH  24  25
ENDBRANCH   2  24
TORSDOF 8
ENDMDL
MODEL 8
REMARK VINA RESULT:      -7.2      4.114      7.371
REMARK  Name = 
REMARK  9 active torsions:
REMARK  status: ('A' for Active; 'I' for Inactive)
REMARK    1  A    between atoms: C_1  and  N_2
REMARK    2  A    between atoms: N_2  and  C_3
REMARK    3  A    between atoms: C_3  and  C_4
REMARK    4  A    between atoms: C_4  and  C_5
REMARK    5  A    between atoms: C_13  and  C_14
REMARK    6  A    between atoms: N_16  and  C_17
REMARK    7  A    between atoms: C_17  and  C_18
REMARK    8  A    between atoms: C_22  and  N_23
REMARK    9  A    between atoms: C_26  and  O_27
REMARK                            x       y       z     vdW  Elec       q    Type
REMARK                         _______ _______ _______ _____ _____    ______ ____
ROOT
ATOM      1  C   UNL     1       3.244   6.324  19.493  0.00  0.00    +0.000 C 
ATOM      2  N   UNL     1       3.384   5.806  18.151  0.00  0.00    +0.000 N 
ATOM      3  C   UNL     1       4.626   5.900  17.561  0.00  0.00    +0.000 A 
ATOM      4  N   UNL     1       5.590   6.562  18.205  0.00  0.00    +0.000 NA
ATOM      5  C   UNL     1       6.780   6.656  17.577  0.00  0.00    +0.000 A 
ATOM      6  C   UNL     1       7.044   6.102  16.345  0.00  0.00    +0.000 A 
ATOM      7  C   UNL     1       6.020   5.415  15.748  0.00  0.00    +0.000 A 
ATOM      8  N   UNL     1       4.824   5.334  16.357  0.00  0.00    +0.000 NA
ENDROOT
BRANCH   7   9
ATOM      9  N   UNL     1       6.182   4.746  14.561  0.00  0.00    +0.000 N 
ATOM     10  C   UNL     1       7.395   4.883  13.773  0.00  0.00    +0.000 C 
ATOM     11  C   UNL     1       6.935   4.408  12.400  0.00  0.00    +0.000 C 
ATOM     12  C   UNL     1       5.896   3.324  12.695  0.00  0.00    +0.000 C 
ATOM     13  C   UNL     1       5.447   3.557  14.154  0.00  0.00    +0.000 C 
BRANCH  12  14
ATOM     14  O   UNL     1       4.804   3.450  11.786  0.00  0.00    +0.000 OA
ATOM     15  H   UNL     1       4.085   3.906  12.262  0.00  0.00    +0.000 HD
ENDBRANCH  12  14
ENDBRANCH   7   9
BRANCH   5  16
ATOM     16  C   UNL     1       7.848   7.418  18.287  0.00  0.00    +0.000 C 
ATOM     17  O   UNL     1       8.617   6.859  19.061  0.00  0.00    +0.000 OA
ATOM     18  N   UNL     1       7.913   8.765  17.994  0.00  0.00    +0.000 N 
ATOM     19  H   UNL     1       7.210   9.137  17.360  0.00  0.00    +0.000 HD
BRANCH  18  20
ATOM     20  C   UNL     1       8.876   9.634  18.626  0.00  0.00    +0.000 C 
BRANCH  20  21
ATOM     21  C   UNL     1       8.965  10.938  17.901  0.00  0.00    +0.000 C 
ATOM     22  C   UNL     1       9.234  12.227  18.637  0.00  0.00    +0.000 C 
ATOM     23  C   UNL     1      10.294  11.636  17.752  0.00  0.00    +0.000 C 
ENDBRANCH  20  21
ENDBRANCH  18  20
ENDBRANCH   5  16
BRANCH   2  24
ATOM     24  C   UNL     1       2.238   5.335  17.372  0.00  0.00    +0.000 C 
BRANCH  24  25
ATOM     25  C   UNL     1       2.019   3.820  17.530  0.00  0.00    +0.000 C 
BRANCH  25  26
ATOM     26  C   UNL     1       2.115   3.368  18.966  0.00  0.00    +0.000 A 
ATOM     27  C   UNL     1       3.280   2.748  19.439  0.00  0.00    +0.000 A 
ATOM     28  C   UNL     1       3.362   2.316  20.763  0.00  0.00    +0.000 A 
ATOM     29  C   UNL     1       2.282   2.499  21.624  0.00  0.00    +0.000 A 
ATOM     30  C   UNL     1       1.120   3.116  21.163  0.00  0.00    +0.000 A 
ATOM     31  C   UNL     1       1.035   3.549  19.839  0.00  0.00    +0.000 A 
ENDBRANCH  25  26
ENDBRANCH  24  25
ENDBRANCH   2  24
TORSDOF 8
ENDMDL
MODEL 9
REMARK VINA RESULT:      -7.1      1.753      2.572
REMARK  Name = 
REMARK  9 active torsions:
REMARK  status: ('A' for Active; 'I' for Inactive)
REMARK    1  A    between atoms: C_1  and  N_2
REMARK    2  A    between atoms: N_2  and  C_3
REMARK    3  A    between atoms: C_3  and  C_4
REMARK    4  A    between atoms: C_4  and  C_5
REMARK    5  A    between atoms: C_13  and  C_14
REMARK    6  A    between atoms: N_16  and  C_17
REMARK    7  A    between atoms: C_17  and  C_18
REMARK    8  A    between atoms: C_22  and  N_23
REMARK    9  A    between atoms: C_26  and  O_27
REMARK                            x       y       z     vdW  Elec       q    Type
REMARK                         _______ _______ _______ _____ _____    ______ ____
ROOT
ATOM      1  C   UNL     1       2.840  10.257  17.681  0.00  0.00    +0.000 C 
ATOM      2  N   UNL     1       2.066   9.122  18.131  0.00  0.00    +0.000 N 
ATOM      3  C   UNL     1       2.634   7.873  17.995  0.00  0.00    +0.000 A 
ATOM      4  N   UNL     1       3.802   7.770  17.356  0.00  0.00    +0.000 NA
ATOM      5  C   UNL     1       4.306   6.526  17.219  0.00  0.00    +0.000 A 
ATOM      6  C   UNL     1       3.698   5.393  17.709  0.00  0.00    +0.000 A 
ATOM      7  C   UNL     1       2.514   5.570  18.375  0.00  0.00    +0.000 A 
ATOM      8  N   UNL     1       1.993   6.803  18.498  0.00  0.00    +0.000 NA
ENDROOT
BRANCH   7   9
ATOM      9  N   UNL     1       1.854   4.532  18.982  0.00  0.00    +0.000 N 
ATOM     10  C   UNL     1       1.399   4.623  20.359  0.00  0.00    +0.000 C 
ATOM     11  C   UNL     1       1.207   3.156  20.726  0.00  0.00    +0.000 C 
ATOM     12  C   UNL     1       0.749   2.490  19.428  0.00  0.00    +0.000 C 
ATOM     13  C   UNL     1       1.162   3.452  18.292  0.00  0.00    +0.000 C 
BRANCH  12  14
ATOM     14  O   UNL     1       1.385   1.221  19.293  0.00  0.00    +0.000 OA
ATOM     15  H   UNL     1       1.731   0.978  20.172  0.00  0.00    +0.000 HD
ENDBRANCH  12  14
ENDBRANCH   7   9
BRANCH   5  16
ATOM     16  C   UNL     1       5.598   6.409  16.483  0.00  0.00    +0.000 C 
ATOM     17  O   UNL     1       6.456   7.280  16.569  0.00  0.00    +0.000 OA
ATOM     18  N   UNL     1       5.754   5.262  15.731  0.00  0.00    +0.000 N 
ATOM     19  H   UNL     1       4.970   4.615  15.704  0.00  0.00    +0.000 HD
BRANCH  18  20
ATOM     20  C   UNL     1       6.939   5.026  14.943  0.00  0.00    +0.000 C 
BRANCH  20  21
ATOM     21  C   UNL     1       6.606   4.996  13.487  0.00  0.00    +0.000 C 
ATOM     22  C   UNL     1       7.687   4.935  12.436  0.00  0.00    +0.000 C 
ATOM     23  C   UNL     1       6.816   3.737  12.683  0.00  0.00    +0.000 C 
ENDBRANCH  20  21
ENDBRANCH  18  20
ENDBRANCH   5  16
BRANCH   2  24
ATOM     24  C   UNL     1       0.677   9.249  18.574  0.00  0.00    +0.000 C 
BRANCH  24  25
ATOM     25  C   UNL     1       0.397  10.628  19.197  0.00  0.00    +0.000 C 
BRANCH  25  26
ATOM     26  C   UNL     1      -0.080  10.531  20.625  0.00  0.00    +0.000 A 
ATOM     27  C   UNL     1      -0.625  11.651  21.269  0.00  0.00    +0.000 A 
ATOM     28  C   UNL     1      -1.051  11.564  22.594  0.00  0.00    +0.000 A 
ATOM     29  C   UNL     1      -0.935  10.361  23.287  0.00  0.00    +0.000 A 
ATOM     30  C   UNL     1      -0.395   9.242  22.655  0.00  0.00    +0.000 A 
ATOM     31  C   UNL     1       0.032   9.326  21.329  0.00  0.00    +0.000 A 
ENDBRANCH  25  26
ENDBRANCH  24  25
ENDBRANCH   2  24
TORSDOF 8
ENDMDL
