MODEL 1
REMARK VINA RESULT:      -7.3      0.000      0.000
REMARK  Name = 
REMARK  7 active torsions:
REMARK  status: ('A' for Active; 'I' for Inactive)
REMARK    1  A    between atoms: C_1  and  C_2
REMARK    2  A    between atoms: C_2  and  C_3
REMARK    3  A    between atoms: C_3  and  C_4
REMARK    4  A    between atoms: C_4  and  N_5
REMARK    5  A    between atoms: C_9  and  C_10
REMARK    6  A    between atoms: C_10  and  C_11
REMARK    7  A    between atoms: N_25  and  C_26
REMARK                            x       y       z     vdW  Elec       q    Type
REMARK                         _______ _______ _______ _____ _____    ______ ____
ROOT
ATOM      1  N   UNL     1      -1.587  12.008  21.380  0.00  0.00    +0.000 N 
ATOM      2  C   UNL     1      -0.694  11.144  20.771  0.00  0.00    +0.000 A 
ATOM      3  C   UNL     1       0.474  10.579  21.263  0.00  0.00    +0.000 A 
ATOM      4  C   UNL     1       1.280   9.844  20.393  0.00  0.00    +0.000 A 
ATOM      5  C   UNL     1       0.918   9.671  19.059  0.00  0.00    +0.000 A 
ATOM      6  C   UNL     1      -0.326  10.148  18.583  0.00  0.00    +0.000 A 
ATOM      7  C   UNL     1      -1.164  10.887  19.454  0.00  0.00    +0.000 A 
ATOM      8  C   UNL     1      -2.415  11.471  19.448  0.00  0.00    +0.000 A 
ATOM      9  C   UNL     1      -3.404  11.586  18.425  0.00  0.00    +0.000 A 
ATOM     10  C   UNL     1      -4.682  12.150  18.807  0.00  0.00    +0.000 A 
ATOM     11  C   UNL     1      -4.930  12.646  20.113  0.00  0.00    +0.000 A 
ATOM     12  C   UNL     1      -3.708  13.106  20.640  0.00  0.00    +0.000 A 
ATOM     13  C   UNL     1      -2.643  12.239  20.549  0.00  0.00    +0.000 A 
ATOM     14  C   UNL     1      -3.519  14.623  20.495  0.00  0.00    +0.000 C 
ATOM     15  C   UNL     1      -4.469  15.282  21.458  0.00  0.00    +0.000 C 
ATOM     16  C   UNL     1      -5.843  14.743  21.225  0.00  0.00    +0.000 A 
ATOM     17  N   UNL     1      -6.826  15.181  22.003  0.00  0.00    +0.000 NA
ATOM     18  N   UNL     1      -7.317  14.029  22.479  0.00  0.00    +0.000 N 
ATOM     19  C   UNL     1      -7.900  14.115  23.805  0.00  0.00    +0.000 C 
ATOM     20  C   UNL     1      -6.852  12.927  21.771  0.00  0.00    +0.000 A 
ATOM     21  C   UNL     1      -6.070  13.405  20.703  0.00  0.00    +0.000 A 
ATOM     22  C   UNL     1      -5.407  12.374  17.580  0.00  0.00    +0.000 C 
ATOM     23  O   UNL     1      -6.479  12.906  17.326  0.00  0.00    +0.000 OA
ATOM     24  N   UNL     1      -4.533  11.953  16.564  0.00  0.00    +0.000 N 
ATOM     25  C   UNL     1      -3.254  11.414  16.979  0.00  0.00    +0.000 C 
ATOM     26  H   UNL     1      -4.724  12.248  15.617  0.00  0.00    +0.000 HD
ENDROOT
BRANCH   5  27
ATOM     27  C   UNL     1       1.902   8.976  18.194  0.00  0.00    +0.000 C 
ATOM     28  C   UNL     1       2.356   7.592  18.564  0.00  0.00    +0.000 C 
ATOM     29  O   UNL     1       2.286   9.513  17.157  0.00  0.00    +0.000 OA
ENDBRANCH   5  27
BRANCH   1  30
ATOM     30  C   UNL     1      -1.599  12.455  22.758  0.00  0.00    +0.000 C 
BRANCH  30  31
ATOM     31  C   UNL     1      -2.663  11.822  23.642  0.00  0.00    +0.000 C 
BRANCH  31  33
ATOM     32  C   UNL     1      -4.820  12.317  24.842  0.00  0.00    +0.000 C 
ATOM     33  C   UNL     1      -3.611  12.910  24.144  0.00  0.00    +0.000 C 
ENDBRANCH  31  33
ENDBRANCH  30  31
ENDBRANCH   1  30
TORSDOF 4
ENDMDL
MODEL 2
REMARK VINA RESULT:      -6.8      0.841      1.464
REMARK  Name = 
REMARK  7 active torsions:
REMARK  status: ('A' for Active; 'I' for Inactive)
REMARK    1  A    between atoms: C_1  and  C_2
REMARK    2  A    between atoms: C_2  and  C_3
REMARK    3  A    between atoms: C_3  and  C_4
REMARK    4  A    between atoms: C_4  and  N_5
REMARK    5  A    between atoms: C_9  and  C_10
REMARK    6  A    between atoms: C_10  and  C_11
REMARK    7  A    between atoms: N_25  and  C_26
REMARK                            x       y       z     vdW  Elec       q    Type
REMARK                         _______ _______ _______ _____ _____    ______ ____
ROOT
ATOM      1  N   UNL     1      -1.567  11.945  21.590  0.00  0.00    +0.000 N 
ATOM      2  C   UNL     1      -0.674  11.114  20.935  0.00  0.00    +0.000 A 
ATOM      3  C   UNL     1       0.507  10.544  21.389  0.00  0.00    +0.000 A 
ATOM      4  C   UNL     1       1.307   9.850  20.480  0.00  0.00    +0.000 A 
ATOM      5  C   UNL     1       0.927   9.724  19.146  0.00  0.00    +0.000 A 
ATOM      6  C   UNL     1      -0.329  10.204  18.706  0.00  0.00    +0.000 A 
ATOM      7  C   UNL     1      -1.161  10.901  19.617  0.00  0.00    +0.000 A 
ATOM      8  C   UNL     1      -2.419  11.471  19.651  0.00  0.00    +0.000 A 
ATOM      9  C   UNL     1      -3.424  11.613  18.648  0.00  0.00    +0.000 A 
ATOM     10  C   UNL     1      -4.701  12.149  19.069  0.00  0.00    +0.000 A 
ATOM     11  C   UNL     1      -4.935  12.593  20.396  0.00  0.00    +0.000 A 
ATOM     12  C   UNL     1      -3.710  13.046  20.922  0.00  0.00    +0.000 A 
ATOM     13  C   UNL     1      -2.638  12.195  20.783  0.00  0.00    +0.000 A 
ATOM     14  C   UNL     1      -3.539  14.569  20.830  0.00  0.00    +0.000 C 
ATOM     15  C   UNL     1      -4.481  15.183  21.831  0.00  0.00    +0.000 C 
ATOM     16  C   UNL     1      -5.853  14.637  21.598  0.00  0.00    +0.000 A 
ATOM     17  N   UNL     1      -6.829  15.035  22.406  0.00  0.00    +0.000 NA
ATOM     18  N   UNL     1      -7.300  13.861  22.846  0.00  0.00    +0.000 N 
ATOM     19  C   UNL     1      -7.864  13.891  24.183  0.00  0.00    +0.000 C 
ATOM     20  C   UNL     1      -6.835  12.791  22.090  0.00  0.00    +0.000 A 
ATOM     21  C   UNL     1      -6.074  13.317  21.030  0.00  0.00    +0.000 A 
ATOM     22  C   UNL     1      -5.447  12.410  17.862  0.00  0.00    +0.000 C 
ATOM     23  O   UNL     1      -6.528  12.939  17.643  0.00  0.00    +0.000 OA
ATOM     24  N   UNL     1      -4.584  12.036  16.818  0.00  0.00    +0.000 N 
ATOM     25  C   UNL     1      -3.294  11.497  17.194  0.00  0.00    +0.000 C 
ATOM     26  H   UNL     1      -4.793  12.364  15.886  0.00  0.00    +0.000 HD
ENDROOT
BRANCH   5  27
ATOM     27  C   UNL     1       1.905   9.072  18.242  0.00  0.00    +0.000 C 
ATOM     28  C   UNL     1       2.330   7.657  18.518  0.00  0.00    +0.000 C 
ATOM     29  O   UNL     1       2.307   9.672  17.247  0.00  0.00    +0.000 OA
ENDBRANCH   5  27
BRANCH   1  30
ATOM     30  C   UNL     1      -1.563  12.340  22.982  0.00  0.00    +0.000 C 
BRANCH  30  31
ATOM     31  C   UNL     1      -1.087  13.758  23.258  0.00  0.00    +0.000 C 
BRANCH  31  33
ATOM     32  C   UNL     1      -0.130  15.529  21.746  0.00  0.00    +0.000 C 
ATOM     33  C   UNL     1       0.024  14.116  22.273  0.00  0.00    +0.000 C 
ENDBRANCH  31  33
ENDBRANCH  30  31
ENDBRANCH   1  30
TORSDOF 4
ENDMDL
MODEL 3
REMARK VINA RESULT:      -6.8      2.153      4.262
REMARK  Name = 
REMARK  7 active torsions:
REMARK  status: ('A' for Active; 'I' for Inactive)
REMARK    1  A    between atoms: C_1  and  C_2
REMARK    2  A    between atoms: C_2  and  C_3
REMARK    3  A    between atoms: C_3  and  C_4
REMARK    4  A    between atoms: C_4  and  N_5
REMARK    5  A    between atoms: C_9  and  C_10
REMARK    6  A    between atoms: C_10  and  C_11
REMARK    7  A    between atoms: N_25  and  C_26
REMARK                            x       y       z     vdW  Elec       q    Type
REMARK                         _______ _______ _______ _____ _____    ______ ____
ROOT
ATOM      1  N   UNL     1      -3.530  11.834  18.932  0.00  0.00    +0.000 N 
ATOM      2  C   UNL     1      -2.314  11.198  18.751  0.00  0.00    +0.000 A 
ATOM      3  C   UNL     1      -1.890  10.365  17.725  0.00  0.00    +0.000 A 
ATOM      4  C   UNL     1      -0.653   9.731  17.847  0.00  0.00    +0.000 A 
ATOM      5  C   UNL     1       0.147   9.935  18.969  0.00  0.00    +0.000 A 
ATOM      6  C   UNL     1      -0.230  10.872  19.961  0.00  0.00    +0.000 A 
ATOM      7  C   UNL     1      -1.478  11.534  19.850  0.00  0.00    +0.000 A 
ATOM      8  C   UNL     1      -2.201  12.509  20.508  0.00  0.00    +0.000 A 
ATOM      9  C   UNL     1      -1.932  13.249  21.699  0.00  0.00    +0.000 A 
ATOM     10  C   UNL     1      -2.857  14.310  22.037  0.00  0.00    +0.000 A 
ATOM     11  C   UNL     1      -4.028  14.563  21.275  0.00  0.00    +0.000 A 
ATOM     12  C   UNL     1      -4.443  13.346  20.701  0.00  0.00    +0.000 A 
ATOM     13  C   UNL     1      -3.474  12.625  20.042  0.00  0.00    +0.000 A 
ATOM     14  C   UNL     1      -5.554  12.650  21.499  0.00  0.00    +0.000 C 
ATOM     15  C   UNL     1      -6.810  13.456  21.308  0.00  0.00    +0.000 C 
ATOM     16  C   UNL     1      -6.523  14.883  21.646  0.00  0.00    +0.000 A 
ATOM     17  N   UNL     1      -7.504  15.767  21.509  0.00  0.00    +0.000 NA
ATOM     18  N   UNL     1      -6.932  16.672  20.704  0.00  0.00    +0.000 N 
ATOM     19  C   UNL     1      -7.848  17.377  19.827  0.00  0.00    +0.000 C 
ATOM     20  C   UNL     1      -5.555  16.501  20.616  0.00  0.00    +0.000 A 
ATOM     21  C   UNL     1      -5.198  15.462  21.495  0.00  0.00    +0.000 A 
ATOM     22  C   UNL     1      -2.512  14.738  23.370  0.00  0.00    +0.000 C 
ATOM     23  O   UNL     1      -3.020  15.527  24.155  0.00  0.00    +0.000 OA
ATOM     24  N   UNL     1      -1.435  13.917  23.743  0.00  0.00    +0.000 N 
ATOM     25  C   UNL     1      -0.968  12.960  22.762  0.00  0.00    +0.000 C 
ATOM     26  H   UNL     1      -1.192  13.863  24.722  0.00  0.00    +0.000 HD
ENDROOT
BRANCH   5  27
ATOM     27  C   UNL     1       1.384   9.123  19.053  0.00  0.00    +0.000 C 
ATOM     28  C   UNL     1       2.261   8.993  17.839  0.00  0.00    +0.000 C 
ATOM     29  O   UNL     1       1.710   8.619  20.127  0.00  0.00    +0.000 OA
ENDBRANCH   5  27
BRANCH   1  30
ATOM     30  C   UNL     1      -4.652  11.894  18.018  0.00  0.00    +0.000 C 
BRANCH  30  31
ATOM     31  C   UNL     1      -5.735  10.850  18.243  0.00  0.00    +0.000 C 
BRANCH  31  33
ATOM     32  C   UNL     1      -7.023  12.917  17.607  0.00  0.00    +0.000 C 
ATOM     33  C   UNL     1      -7.103  11.531  18.215  0.00  0.00    +0.000 C 
ENDBRANCH  31  33
ENDBRANCH  30  31
ENDBRANCH   1  30
TORSDOF 4
ENDMDL
MODEL 4
REMARK VINA RESULT:      -6.8      9.311     12.683
REMARK  Name = 
REMARK  7 active torsions:
REMARK  status: ('A' for Active; 'I' for Inactive)
REMARK    1  A    between atoms: C_1  and  C_2
REMARK    2  A    between atoms: C_2  and  C_3
REMARK    3  A    between atoms: C_3  and  C_4
REMARK    4  A    between atoms: C_4  and  N_5
REMARK    5  A    between atoms: C_9  and  C_10
REMARK    6  A    between atoms: C_10  and  C_11
REMARK    7  A    between atoms: N_25  and  C_26
REMARK                            x       y       z     vdW  Elec       q    Type
REMARK                         _______ _______ _______ _____ _____    ______ ____
ROOT
ATOM      1  N   UNL     1       8.948  13.161  21.764  0.00  0.00    +0.000 N 
ATOM      2  C   UNL     1       8.212  12.707  22.844  0.00  0.00    +0.000 A 
ATOM      3  C   UNL     1       8.568  11.824  23.854  0.00  0.00    +0.000 A 
ATOM      4  C   UNL     1       7.588  11.415  24.760  0.00  0.00    +0.000 A 
ATOM      5  C   UNL     1       6.281  11.887  24.660  0.00  0.00    +0.000 A 
ATOM      6  C   UNL     1       5.943  12.874  23.704  0.00  0.00    +0.000 A 
ATOM      7  C   UNL     1       6.927  13.311  22.782  0.00  0.00    +0.000 A 
ATOM      8  C   UNL     1       7.064  14.237  21.767  0.00  0.00    +0.000 A 
ATOM      9  C   UNL     1       6.138  15.158  21.192  0.00  0.00    +0.000 A 
ATOM     10  C   UNL     1       6.661  16.095  20.220  0.00  0.00    +0.000 A 
ATOM     11  C   UNL     1       8.012  16.059  19.786  0.00  0.00    +0.000 A 
ATOM     12  C   UNL     1       8.461  14.728  19.877  0.00  0.00    +0.000 A 
ATOM     13  C   UNL     1       8.225  14.088  21.073  0.00  0.00    +0.000 A 
ATOM     14  C   UNL     1       8.394  13.975  18.541  0.00  0.00    +0.000 C 
ATOM     15  C   UNL     1       9.473  14.541  17.658  0.00  0.00    +0.000 C 
ATOM     16  C   UNL     1       9.325  16.027  17.609  0.00  0.00    +0.000 A 
ATOM     17  N   UNL     1      10.210  16.720  16.901  0.00  0.00    +0.000 NA
ATOM     18  N   UNL     1      10.654  17.591  17.816  0.00  0.00    +0.000 N 
ATOM     19  C   UNL     1      12.027  18.022  17.634  0.00  0.00    +0.000 C 
ATOM     20  C   UNL     1       9.841  17.629  18.943  0.00  0.00    +0.000 A 
ATOM     21  C   UNL     1       8.743  16.782  18.706  0.00  0.00    +0.000 A 
ATOM     22  C   UNL     1       5.517  16.742  19.626  0.00  0.00    +0.000 C 
ATOM     23  O   UNL     1       5.388  17.537  18.705  0.00  0.00    +0.000 OA
ATOM     24  N   UNL     1       4.406  16.156  20.256  0.00  0.00    +0.000 N 
ATOM     25  C   UNL     1       4.676  15.165  21.277  0.00  0.00    +0.000 C 
ATOM     26  H   UNL     1       3.499  16.270  19.826  0.00  0.00    +0.000 HD
ENDROOT
BRANCH   5  27
ATOM     27  C   UNL     1       5.295  11.297  25.597  0.00  0.00    +0.000 C 
ATOM     28  C   UNL     1       5.094  11.930  26.946  0.00  0.00    +0.000 C 
ATOM     29  O   UNL     1       4.611  10.341  25.238  0.00  0.00    +0.000 OA
ENDBRANCH   5  27
BRANCH   1  30
ATOM     30  C   UNL     1      10.346  12.924  21.472  0.00  0.00    +0.000 C 
BRANCH  30  31
ATOM     31  C   UNL     1      10.622  11.890  20.390  0.00  0.00    +0.000 C 
BRANCH  31  33
ATOM     32  C   UNL     1       9.205  10.332  19.011  0.00  0.00    +0.000 C 
ATOM     33  C   UNL     1       9.515  10.837  20.407  0.00  0.00    +0.000 C 
ENDBRANCH  31  33
ENDBRANCH  30  31
ENDBRANCH   1  30
TORSDOF 4
ENDMDL
MODEL 5
REMARK VINA RESULT:      -6.7      2.753      5.100
REMARK  Name = 
REMARK  7 active torsions:
REMARK  status: ('A' for Active; 'I' for Inactive)
REMARK    1  A    between atoms: C_1  and  C_2
REMARK    2  A    between atoms: C_2  and  C_3
REMARK    3  A    between atoms: C_3  and  C_4
REMARK    4  A    between atoms: C_4  and  N_5
REMARK    5  A    between atoms: C_9  and  C_10
REMARK    6  A    between atoms: C_10  and  C_11
REMARK    7  A    between atoms: N_25  and  C_26
REMARK                            x       y       z     vdW  Elec       q    Type
REMARK                         _______ _______ _______ _____ _____    ______ ____
ROOT
ATOM      1  N   UNL     1      -4.650  12.625  20.089  0.00  0.00    +0.000 N 
ATOM      2  C   UNL     1      -4.422  12.084  18.836  0.00  0.00    +0.000 A 
ATOM      3  C   UNL     1      -5.325  11.655  17.874  0.00  0.00    +0.000 A 
ATOM      4  C   UNL     1      -4.836  11.010  16.738  0.00  0.00    +0.000 A 
ATOM      5  C   UNL     1      -3.468  10.808  16.564  0.00  0.00    +0.000 A 
ATOM      6  C   UNL     1      -2.539  11.345  17.485  0.00  0.00    +0.000 A 
ATOM      7  C   UNL     1      -3.015  12.012  18.641  0.00  0.00    +0.000 A 
ATOM      8  C   UNL     1      -2.512  12.703  19.726  0.00  0.00    +0.000 A 
ATOM      9  C   UNL     1      -1.174  12.981  20.136  0.00  0.00    +0.000 A 
ATOM     10  C   UNL     1      -1.005  13.865  21.271  0.00  0.00    +0.000 A 
ATOM     11  C   UNL     1      -2.108  14.374  22.004  0.00  0.00    +0.000 A 
ATOM     12  C   UNL     1      -3.153  13.435  21.921  0.00  0.00    +0.000 A 
ATOM     13  C   UNL     1      -3.463  12.981  20.660  0.00  0.00    +0.000 A 
ATOM     14  C   UNL     1      -3.234  12.512  23.145  0.00  0.00    +0.000 C 
ATOM     15  C   UNL     1      -3.737  13.342  24.295  0.00  0.00    +0.000 C 
ATOM     16  C   UNL     1      -2.882  14.562  24.418  0.00  0.00    +0.000 A 
ATOM     17  N   UNL     1      -3.185  15.445  25.363  0.00  0.00    +0.000 NA
ATOM     18  N   UNL     1      -3.300  16.569  24.644  0.00  0.00    +0.000 N 
ATOM     19  C   UNL     1      -4.239  17.540  25.173  0.00  0.00    +0.000 C 
ATOM     20  C   UNL     1      -2.775  16.430  23.364  0.00  0.00    +0.000 A 
ATOM     21  C   UNL     1      -2.202  15.148  23.275  0.00  0.00    +0.000 A 
ATOM     22  C   UNL     1       0.392  13.802  21.627  0.00  0.00    +0.000 C 
ATOM     23  O   UNL     1       1.043  14.273  22.549  0.00  0.00    +0.000 OA
ATOM     24  N   UNL     1       0.955  12.895  20.713  0.00  0.00    +0.000 N 
ATOM     25  C   UNL     1       0.070  12.335  19.713  0.00  0.00    +0.000 C 
ATOM     26  H   UNL     1       1.861  12.504  20.927  0.00  0.00    +0.000 HD
ENDROOT
BRANCH   5  27
ATOM     27  C   UNL     1      -3.066  10.009  15.382  0.00  0.00    +0.000 C 
ATOM     28  C   UNL     1      -3.837  10.155  14.100  0.00  0.00    +0.000 C 
ATOM     29  O   UNL     1      -2.072   9.287  15.445  0.00  0.00    +0.000 OA
ENDBRANCH   5  27
BRANCH   1  30
ATOM     30  C   UNL     1      -5.916  13.005  20.681  0.00  0.00    +0.000 C 
BRANCH  30  31
ATOM     31  C   UNL     1      -6.617  11.917  21.480  0.00  0.00    +0.000 C 
BRANCH  31  33
ATOM     32  C   UNL     1      -7.400   9.821  20.326  0.00  0.00    +0.000 C 
ATOM     33  C   UNL     1      -7.702  11.279  20.614  0.00  0.00    +0.000 C 
ENDBRANCH  31  33
ENDBRANCH  30  31
ENDBRANCH   1  30
TORSDOF 4
ENDMDL
MODEL 6
REMARK VINA RESULT:      -6.6      2.207      4.107
REMARK  Name = 
REMARK  7 active torsions:
REMARK  status: ('A' for Active; 'I' for Inactive)
REMARK    1  A    between atoms: C_1  and  C_2
REMARK    2  A    between atoms: C_2  and  C_3
REMARK    3  A    between atoms: C_3  and  C_4
REMARK    4  A    between atoms: C_4  and  N_5
REMARK    5  A    between atoms: C_9  and  C_10
REMARK    6  A    between atoms: C_10  and  C_11
REMARK    7  A    between atoms: N_25  and  C_26
REMARK                            x       y       z     vdW  Elec       q    Type
REMARK                         _______ _______ _______ _____ _____    ______ ____
ROOT
ATOM      1  N   UNL     1      -3.547  11.805  18.908  0.00  0.00    +0.000 N 
ATOM      2  C   UNL     1      -2.343  11.205  18.581  0.00  0.00    +0.000 A 
ATOM      3  C   UNL     1      -2.032  10.347  17.535  0.00  0.00    +0.000 A 
ATOM      4  C   UNL     1      -0.766   9.762  17.505  0.00  0.00    +0.000 A 
ATOM      5  C   UNL     1       0.172  10.037  18.497  0.00  0.00    +0.000 A 
ATOM      6  C   UNL     1      -0.100  10.999  19.498  0.00  0.00    +0.000 A 
ATOM      7  C   UNL     1      -1.377  11.613  19.541  0.00  0.00    +0.000 A 
ATOM      8  C   UNL     1      -2.040  12.587  20.260  0.00  0.00    +0.000 A 
ATOM      9  C   UNL     1      -1.639  13.381  21.375  0.00  0.00    +0.000 A 
ATOM     10  C   UNL     1      -2.551  14.422  21.803  0.00  0.00    +0.000 A 
ATOM     11  C   UNL     1      -3.824  14.605  21.204  0.00  0.00    +0.000 A 
ATOM     12  C   UNL     1      -4.265  13.353  20.735  0.00  0.00    +0.000 A 
ATOM     13  C   UNL     1      -3.370  12.640  19.972  0.00  0.00    +0.000 A 
ATOM     14  C   UNL     1      -5.227  12.650  21.704  0.00  0.00    +0.000 C 
ATOM     15  C   UNL     1      -6.529  13.404  21.662  0.00  0.00    +0.000 C 
ATOM     16  C   UNL     1      -6.255  14.852  21.908  0.00  0.00    +0.000 A 
ATOM     17  N   UNL     1      -7.280  15.696  21.879  0.00  0.00    +0.000 NA
ATOM     18  N   UNL     1      -6.861  16.588  20.973  0.00  0.00    +0.000 N 
ATOM     19  C   UNL     1      -7.917  17.225  20.208  0.00  0.00    +0.000 C 
ATOM     20  C   UNL     1      -5.503  16.461  20.699  0.00  0.00    +0.000 A 
ATOM     21  C   UNL     1      -4.987  15.470  21.554  0.00  0.00    +0.000 A 
ATOM     22  C   UNL     1      -2.041  14.914  23.059  0.00  0.00    +0.000 C 
ATOM     23  O   UNL     1      -2.467  15.715  23.880  0.00  0.00    +0.000 OA
ATOM     24  N   UNL     1      -0.891  14.145  23.306  0.00  0.00    +0.000 N 
ATOM     25  C   UNL     1      -0.526  13.168  22.303  0.00  0.00    +0.000 C 
ATOM     26  H   UNL     1      -0.514  14.139  24.243  0.00  0.00    +0.000 HD
ENDROOT
BRANCH   5  27
ATOM     27  C   UNL     1       1.441   9.272  18.434  0.00  0.00    +0.000 C 
ATOM     28  C   UNL     1       1.743   8.263  19.506  0.00  0.00    +0.000 C 
ATOM     29  O   UNL     1       2.198   9.427  17.477  0.00  0.00    +0.000 OA
ENDBRANCH   5  27
BRANCH   1  30
ATOM     30  C   UNL     1      -4.786  11.790  18.158  0.00  0.00    +0.000 C 
BRANCH  30  31
ATOM     31  C   UNL     1      -5.553  10.477  18.190  0.00  0.00    +0.000 C 
BRANCH  31  33
ATOM     32  C   UNL     1      -7.177   9.271  19.689  0.00  0.00    +0.000 C 
ATOM     33  C   UNL     1      -6.745  10.615  19.137  0.00  0.00    +0.000 C 
ENDBRANCH  31  33
ENDBRANCH  30  31
ENDBRANCH   1  30
TORSDOF 4
ENDMDL
MODEL 7
REMARK VINA RESULT:      -6.5      2.453      4.709
REMARK  Name = 
REMARK  7 active torsions:
REMARK  status: ('A' for Active; 'I' for Inactive)
REMARK    1  A    between atoms: C_1  and  C_2
REMARK    2  A    between atoms: C_2  and  C_3
REMARK    3  A    between atoms: C_3  and  C_4
REMARK    4  A    between atoms: C_4  and  N_5
REMARK    5  A    between atoms: C_9  and  C_10
REMARK    6  A    between atoms: C_10  and  C_11
REMARK    7  A    between atoms: N_25  and  C_26
REMARK                            x       y       z     vdW  Elec       q    Type
REMARK                         _______ _______ _______ _____ _____    ______ ____
ROOT
ATOM      1  N   UNL     1      -2.821  11.750  19.004  0.00  0.00    +0.000 N 
ATOM      2  C   UNL     1      -1.683  11.155  19.519  0.00  0.00    +0.000 A 
ATOM      3  C   UNL     1      -0.699  10.414  18.880  0.00  0.00    +0.000 A 
ATOM      4  C   UNL     1       0.284   9.798  19.656  0.00  0.00    +0.000 A 
ATOM      5  C   UNL     1       0.286   9.929  21.043  0.00  0.00    +0.000 A 
ATOM      6  C   UNL     1      -0.646  10.777  21.687  0.00  0.00    +0.000 A 
ATOM      7  C   UNL     1      -1.646  11.420  20.916  0.00  0.00    +0.000 A 
ATOM      8  C   UNL     1      -2.674  12.325  21.091  0.00  0.00    +0.000 A 
ATOM      9  C   UNL     1      -3.179  12.973  22.257  0.00  0.00    +0.000 A 
ATOM     10  C   UNL     1      -4.195  13.985  22.059  0.00  0.00    +0.000 A 
ATOM     11  C   UNL     1      -4.735  14.274  20.778  0.00  0.00    +0.000 A 
ATOM     12  C   UNL     1      -4.672  13.098  20.007  0.00  0.00    +0.000 A 
ATOM     13  C   UNL     1      -3.458  12.451  19.985  0.00  0.00    +0.000 A 
ATOM     14  C   UNL     1      -5.994  12.318  19.985  0.00  0.00    +0.000 C 
ATOM     15  C   UNL     1      -6.963  13.111  19.150  0.00  0.00    +0.000 C 
ATOM     16  C   UNL     1      -7.009  14.513  19.667  0.00  0.00    +0.000 A 
ATOM     17  N   UNL     1      -7.790  15.385  19.039  0.00  0.00    +0.000 NA
ATOM     18  N   UNL     1      -6.918  16.362  18.758  0.00  0.00    +0.000 N 
ATOM     19  C   UNL     1      -7.211  17.115  17.553  0.00  0.00    +0.000 C 
ATOM     20  C   UNL     1      -5.730  16.227  19.467  0.00  0.00    +0.000 A 
ATOM     21  C   UNL     1      -5.874  15.128  20.334  0.00  0.00    +0.000 A 
ATOM     22  C   UNL     1      -4.699  14.314  23.370  0.00  0.00    +0.000 C 
ATOM     23  O   UNL     1      -5.612  15.028  23.762  0.00  0.00    +0.000 OA
ATOM     24  N   UNL     1      -3.980  13.488  24.249  0.00  0.00    +0.000 N 
ATOM     25  C   UNL     1      -2.978  12.621  23.664  0.00  0.00    +0.000 C 
ATOM     26  H   UNL     1      -4.337  13.362  25.185  0.00  0.00    +0.000 HD
ENDROOT
BRANCH   5  27
ATOM     27  C   UNL     1       1.302   9.138  21.777  0.00  0.00    +0.000 C 
ATOM     28  C   UNL     1       1.743   7.812  21.223  0.00  0.00    +0.000 C 
ATOM     29  O   UNL     1       1.816   9.603  22.794  0.00  0.00    +0.000 OA
ENDBRANCH   5  27
BRANCH   1  30
ATOM     30  C   UNL     1      -3.222  11.859  17.616  0.00  0.00    +0.000 C 
BRANCH  30  31
ATOM     31  C   UNL     1      -3.962  10.655  17.053  0.00  0.00    +0.000 C 
BRANCH  31  33
ATOM     32  C   UNL     1      -3.152  10.221  14.709  0.00  0.00    +0.000 C 
ATOM     33  C   UNL     1      -3.010   9.847  16.172  0.00  0.00    +0.000 C 
ENDBRANCH  31  33
ENDBRANCH  30  31
ENDBRANCH   1  30
TORSDOF 4
ENDMDL
MODEL 8
REMARK VINA RESULT:      -6.5      4.059      6.209
REMARK  Name = 
REMARK  7 active torsions:
REMARK  status: ('A' for Active; 'I' for Inactive)
REMARK    1  A    between atoms: C_1  and  C_2
REMARK    2  A    between atoms: C_2  and  C_3
REMARK    3  A    between atoms: C_3  and  C_4
REMARK    4  A    between atoms: C_4  and  N_5
REMARK    5  A    between atoms: C_9  and  C_10
REMARK    6  A    between atoms: C_10  and  C_11
REMARK    7  A    between atoms: N_25  and  C_26
REMARK                            x       y       z     vdW  Elec       q    Type
REMARK                         _______ _______ _______ _____ _____    ______ ____
ROOT
ATOM      1  N   UNL     1       1.606   9.902  18.612  0.00  0.00    +0.000 N 
ATOM      2  C   UNL     1       2.014   8.610  18.896  0.00  0.00    +0.000 A 
ATOM      3  C   UNL     1       2.828   7.754  18.169  0.00  0.00    +0.000 A 
ATOM      4  C   UNL     1       2.975   6.438  18.608  0.00  0.00    +0.000 A 
ATOM      5  C   UNL     1       2.327   5.991  19.757  0.00  0.00    +0.000 A 
ATOM      6  C   UNL     1       1.590   6.891  20.564  0.00  0.00    +0.000 A 
ATOM      7  C   UNL     1       1.437   8.235  20.141  0.00  0.00    +0.000 A 
ATOM      8  C   UNL     1       0.883   9.413  20.598  0.00  0.00    +0.000 A 
ATOM      9  C   UNL     1       0.141   9.718  21.779  0.00  0.00    +0.000 A 
ATOM     10  C   UNL     1      -0.176  11.110  22.016  0.00  0.00    +0.000 A 
ATOM     11  C   UNL     1       0.155  12.130  21.085  0.00  0.00    +0.000 A 
ATOM     12  C   UNL     1       0.157  11.558  19.799  0.00  0.00    +0.000 A 
ATOM     13  C   UNL     1       0.875  10.393  19.653  0.00  0.00    +0.000 A 
ATOM     14  C   UNL     1      -1.153  11.791  19.033  0.00  0.00    +0.000 C 
ATOM     15  C   UNL     1      -1.195  13.247  18.657  0.00  0.00    +0.000 C 
ATOM     16  C   UNL     1      -0.971  14.068  19.886  0.00  0.00    +0.000 A 
ATOM     17  N   UNL     1      -0.940  15.389  19.757  0.00  0.00    +0.000 NA
ATOM     18  N   UNL     1       0.244  15.679  20.312  0.00  0.00    +0.000 N 
ATOM     19  C   UNL     1       0.902  16.854  19.770  0.00  0.00    +0.000 C 
ATOM     20  C   UNL     1       0.764  14.609  21.031  0.00  0.00    +0.000 A 
ATOM     21  C   UNL     1      -0.193  13.578  21.012  0.00  0.00    +0.000 A 
ATOM     22  C   UNL     1      -1.108  11.131  23.116  0.00  0.00    +0.000 C 
ATOM     23  O   UNL     1      -1.753  12.022  23.652  0.00  0.00    +0.000 OA
ATOM     24  N   UNL     1      -1.296   9.780  23.453  0.00  0.00    +0.000 N 
ATOM     25  C   UNL     1      -0.542   8.803  22.697  0.00  0.00    +0.000 C 
ATOM     26  H   UNL     1      -2.093   9.537  24.025  0.00  0.00    +0.000 HD
ENDROOT
BRANCH   5  27
ATOM     27  C   UNL     1       2.456   4.547  20.067  0.00  0.00    +0.000 C 
ATOM     28  C   UNL     1       1.293   3.822  20.683  0.00  0.00    +0.000 C 
ATOM     29  O   UNL     1       3.486   3.949  19.761  0.00  0.00    +0.000 OA
ENDBRANCH   5  27
BRANCH   1  30
ATOM     30  C   UNL     1       2.032  10.754  17.521  0.00  0.00    +0.000 C 
BRANCH  30  31
ATOM     31  C   UNL     1       3.017  11.851  17.894  0.00  0.00    +0.000 C 
BRANCH  31  33
ATOM     32  C   UNL     1       3.229  14.334  18.252  0.00  0.00    +0.000 C 
ATOM     33  C   UNL     1       2.309  13.204  17.834  0.00  0.00    +0.000 C 
ENDBRANCH  31  33
ENDBRANCH  30  31
ENDBRANCH   1  30
TORSDOF 4
ENDMDL
MODEL 9
REMARK VINA RESULT:      -6.4      2.680      5.028
REMARK  Name = 
REMARK  7 active torsions:
REMARK  status: ('A' for Active; 'I' for Inactive)
REMARK    1  A    between atoms: C_1  and  C_2
REMARK    2  A    between atoms: C_2  and  C_3
REMARK    3  A    between atoms: C_3  and  C_4
REMARK    4  A    between atoms: C_4  and  N_5
REMARK    5  A    between atoms: C_9  and  C_10
REMARK    6  A    between atoms: C_10  and  C_11
REMARK    7  A    between atoms: N_25  and  C_26
REMARK                            x       y       z     vdW  Elec       q    Type
REMARK                         _______ _______ _______ _____ _____    ______ ____
ROOT
ATOM      1  N   UNL     1      -4.643  12.503  20.136  0.00  0.00    +0.000 N 
ATOM      2  C   UNL     1      -4.418  11.979  18.875  0.00  0.00    +0.000 A 
ATOM      3  C   UNL     1      -5.322  11.521  17.927  0.00  0.00    +0.000 A 
ATOM      4  C   UNL     1      -4.829  10.903  16.777  0.00  0.00    +0.000 A 
ATOM      5  C   UNL     1      -3.459  10.756  16.576  0.00  0.00    +0.000 A 
ATOM      6  C   UNL     1      -2.533  11.324  17.484  0.00  0.00    +0.000 A 
ATOM      7  C   UNL     1      -3.013  11.964  18.653  0.00  0.00    +0.000 A 
ATOM      8  C   UNL     1      -2.518  12.667  19.733  0.00  0.00    +0.000 A 
ATOM      9  C   UNL     1      -1.184  12.996  20.120  0.00  0.00    +0.000 A 
ATOM     10  C   UNL     1      -1.028  13.879  21.257  0.00  0.00    +0.000 A 
ATOM     11  C   UNL     1      -2.137  14.340  22.014  0.00  0.00    +0.000 A 
ATOM     12  C   UNL     1      -3.145  13.360  21.945  0.00  0.00    +0.000 A 
ATOM     13  C   UNL     1      -3.461  12.902  20.686  0.00  0.00    +0.000 A 
ATOM     14  C   UNL     1      -3.166  12.427  23.163  0.00  0.00    +0.000 C 
ATOM     15  C   UNL     1      -3.679  13.229  24.328  0.00  0.00    +0.000 C 
ATOM     16  C   UNL     1      -2.871  14.481  24.444  0.00  0.00    +0.000 A 
ATOM     17  N   UNL     1      -3.191  15.345  25.400  0.00  0.00    +0.000 NA
ATOM     18  N   UNL     1      -3.364  16.468  24.692  0.00  0.00    +0.000 N 
ATOM     19  C   UNL     1      -4.330  17.398  25.245  0.00  0.00    +0.000 C 
ATOM     20  C   UNL     1      -2.858  16.359  23.401  0.00  0.00    +0.000 A 
ATOM     21  C   UNL     1      -2.237  15.101  23.293  0.00  0.00    +0.000 A 
ATOM     22  C   UNL     1       0.376  13.869  21.587  0.00  0.00    +0.000 C 
ATOM     23  O   UNL     1       1.026  14.359  22.500  0.00  0.00    +0.000 OA
ATOM     24  N   UNL     1       0.957  12.991  20.656  0.00  0.00    +0.000 N 
ATOM     25  C   UNL     1       0.076  12.402  19.669  0.00  0.00    +0.000 C 
ATOM     26  H   UNL     1       1.882  12.634  20.850  0.00  0.00    +0.000 HD
ENDROOT
BRANCH   5  27
ATOM     27  C   UNL     1      -3.047   9.981  15.381  0.00  0.00    +0.000 C 
ATOM     28  C   UNL     1      -3.815  10.146  14.099  0.00  0.00    +0.000 C 
ATOM     29  O   UNL     1      -2.050   9.264  15.435  0.00  0.00    +0.000 OA
ENDBRANCH   5  27
BRANCH   1  30
ATOM     30  C   UNL     1      -5.912  12.829  20.754  0.00  0.00    +0.000 C 
BRANCH  30  31
ATOM     31  C   UNL     1      -6.497  14.180  20.373  0.00  0.00    +0.000 C 
BRANCH  31  33
ATOM     32  C   UNL     1      -6.320  15.206  22.665  0.00  0.00    +0.000 C 
ATOM     33  C   UNL     1      -7.261  14.752  21.566  0.00  0.00    +0.000 C 
ENDBRANCH  31  33
ENDBRANCH  30  31
ENDBRANCH   1  30
TORSDOF 4
ENDMDL
