MODEL 1
REMARK VINA RESULT:      -7.3      0.000      0.000
REMARK  Name = 
REMARK  4 active torsions:
REMARK  status: ('A' for Active; 'I' for Inactive)
REMARK    1  A    between atoms: C_1  and  C_2
REMARK    2  A    between atoms: C_2  and  S_3
REMARK    3  A    between atoms: S_3  and  C_6
REMARK    4  A    between atoms: N_14  and  C_15
REMARK                            x       y       z     vdW  Elec       q    Type
REMARK                         _______ _______ _______ _____ _____    ______ ____
ROOT
ATOM      1  C   UNL     1       2.220  14.138  20.080  0.00  0.00    +0.000 A 
ATOM      2  C   UNL     1       1.629  13.872  18.838  0.00  0.00    +0.000 A 
ATOM      3  C   UNL     1       0.335  13.326  18.788  0.00  0.00    +0.000 A 
ATOM      4  C   UNL     1      -0.279  12.928  20.003  0.00  0.00    +0.000 A 
ATOM      5  C   UNL     1       0.109  13.680  21.211  0.00  0.00    +0.000 A 
ATOM      6  C   UNL     1       1.465  14.067  21.258  0.00  0.00    +0.000 A 
ATOM      7  C   UNL     1      -0.774  14.384  22.354  0.00  0.00    +0.000 A 
ATOM      8  C   UNL     1      -0.481  15.703  22.595  0.00  0.00    +0.000 A 
ATOM      9  N   UNL     1      -0.947  16.435  23.692  0.00  0.00    +0.000 N 
ATOM     10  C   UNL     1      -0.426  17.765  23.994  0.00  0.00    +0.000 C 
ATOM     11  C   UNL     1      -1.801  15.906  24.641  0.00  0.00    +0.000 A 
ATOM     12  O   UNL     1      -2.207  16.497  25.636  0.00  0.00    +0.000 OA
ATOM     13  C   UNL     1      -2.203  14.516  24.406  0.00  0.00    +0.000 A 
ATOM     14  C   UNL     1      -1.731  13.780  23.349  0.00  0.00    +0.000 A 
ATOM     15  O   UNL     1      -2.121  12.459  23.371  0.00  0.00    +0.000 OA
ATOM     16  C   UNL     1      -1.080  11.670  22.890  0.00  0.00    +0.000 C 
ATOM     17  C   UNL     1      -1.094  10.225  23.290  0.00  0.00    +0.000 C 
ATOM     18  C   UNL     1       0.205   9.656  22.716  0.00  0.00    +0.000 C 
ATOM     19  C   UNL     1      -0.066   8.708  21.575  0.00  0.00    +0.000 C 
ATOM     20  C   UNL     1       0.508   9.246  20.298  0.00  0.00    +0.000 A 
ATOM     21  C   UNL     1       1.709   8.700  19.821  0.00  0.00    +0.000 A 
ATOM     22  C   UNL     1       1.952   8.732  18.467  0.00  0.00    +0.000 A 
ATOM     23  F   UNL     1       3.028   8.108  17.971  0.00  0.00    +0.000 F 
ATOM     24  C   UNL     1       0.967   9.230  17.629  0.00  0.00    +0.000 A 
ATOM     25  C   UNL     1      -0.082  10.012  18.174  0.00  0.00    +0.000 A 
ATOM     26  C   UNL     1      -0.162  10.247  19.556  0.00  0.00    +0.000 A 
ATOM     27  O   UNL     1       0.380  11.497  20.124  0.00  0.00    +0.000 OA
ENDROOT
BRANCH   1  28
ATOM     28  S   UNL     1       3.896  14.738  20.167  0.00  0.00    +0.000 S 
ATOM     29  O   UNL     1       4.466  14.597  18.841  0.00  0.00    +0.000 OA
ATOM     30  O   UNL     1       4.507  14.086  21.307  0.00  0.00    +0.000 OA
BRANCH  28  32
ATOM     31  C   UNL     1       2.824  17.156  19.495  0.00  0.00    +0.000 C 
ATOM     32  C   UNL     1       3.720  16.485  20.520  0.00  0.00    +0.000 C 
ENDBRANCH  28  32
ENDBRANCH   1  28
TORSDOF 2
ENDMDL
MODEL 2
REMARK VINA RESULT:      -7.3      0.934      1.130
REMARK  Name = 
REMARK  4 active torsions:
REMARK  status: ('A' for Active; 'I' for Inactive)
REMARK    1  A    between atoms: C_1  and  C_2
REMARK    2  A    between atoms: C_2  and  S_3
REMARK    3  A    between atoms: S_3  and  C_6
REMARK    4  A    between atoms: N_14  and  C_15
REMARK                            x       y       z     vdW  Elec       q    Type
REMARK                         _______ _______ _______ _____ _____    ______ ____
ROOT
ATOM      1  C   UNL     1       1.808  14.316  19.816  0.00  0.00    +0.000 A 
ATOM      2  C   UNL     1       1.162  13.980  18.620  0.00  0.00    +0.000 A 
ATOM      3  C   UNL     1      -0.096  13.357  18.662  0.00  0.00    +0.000 A 
ATOM      4  C   UNL     1      -0.613  12.959  19.922  0.00  0.00    +0.000 A 
ATOM      5  C   UNL     1      -0.201  13.768  21.084  0.00  0.00    +0.000 A 
ATOM      6  C   UNL     1       1.130  14.236  21.040  0.00  0.00    +0.000 A 
ATOM      7  C   UNL     1      -1.056  14.451  22.261  0.00  0.00    +0.000 A 
ATOM      8  C   UNL     1      -0.831  15.792  22.450  0.00  0.00    +0.000 A 
ATOM      9  N   UNL     1      -1.275  16.526  23.554  0.00  0.00    +0.000 N 
ATOM     10  C   UNL     1      -0.819  17.893  23.790  0.00  0.00    +0.000 C 
ATOM     11  C   UNL     1      -2.038  15.975  24.566  0.00  0.00    +0.000 A 
ATOM     12  O   UNL     1      -2.420  16.570  25.568  0.00  0.00    +0.000 OA
ATOM     13  C   UNL     1      -2.368  14.557  24.391  0.00  0.00    +0.000 A 
ATOM     14  C   UNL     1      -1.914  13.820  23.326  0.00  0.00    +0.000 A 
ATOM     15  O   UNL     1      -2.222  12.480  23.406  0.00  0.00    +0.000 OA
ATOM     16  C   UNL     1      -1.164  11.740  22.883  0.00  0.00    +0.000 C 
ATOM     17  C   UNL     1      -1.067  10.309  23.319  0.00  0.00    +0.000 C 
ATOM     18  C   UNL     1       0.228   9.802  22.683  0.00  0.00    +0.000 C 
ATOM     19  C   UNL     1      -0.051   8.806  21.585  0.00  0.00    +0.000 C 
ATOM     20  C   UNL     1       0.413   9.340  20.262  0.00  0.00    +0.000 A 
ATOM     21  C   UNL     1       1.615   8.853  19.728  0.00  0.00    +0.000 A 
ATOM     22  C   UNL     1       1.776   8.860  18.361  0.00  0.00    +0.000 A 
ATOM     23  F   UNL     1       2.856   8.286  17.817  0.00  0.00    +0.000 F 
ATOM     24  C   UNL     1       0.714   9.274  17.572  0.00  0.00    +0.000 A 
ATOM     25  C   UNL     1      -0.346  10.008  18.159  0.00  0.00    +0.000 A 
ATOM     26  C   UNL     1      -0.360  10.277  19.537  0.00  0.00    +0.000 A 
ATOM     27  O   UNL     1       0.138  11.574  20.039  0.00  0.00    +0.000 OA
ENDROOT
BRANCH   1  28
ATOM     28  S   UNL     1       3.447  15.017  19.787  0.00  0.00    +0.000 S 
ATOM     29  O   UNL     1       4.198  14.382  20.853  0.00  0.00    +0.000 OA
ATOM     30  O   UNL     1       3.279  16.455  19.759  0.00  0.00    +0.000 OA
BRANCH  28  32
ATOM     31  C   UNL     1       5.590  14.870  18.103  0.00  0.00    +0.000 C 
ATOM     32  C   UNL     1       4.128  14.478  18.221  0.00  0.00    +0.000 C 
ENDBRANCH  28  32
ENDBRANCH   1  28
TORSDOF 2
ENDMDL
MODEL 3
REMARK VINA RESULT:      -7.0      0.903      1.080
REMARK  Name = 
REMARK  4 active torsions:
REMARK  status: ('A' for Active; 'I' for Inactive)
REMARK    1  A    between atoms: C_1  and  C_2
REMARK    2  A    between atoms: C_2  and  S_3
REMARK    3  A    between atoms: S_3  and  C_6
REMARK    4  A    between atoms: N_14  and  C_15
REMARK                            x       y       z     vdW  Elec       q    Type
REMARK                         _______ _______ _______ _____ _____    ______ ____
ROOT
ATOM      1  C   UNL     1       1.739  14.350  19.853  0.00  0.00    +0.000 A 
ATOM      2  C   UNL     1       1.084  14.032  18.657  0.00  0.00    +0.000 A 
ATOM      3  C   UNL     1      -0.176  13.411  18.699  0.00  0.00    +0.000 A 
ATOM      4  C   UNL     1      -0.684  12.996  19.956  0.00  0.00    +0.000 A 
ATOM      5  C   UNL     1      -0.262  13.787  21.127  0.00  0.00    +0.000 A 
ATOM      6  C   UNL     1       1.069  14.253  21.080  0.00  0.00    +0.000 A 
ATOM      7  C   UNL     1      -1.107  14.454  22.320  0.00  0.00    +0.000 A 
ATOM      8  C   UNL     1      -0.878  15.792  22.526  0.00  0.00    +0.000 A 
ATOM      9  N   UNL     1      -1.313  16.511  23.644  0.00  0.00    +0.000 N 
ATOM     10  C   UNL     1      -0.853  17.873  23.897  0.00  0.00    +0.000 C 
ATOM     11  C   UNL     1      -2.070  15.947  24.653  0.00  0.00    +0.000 A 
ATOM     12  O   UNL     1      -2.444  16.528  25.667  0.00  0.00    +0.000 OA
ATOM     13  C   UNL     1      -2.404  14.532  24.460  0.00  0.00    +0.000 A 
ATOM     14  C   UNL     1      -1.959  13.810  23.382  0.00  0.00    +0.000 A 
ATOM     15  O   UNL     1      -2.269  12.469  23.445  0.00  0.00    +0.000 OA
ATOM     16  C   UNL     1      -1.216  11.735  22.904  0.00  0.00    +0.000 C 
ATOM     17  C   UNL     1      -1.118  10.298  23.318  0.00  0.00    +0.000 C 
ATOM     18  C   UNL     1       0.171   9.797  22.665  0.00  0.00    +0.000 C 
ATOM     19  C   UNL     1      -0.118   8.818  21.555  0.00  0.00    +0.000 C 
ATOM     20  C   UNL     1       0.337   9.371  20.237  0.00  0.00    +0.000 A 
ATOM     21  C   UNL     1       1.535   8.889  19.687  0.00  0.00    +0.000 A 
ATOM     22  C   UNL     1       1.686   8.915  18.319  0.00  0.00    +0.000 A 
ATOM     23  F   UNL     1       2.761   8.348  17.759  0.00  0.00    +0.000 F 
ATOM     24  C   UNL     1       0.619   9.343  17.544  0.00  0.00    +0.000 A 
ATOM     25  C   UNL     1      -0.435  10.071  18.149  0.00  0.00    +0.000 A 
ATOM     26  C   UNL     1      -0.438  10.319  19.531  0.00  0.00    +0.000 A 
ATOM     27  O   UNL     1       0.065  11.608  20.048  0.00  0.00    +0.000 OA
ENDROOT
BRANCH   1  28
ATOM     28  S   UNL     1       3.379  15.049  19.822  0.00  0.00    +0.000 S 
ATOM     29  O   UNL     1       3.237  16.472  20.057  0.00  0.00    +0.000 OA
ATOM     30  O   UNL     1       4.012  14.560  18.615  0.00  0.00    +0.000 OA
BRANCH  28  32
ATOM     31  C   UNL     1       4.361  15.345  22.351  0.00  0.00    +0.000 C 
ATOM     32  C   UNL     1       4.193  14.322  21.243  0.00  0.00    +0.000 C 
ENDBRANCH  28  32
ENDBRANCH   1  28
TORSDOF 2
ENDMDL
MODEL 4
REMARK VINA RESULT:      -6.6      3.271      6.630
REMARK  Name = 
REMARK  4 active torsions:
REMARK  status: ('A' for Active; 'I' for Inactive)
REMARK    1  A    between atoms: C_1  and  C_2
REMARK    2  A    between atoms: C_2  and  S_3
REMARK    3  A    between atoms: S_3  and  C_6
REMARK    4  A    between atoms: N_14  and  C_15
REMARK                            x       y       z     vdW  Elec       q    Type
REMARK                         _______ _______ _______ _____ _____    ______ ____
ROOT
ATOM      1  C   UNL     1      -0.097  11.662  20.625  0.00  0.00    +0.000 A 
ATOM      2  C   UNL     1      -1.384  11.672  20.072  0.00  0.00    +0.000 A 
ATOM      3  C   UNL     1      -2.033  12.897  19.847  0.00  0.00    +0.000 A 
ATOM      4  C   UNL     1      -1.420  14.086  20.319  0.00  0.00    +0.000 A 
ATOM      5  C   UNL     1       0.054  14.084  20.378  0.00  0.00    +0.000 A 
ATOM      6  C   UNL     1       0.630  12.853  20.758  0.00  0.00    +0.000 A 
ATOM      7  C   UNL     1       1.142  15.131  19.829  0.00  0.00    +0.000 A 
ATOM      8  C   UNL     1       2.121  14.596  19.029  0.00  0.00    +0.000 A 
ATOM      9  N   UNL     1       3.287  15.264  18.644  0.00  0.00    +0.000 N 
ATOM     10  C   UNL     1       4.377  14.564  17.971  0.00  0.00    +0.000 C 
ATOM     11  C   UNL     1       3.557  16.572  19.000  0.00  0.00    +0.000 A 
ATOM     12  O   UNL     1       4.580  17.187  18.716  0.00  0.00    +0.000 OA
ATOM     13  C   UNL     1       2.518  17.222  19.804  0.00  0.00    +0.000 A 
ATOM     14  C   UNL     1       1.383  16.568  20.212  0.00  0.00    +0.000 A 
ATOM     15  O   UNL     1       0.591  17.304  21.064  0.00  0.00    +0.000 OA
ATOM     16  C   UNL     1       0.029  16.452  22.011  0.00  0.00    +0.000 C 
ATOM     17  C   UNL     1      -0.436  17.083  23.289  0.00  0.00    +0.000 C 
ATOM     18  C   UNL     1      -0.891  15.906  24.154  0.00  0.00    +0.000 C 
ATOM     19  C   UNL     1      -2.389  15.900  24.331  0.00  0.00    +0.000 C 
ATOM     20  C   UNL     1      -2.986  14.675  23.705  0.00  0.00    +0.000 A 
ATOM     21  C   UNL     1      -3.374  13.617  24.541  0.00  0.00    +0.000 A 
ATOM     22  C   UNL     1      -4.388  12.787  24.120  0.00  0.00    +0.000 A 
ATOM     23  F   UNL     1      -4.865  11.849  24.948  0.00  0.00    +0.000 F 
ATOM     24  C   UNL     1      -5.032  13.079  22.928  0.00  0.00    +0.000 A 
ATOM     25  C   UNL     1      -4.423  13.969  22.007  0.00  0.00    +0.000 A 
ATOM     26  C   UNL     1      -3.204  14.595  22.309  0.00  0.00    +0.000 A 
ATOM     27  O   UNL     1      -1.938  14.022  21.810  0.00  0.00    +0.000 OA
ENDROOT
BRANCH   1  28
ATOM     28  S   UNL     1       0.705  10.117  21.009  0.00  0.00    +0.000 S 
ATOM     29  O   UNL     1       1.847  10.430  21.846  0.00  0.00    +0.000 OA
ATOM     30  O   UNL     1       0.880   9.421  19.751  0.00  0.00    +0.000 OA
BRANCH  28  32
ATOM     31  C   UNL     1      -0.809   9.996  23.277  0.00  0.00    +0.000 C 
ATOM     32  C   UNL     1      -0.495   9.234  22.002  0.00  0.00    +0.000 C 
ENDBRANCH  28  32
ENDBRANCH   1  28
TORSDOF 2
ENDMDL
MODEL 5
REMARK VINA RESULT:      -6.6      3.788      6.250
REMARK  Name = 
REMARK  4 active torsions:
REMARK  status: ('A' for Active; 'I' for Inactive)
REMARK    1  A    between atoms: C_1  and  C_2
REMARK    2  A    between atoms: C_2  and  S_3
REMARK    3  A    between atoms: S_3  and  C_6
REMARK    4  A    between atoms: N_14  and  C_15
REMARK                            x       y       z     vdW  Elec       q    Type
REMARK                         _______ _______ _______ _____ _____    ______ ____
ROOT
ATOM      1  C   UNL     1      -1.661  11.312  19.209  0.00  0.00    +0.000 A 
ATOM      2  C   UNL     1      -0.620  11.042  20.106  0.00  0.00    +0.000 A 
ATOM      3  C   UNL     1      -0.387  11.916  21.181  0.00  0.00    +0.000 A 
ATOM      4  C   UNL     1      -1.127  13.124  21.245  0.00  0.00    +0.000 A 
ATOM      5  C   UNL     1      -2.478  13.097  20.655  0.00  0.00    +0.000 A 
ATOM      6  C   UNL     1      -2.600  12.314  19.487  0.00  0.00    +0.000 A 
ATOM      7  C   UNL     1      -3.902  13.561  21.237  0.00  0.00    +0.000 A 
ATOM      8  C   UNL     1      -4.895  12.615  21.187  0.00  0.00    +0.000 A 
ATOM      9  N   UNL     1      -6.252  12.872  21.410  0.00  0.00    +0.000 N 
ATOM     10  C   UNL     1      -7.271  11.863  21.134  0.00  0.00    +0.000 C 
ATOM     11  C   UNL     1      -6.734  14.120  21.753  0.00  0.00    +0.000 A 
ATOM     12  O   UNL     1      -7.917  14.400  21.923  0.00  0.00    +0.000 OA
ATOM     13  C   UNL     1      -5.713  15.164  21.884  0.00  0.00    +0.000 A 
ATOM     14  C   UNL     1      -4.383  14.931  21.641  0.00  0.00    +0.000 A 
ATOM     15  O   UNL     1      -3.601  16.063  21.691  0.00  0.00    +0.000 OA
ATOM     16  C   UNL     1      -2.606  15.970  20.722  0.00  0.00    +0.000 C 
ATOM     17  C   UNL     1      -1.984  17.258  20.273  0.00  0.00    +0.000 C 
ATOM     18  C   UNL     1      -1.029  16.852  19.149  0.00  0.00    +0.000 C 
ATOM     19  C   UNL     1       0.411  17.015  19.566  0.00  0.00    +0.000 C 
ATOM     20  C   UNL     1       1.104  15.684  19.592  0.00  0.00    +0.000 A 
ATOM     21  C   UNL     1       1.959  15.354  18.530  0.00  0.00    +0.000 A 
ATOM     22  C   UNL     1       2.994  14.479  18.770  0.00  0.00    +0.000 A 
ATOM     23  F   UNL     1       3.899  14.244  17.812  0.00  0.00    +0.000 F 
ATOM     24  C   UNL     1       3.192  14.027  20.066  0.00  0.00    +0.000 A 
ATOM     25  C   UNL     1       2.152  14.164  21.018  0.00  0.00    +0.000 A 
ATOM     26  C   UNL     1       0.944  14.796  20.681  0.00  0.00    +0.000 A 
ATOM     27  O   UNL     1      -0.223  13.985  20.278  0.00  0.00    +0.000 OA
ENDROOT
BRANCH   1  28
ATOM     28  S   UNL     1      -1.911  10.272  17.783  0.00  0.00    +0.000 S 
ATOM     29  O   UNL     1      -3.033   9.403  18.084  0.00  0.00    +0.000 OA
ATOM     30  O   UNL     1      -0.617   9.716  17.446  0.00  0.00    +0.000 OA
BRANCH  28  32
ATOM     31  C   UNL     1      -3.389  10.747  15.537  0.00  0.00    +0.000 C 
ATOM     32  C   UNL     1      -2.412  11.408  16.492  0.00  0.00    +0.000 C 
ENDBRANCH  28  32
ENDBRANCH   1  28
TORSDOF 2
ENDMDL
MODEL 6
REMARK VINA RESULT:      -6.6      4.295      6.013
REMARK  Name = 
REMARK  4 active torsions:
REMARK  status: ('A' for Active; 'I' for Inactive)
REMARK    1  A    between atoms: C_1  and  C_2
REMARK    2  A    between atoms: C_2  and  S_3
REMARK    3  A    between atoms: S_3  and  C_6
REMARK    4  A    between atoms: N_14  and  C_15
REMARK                            x       y       z     vdW  Elec       q    Type
REMARK                         _______ _______ _______ _____ _____    ______ ____
ROOT
ATOM      1  C   UNL     1      -1.984  12.268  21.113  0.00  0.00    +0.000 A 
ATOM      2  C   UNL     1      -2.437  12.544  19.818  0.00  0.00    +0.000 A 
ATOM      3  C   UNL     1      -3.497  13.447  19.630  0.00  0.00    +0.000 A 
ATOM      4  C   UNL     1      -4.171  13.946  20.773  0.00  0.00    +0.000 A 
ATOM      5  C   UNL     1      -3.371  14.064  22.007  0.00  0.00    +0.000 A 
ATOM      6  C   UNL     1      -2.426  13.034  22.201  0.00  0.00    +0.000 A 
ATOM      7  C   UNL     1      -3.175  15.283  23.034  0.00  0.00    +0.000 A 
ATOM      8  C   UNL     1      -1.872  15.635  23.288  0.00  0.00    +0.000 A 
ATOM      9  N   UNL     1      -1.465  16.491  24.316  0.00  0.00    +0.000 N 
ATOM     10  C   UNL     1      -0.054  16.651  24.657  0.00  0.00    +0.000 C 
ATOM     11  C   UNL     1      -2.353  17.117  25.170  0.00  0.00    +0.000 A 
ATOM     12  O   UNL     1      -2.041  17.847  26.105  0.00  0.00    +0.000 OA
ATOM     13  C   UNL     1      -3.767  16.832  24.910  0.00  0.00    +0.000 A 
ATOM     14  C   UNL     1      -4.178  15.972  23.923  0.00  0.00    +0.000 A 
ATOM     15  O   UNL     1      -5.534  15.736  23.920  0.00  0.00    +0.000 OA
ATOM     16  C   UNL     1      -5.762  14.407  23.569  0.00  0.00    +0.000 C 
ATOM     17  C   UNL     1      -7.077  13.820  23.984  0.00  0.00    +0.000 C 
ATOM     18  C   UNL     1      -6.990  12.351  23.568  0.00  0.00    +0.000 C 
ATOM     19  C   UNL     1      -7.917  12.049  22.417  0.00  0.00    +0.000 C 
ATOM     20  C   UNL     1      -7.132  11.642  21.205  0.00  0.00    +0.000 A 
ATOM     21  C   UNL     1      -7.072  10.280  20.874  0.00  0.00    +0.000 A 
ATOM     22  C   UNL     1      -6.884   9.933  19.555  0.00  0.00    +0.000 A 
ATOM     23  F   UNL     1      -6.948   8.646  19.191  0.00  0.00    +0.000 F 
ATOM     24  C   UNL     1      -6.842  10.942  18.605  0.00  0.00    +0.000 A 
ATOM     25  C   UNL     1      -6.626  12.280  19.018  0.00  0.00    +0.000 A 
ATOM     26  C   UNL     1      -6.505  12.603  20.379  0.00  0.00    +0.000 A 
ATOM     27  O   UNL     1      -5.166  12.737  20.987  0.00  0.00    +0.000 OA
ENDROOT
BRANCH   1  28
ATOM     28  S   UNL     1      -0.707  11.053  21.381  0.00  0.00    +0.000 S 
ATOM     29  O   UNL     1       0.562  11.751  21.310  0.00  0.00    +0.000 OA
ATOM     30  O   UNL     1      -0.994   9.951  20.486  0.00  0.00    +0.000 OA
BRANCH  28  32
ATOM     31  C   UNL     1      -0.055   9.343  23.405  0.00  0.00    +0.000 C 
ATOM     32  C   UNL     1      -0.959  10.515  23.070  0.00  0.00    +0.000 C 
ENDBRANCH  28  32
ENDBRANCH   1  28
TORSDOF 2
ENDMDL
MODEL 7
REMARK VINA RESULT:      -6.5      3.854      6.295
REMARK  Name = 
REMARK  4 active torsions:
REMARK  status: ('A' for Active; 'I' for Inactive)
REMARK    1  A    between atoms: C_1  and  C_2
REMARK    2  A    between atoms: C_2  and  S_3
REMARK    3  A    between atoms: S_3  and  C_6
REMARK    4  A    between atoms: N_14  and  C_15
REMARK                            x       y       z     vdW  Elec       q    Type
REMARK                         _______ _______ _______ _____ _____    ______ ____
ROOT
ATOM      1  C   UNL     1      -2.532  11.669  19.213  0.00  0.00    +0.000 A 
ATOM      2  C   UNL     1      -1.382  11.119  19.790  0.00  0.00    +0.000 A 
ATOM      3  C   UNL     1      -0.862  11.677  20.970  0.00  0.00    +0.000 A 
ATOM      4  C   UNL     1      -1.441  12.874  21.465  0.00  0.00    +0.000 A 
ATOM      5  C   UNL     1      -2.871  13.080  21.172  0.00  0.00    +0.000 A 
ATOM      6  C   UNL     1      -3.289  12.626  19.903  0.00  0.00    +0.000 A 
ATOM      7  C   UNL     1      -4.105  13.471  22.124  0.00  0.00    +0.000 A 
ATOM      8  C   UNL     1      -5.189  12.631  22.058  0.00  0.00    +0.000 A 
ATOM      9  N   UNL     1      -6.446  12.907  22.606  0.00  0.00    +0.000 N 
ATOM     10  C   UNL     1      -7.602  12.066  22.314  0.00  0.00    +0.000 C 
ATOM     11  C   UNL     1      -6.717  14.057  23.322  0.00  0.00    +0.000 A 
ATOM     12  O   UNL     1      -7.810  14.358  23.790  0.00  0.00    +0.000 OA
ATOM     13  C   UNL     1      -5.581  14.969  23.484  0.00  0.00    +0.000 A 
ATOM     14  C   UNL     1      -4.351  14.722  22.927  0.00  0.00    +0.000 A 
ATOM     15  O   UNL     1      -3.453  15.754  23.081  0.00  0.00    +0.000 OA
ATOM     16  C   UNL     1      -2.667  15.847  21.935  0.00  0.00    +0.000 C 
ATOM     17  C   UNL     1      -2.000  17.165  21.683  0.00  0.00    +0.000 C 
ATOM     18  C   UNL     1      -1.316  16.996  20.325  0.00  0.00    +0.000 C 
ATOM     19  C   UNL     1       0.185  16.959  20.466  0.00  0.00    +0.000 C 
ATOM     20  C   UNL     1       0.720  15.625  20.039  0.00  0.00    +0.000 A 
ATOM     21  C   UNL     1       1.326  15.519  18.778  0.00  0.00    +0.000 A 
ATOM     22  C   UNL     1       2.285  14.550  18.590  0.00  0.00    +0.000 A 
ATOM     23  F   UNL     1       2.969  14.507  17.440  0.00  0.00    +0.000 F 
ATOM     24  C   UNL     1       2.665  13.775  19.675  0.00  0.00    +0.000 A 
ATOM     25  C   UNL     1       1.837  13.732  20.825  0.00  0.00    +0.000 A 
ATOM     26  C   UNL     1       0.665  14.503  20.898  0.00  0.00    +0.000 A 
ATOM     27  O   UNL     1      -0.638  13.894  20.563  0.00  0.00    +0.000 OA
ENDROOT
BRANCH   1  28
ATOM     28  S   UNL     1      -3.151  11.038  17.664  0.00  0.00    +0.000 S 
ATOM     29  O   UNL     1      -3.311   9.606  17.825  0.00  0.00    +0.000 OA
ATOM     30  O   UNL     1      -2.292  11.573  16.629  0.00  0.00    +0.000 OA
BRANCH  28  32
ATOM     31  C   UNL     1      -5.825  10.917  18.199  0.00  0.00    +0.000 C 
ATOM     32  C   UNL     1      -4.778  11.772  17.509  0.00  0.00    +0.000 C 
ENDBRANCH  28  32
ENDBRANCH   1  28
TORSDOF 2
ENDMDL
MODEL 8
REMARK VINA RESULT:      -6.5      4.403      7.520
REMARK  Name = 
REMARK  4 active torsions:
REMARK  status: ('A' for Active; 'I' for Inactive)
REMARK    1  A    between atoms: C_1  and  C_2
REMARK    2  A    between atoms: C_2  and  S_3
REMARK    3  A    between atoms: S_3  and  C_6
REMARK    4  A    between atoms: N_14  and  C_15
REMARK                            x       y       z     vdW  Elec       q    Type
REMARK                         _______ _______ _______ _____ _____    ______ ____
ROOT
ATOM      1  C   UNL     1      -0.883  14.665  21.013  0.00  0.00    +0.000 A 
ATOM      2  C   UNL     1      -0.316  14.103  22.163  0.00  0.00    +0.000 A 
ATOM      3  C   UNL     1      -1.147  13.513  23.130  0.00  0.00    +0.000 A 
ATOM      4  C   UNL     1      -2.552  13.629  22.977  0.00  0.00    +0.000 A 
ATOM      5  C   UNL     1      -3.055  13.721  21.593  0.00  0.00    +0.000 A 
ATOM      6  C   UNL     1      -2.236  14.459  20.712  0.00  0.00    +0.000 A 
ATOM      7  C   UNL     1      -4.214  12.913  20.828  0.00  0.00    +0.000 A 
ATOM      8  C   UNL     1      -3.840  12.329  19.643  0.00  0.00    +0.000 A 
ATOM      9  N   UNL     1      -4.727  11.791  18.705  0.00  0.00    +0.000 N 
ATOM     10  C   UNL     1      -4.274  11.380  17.380  0.00  0.00    +0.000 C 
ATOM     11  C   UNL     1      -6.095  11.754  18.899  0.00  0.00    +0.000 A 
ATOM     12  O   UNL     1      -6.913  11.326  18.092  0.00  0.00    +0.000 OA
ATOM     13  C   UNL     1      -6.555  12.307  20.177  0.00  0.00    +0.000 A 
ATOM     14  C   UNL     1      -5.696  12.862  21.092  0.00  0.00    +0.000 A 
ATOM     15  O   UNL     1      -6.330  13.442  22.169  0.00  0.00    +0.000 OA
ATOM     16  C   UNL     1      -5.628  14.584  22.546  0.00  0.00    +0.000 C 
ATOM     17  C   UNL     1      -6.389  15.610  23.332  0.00  0.00    +0.000 C 
ATOM     18  C   UNL     1      -5.408  16.772  23.498  0.00  0.00    +0.000 C 
ATOM     19  C   UNL     1      -4.953  16.908  24.929  0.00  0.00    +0.000 C 
ATOM     20  C   UNL     1      -3.479  16.655  25.038  0.00  0.00    +0.000 A 
ATOM     21  C   UNL     1      -2.620  17.756  25.175  0.00  0.00    +0.000 A 
ATOM     22  C   UNL     1      -1.419  17.575  25.823  0.00  0.00    +0.000 A 
ATOM     23  F   UNL     1      -0.637  18.631  26.079  0.00  0.00    +0.000 F 
ATOM     24  C   UNL     1      -1.148  16.334  26.379  0.00  0.00    +0.000 A 
ATOM     25  C   UNL     1      -1.906  15.208  25.973  0.00  0.00    +0.000 A 
ATOM     26  C   UNL     1      -2.958  15.340  25.053  0.00  0.00    +0.000 A 
ATOM     27  O   UNL     1      -2.725  15.061  23.622  0.00  0.00    +0.000 OA
ENDROOT
BRANCH   1  28
ATOM     28  S   UNL     1       0.144  15.504  19.822  0.00  0.00    +0.000 S 
ATOM     29  O   UNL     1       1.127  16.264  20.571  0.00  0.00    +0.000 OA
ATOM     30  O   UNL     1      -0.754  16.167  18.899  0.00  0.00    +0.000 OA
BRANCH  28  32
ATOM     31  C   UNL     1      -0.001  13.197  18.371  0.00  0.00    +0.000 C 
ATOM     32  C   UNL     1       0.992  14.182  18.961  0.00  0.00    +0.000 C 
ENDBRANCH  28  32
ENDBRANCH   1  28
TORSDOF 2
ENDMDL
MODEL 9
REMARK VINA RESULT:      -6.5      4.241      5.982
REMARK  Name = 
REMARK  4 active torsions:
REMARK  status: ('A' for Active; 'I' for Inactive)
REMARK    1  A    between atoms: C_1  and  C_2
REMARK    2  A    between atoms: C_2  and  S_3
REMARK    3  A    between atoms: S_3  and  C_6
REMARK    4  A    between atoms: N_14  and  C_15
REMARK                            x       y       z     vdW  Elec       q    Type
REMARK                         _______ _______ _______ _____ _____    ______ ____
ROOT
ATOM      1  C   UNL     1      -1.918  12.347  21.409  0.00  0.00    +0.000 A 
ATOM      2  C   UNL     1      -2.290  12.615  20.086  0.00  0.00    +0.000 A 
ATOM      3  C   UNL     1      -3.301  13.555  19.825  0.00  0.00    +0.000 A 
ATOM      4  C   UNL     1      -4.014  14.104  20.921  0.00  0.00    +0.000 A 
ATOM      5  C   UNL     1      -3.277  14.214  22.194  0.00  0.00    +0.000 A 
ATOM      6  C   UNL     1      -2.386  13.152  22.457  0.00  0.00    +0.000 A 
ATOM      7  C   UNL     1      -3.086  15.445  23.209  0.00  0.00    +0.000 A 
ATOM      8  C   UNL     1      -1.786  15.749  23.527  0.00  0.00    +0.000 A 
ATOM      9  N   UNL     1      -1.399  16.608  24.560  0.00  0.00    +0.000 N 
ATOM     10  C   UNL     1      -0.003  16.718  24.974  0.00  0.00    +0.000 C 
ATOM     11  C   UNL     1      -2.305  17.286  25.354  0.00  0.00    +0.000 A 
ATOM     12  O   UNL     1      -2.013  18.021  26.291  0.00  0.00    +0.000 OA
ATOM     13  C   UNL     1      -3.714  17.052  25.023  0.00  0.00    +0.000 A 
ATOM     14  C   UNL     1      -4.106  16.190  24.030  0.00  0.00    +0.000 A 
ATOM     15  O   UNL     1      -5.469  16.008  23.957  0.00  0.00    +0.000 OA
ATOM     16  C   UNL     1      -5.732  14.683  23.619  0.00  0.00    +0.000 C 
ATOM     17  C   UNL     1      -7.090  14.157  23.972  0.00  0.00    +0.000 C 
ATOM     18  C   UNL     1      -7.041  12.678  23.587  0.00  0.00    +0.000 C 
ATOM     19  C   UNL     1      -7.916  12.390  22.393  0.00  0.00    +0.000 C 
ATOM     20  C   UNL     1      -7.086  11.928  21.232  0.00  0.00    +0.000 A 
ATOM     21  C   UNL     1      -7.063  10.559  20.929  0.00  0.00    +0.000 A 
ATOM     22  C   UNL     1      -6.820  10.179  19.628  0.00  0.00    +0.000 A 
ATOM     23  F   UNL     1      -6.917   8.889  19.284  0.00  0.00    +0.000 F 
ATOM     24  C   UNL     1      -6.686  11.166  18.664  0.00  0.00    +0.000 A 
ATOM     25  C   UNL     1      -6.438  12.503  19.065  0.00  0.00    +0.000 A 
ATOM     26  C   UNL     1      -6.376  12.848  20.425  0.00  0.00    +0.000 A 
ATOM     27  O   UNL     1      -5.067  12.940  21.102  0.00  0.00    +0.000 OA
ENDROOT
BRANCH   1  28
ATOM     28  S   UNL     1      -0.708  11.088  21.766  0.00  0.00    +0.000 S 
ATOM     29  O   UNL     1      -1.195  10.347  22.914  0.00  0.00    +0.000 OA
ATOM     30  O   UNL     1       0.577  11.753  21.808  0.00  0.00    +0.000 OA
BRANCH  28  32
ATOM     31  C   UNL     1       0.447  10.231  19.446  0.00  0.00    +0.000 C 
ATOM     32  C   UNL     1      -0.761  10.009  20.337  0.00  0.00    +0.000 C 
ENDBRANCH  28  32
ENDBRANCH   1  28
TORSDOF 2
ENDMDL
