MODEL 1
REMARK VINA RESULT:      -8.5      0.000      0.000
REMARK  Name = 
REMARK  9 active torsions:
REMARK  status: ('A' for Active; 'I' for Inactive)
REMARK    1  A    between atoms: C_1  and  O_2
REMARK    2  A    between atoms: O_2  and  C_3
REMARK    3  A    between atoms: N_16  and  C_17
REMARK    4  A    between atoms: C_17  and  C_18
REMARK    5  A    between atoms: C_18  and  C_19
REMARK    6  A    between atoms: C_19  and  C_20
REMARK    7  A    between atoms: C_20  and  N_21
REMARK    8  A    between atoms: C_22  and  C_24
REMARK    9  A    between atoms: C_27  and  C_28
REMARK                            x       y       z     vdW  Elec       q    Type
REMARK                         _______ _______ _______ _____ _____    ______ ____
ROOT
ATOM      1  C   UNL     1       1.792  13.126  18.392  0.00  0.00    +0.000 C 
ENDROOT
BRANCH   1   2
ATOM      2  C   UNL     1       1.406  12.077  19.443  0.00  0.00    +0.000 C 
BRANCH   2  16
ATOM      3  C   UNL     1       2.796   5.878  18.513  0.00  0.00    +0.000 A 
ATOM      4  C   UNL     1       2.563   4.912  19.501  0.00  0.00    +0.000 A 
ATOM      5  C   UNL     1       1.993   5.256  20.719  0.00  0.00    +0.000 A 
ATOM      6  C   UNL     1       1.602   6.570  20.947  0.00  0.00    +0.000 A 
ATOM      7  C   UNL     1       1.765   7.559  19.960  0.00  0.00    +0.000 A 
ATOM      8  C   UNL     1       2.427   7.222  18.745  0.00  0.00    +0.000 A 
ATOM      9  C   UNL     1       2.652   8.280  17.693  0.00  0.00    +0.000 C 
ATOM     10  C   UNL     1       2.295   9.701  18.068  0.00  0.00    +0.000 C 
ATOM     11  C   UNL     1       0.992   9.722  18.857  0.00  0.00    +0.000 C 
ATOM     12  C   UNL     1       1.239   8.980  20.206  0.00  0.00    +0.000 C 
ATOM     13  C   UNL     1      -0.051   9.029  21.050  0.00  0.00    +0.000 C 
ATOM     14  C   UNL     1      -0.590  10.450  21.160  0.00  0.00    +0.000 C 
ATOM     15  C   UNL     1      -0.801  11.045  19.771  0.00  0.00    +0.000 C 
ATOM     16  N   UNL     1       0.430  11.092  18.967  0.00  0.00    +0.000 NA
BRANCH   3  18
ATOM     17  C   UNL     1       3.827   4.019  17.387  0.00  0.00    +0.000 C 
ATOM     18  O   UNL     1       3.280   5.326  17.355  0.00  0.00    +0.000 OA
ENDBRANCH   3  18
ENDBRANCH   2  16
ENDBRANCH   1   2
BRANCH   1  19
ATOM     19  C   UNL     1       1.127  14.471  18.678  0.00  0.00    +0.000 C 
BRANCH  19  20
ATOM     20  C   UNL     1       2.147  15.475  19.202  0.00  0.00    +0.000 C 
BRANCH  20  21
ATOM     21  N   UNL     1       3.484  14.963  19.126  0.00  0.00    +0.000 N 
ATOM     22  C   UNL     1       4.524  15.798  18.777  0.00  0.00    +0.000 C 
ATOM     23  O   UNL     1       4.401  16.994  18.547  0.00  0.00    +0.000 OA
ATOM     24  H   UNL     1       3.663  14.015  19.426  0.00  0.00    +0.000 HD
BRANCH  22  25
ATOM     25  C   UNL     1       5.857  15.163  18.753  0.00  0.00    +0.000 A 
ATOM     26  C   UNL     1       6.297  14.442  17.643  0.00  0.00    +0.000 A 
ATOM     27  C   UNL     1       7.522  13.778  17.692  0.00  0.00    +0.000 A 
ATOM     28  C   UNL     1       8.342  13.837  18.836  0.00  0.00    +0.000 A 
ATOM     29  C   UNL     1       7.904  14.632  19.910  0.00  0.00    +0.000 A 
ATOM     30  C   UNL     1       6.674  15.285  19.878  0.00  0.00    +0.000 A 
BRANCH  28  31
ATOM     31  C   UNL     1       9.599  13.065  18.912  0.00  0.00    +0.000 A 
ATOM     32  C   UNL     1      10.138  12.655  20.144  0.00  0.00    +0.000 A 
ATOM     33  C   UNL     1      11.359  11.977  20.215  0.00  0.00    +0.000 A 
ATOM     34  C   UNL     1      12.050  11.669  19.056  0.00  0.00    +0.000 A 
ATOM     35  C   UNL     1      11.534  12.034  17.816  0.00  0.00    +0.000 A 
ATOM     36  C   UNL     1      10.324  12.732  17.748  0.00  0.00    +0.000 A 
ENDBRANCH  28  31
ENDBRANCH  22  25
ENDBRANCH  20  21
ENDBRANCH  19  20
ENDBRANCH   1  19
TORSDOF 8
ENDMDL
MODEL 2
REMARK VINA RESULT:      -8.4      5.450      9.119
REMARK  Name = 
REMARK  9 active torsions:
REMARK  status: ('A' for Active; 'I' for Inactive)
REMARK    1  A    between atoms: C_1  and  O_2
REMARK    2  A    between atoms: O_2  and  C_3
REMARK    3  A    between atoms: N_16  and  C_17
REMARK    4  A    between atoms: C_17  and  C_18
REMARK    5  A    between atoms: C_18  and  C_19
REMARK    6  A    between atoms: C_19  and  C_20
REMARK    7  A    between atoms: C_20  and  N_21
REMARK    8  A    between atoms: C_22  and  C_24
REMARK    9  A    between atoms: C_27  and  C_28
REMARK                            x       y       z     vdW  Elec       q    Type
REMARK                         _______ _______ _______ _____ _____    ______ ____
ROOT
ATOM      1  C   UNL     1       1.306   9.168  19.464  0.00  0.00    +0.000 C 
ENDROOT
BRANCH   1   2
ATOM      2  C   UNL     1      -0.144   9.645  19.309  0.00  0.00    +0.000 C 
BRANCH   2  16
ATOM      3  C   UNL     1      -5.764  12.606  18.371  0.00  0.00    +0.000 A 
ATOM      4  C   UNL     1      -6.255  13.561  19.271  0.00  0.00    +0.000 A 
ATOM      5  C   UNL     1      -5.527  13.929  20.395  0.00  0.00    +0.000 A 
ATOM      6  C   UNL     1      -4.270  13.376  20.608  0.00  0.00    +0.000 A 
ATOM      7  C   UNL     1      -3.715  12.456  19.700  0.00  0.00    +0.000 A 
ATOM      8  C   UNL     1      -4.499  12.017  18.594  0.00  0.00    +0.000 A 
ATOM      9  C   UNL     1      -3.939  10.998  17.634  0.00  0.00    +0.000 C 
ATOM     10  C   UNL     1      -2.612  10.371  18.002  0.00  0.00    +0.000 C 
ATOM     11  C   UNL     1      -1.675  11.428  18.572  0.00  0.00    +0.000 C 
ATOM     12  C   UNL     1      -2.288  11.935  19.914  0.00  0.00    +0.000 C 
ATOM     13  C   UNL     1      -1.334  12.971  20.542  0.00  0.00    +0.000 C 
ATOM     14  C   UNL     1       0.092  12.439  20.620  0.00  0.00    +0.000 C 
ATOM     15  C   UNL     1       0.568  11.997  19.239  0.00  0.00    +0.000 C 
ATOM     16  N   UNL     1      -0.272  10.946  18.645  0.00  0.00    +0.000 NA
BRANCH   3  18
ATOM     17  C   UNL     1      -7.324  13.561  16.809  0.00  0.00    +0.000 C 
ATOM     18  O   UNL     1      -6.586  12.449  17.285  0.00  0.00    +0.000 OA
ENDBRANCH   3  18
ENDBRANCH   2  16
ENDBRANCH   1   2
BRANCH   1  19
ATOM     19  C   UNL     1       1.503   8.405  20.772  0.00  0.00    +0.000 C 
BRANCH  19  20
ATOM     20  C   UNL     1       1.561   6.903  20.516  0.00  0.00    +0.000 C 
BRANCH  20  21
ATOM     21  N   UNL     1       2.395   6.588  19.392  0.00  0.00    +0.000 N 
ATOM     22  C   UNL     1       3.236   5.496  19.442  0.00  0.00    +0.000 C 
ATOM     23  O   UNL     1       3.310   4.725  20.390  0.00  0.00    +0.000 OA
ATOM     24  H   UNL     1       2.284   7.114  18.538  0.00  0.00    +0.000 HD
BRANCH  22  25
ATOM     25  C   UNL     1       4.028   5.259  18.219  0.00  0.00    +0.000 A 
ATOM     26  C   UNL     1       4.690   6.302  17.571  0.00  0.00    +0.000 A 
ATOM     27  C   UNL     1       5.350   6.059  16.367  0.00  0.00    +0.000 A 
ATOM     28  C   UNL     1       5.385   4.771  15.798  0.00  0.00    +0.000 A 
ATOM     29  C   UNL     1       4.771   3.727  16.514  0.00  0.00    +0.000 A 
ATOM     30  C   UNL     1       4.094   3.963  17.707  0.00  0.00    +0.000 A 
BRANCH  28  31
ATOM     31  C   UNL     1       6.016   4.536  14.483  0.00  0.00    +0.000 A 
ATOM     32  C   UNL     1       7.195   5.201  14.103  0.00  0.00    +0.000 A 
ATOM     33  C   UNL     1       7.756   5.021  12.835  0.00  0.00    +0.000 A 
ATOM     34  C   UNL     1       7.166   4.153  11.932  0.00  0.00    +0.000 A 
ATOM     35  C   UNL     1       6.013   3.457  12.282  0.00  0.00    +0.000 A 
ATOM     36  C   UNL     1       5.441   3.654  13.543  0.00  0.00    +0.000 A 
ENDBRANCH  28  31
ENDBRANCH  22  25
ENDBRANCH  20  21
ENDBRANCH  19  20
ENDBRANCH   1  19
TORSDOF 8
ENDMDL
MODEL 3
REMARK VINA RESULT:      -8.4      4.023      9.077
REMARK  Name = 
REMARK  9 active torsions:
REMARK  status: ('A' for Active; 'I' for Inactive)
REMARK    1  A    between atoms: C_1  and  O_2
REMARK    2  A    between atoms: O_2  and  C_3
REMARK    3  A    between atoms: N_16  and  C_17
REMARK    4  A    between atoms: C_17  and  C_18
REMARK    5  A    between atoms: C_18  and  C_19
REMARK    6  A    between atoms: C_19  and  C_20
REMARK    7  A    between atoms: C_20  and  N_21
REMARK    8  A    between atoms: C_22  and  C_24
REMARK    9  A    between atoms: C_27  and  C_28
REMARK                            x       y       z     vdW  Elec       q    Type
REMARK                         _______ _______ _______ _____ _____    ______ ____
ROOT
ATOM      1  C   UNL     1       1.438   9.218  19.133  0.00  0.00    +0.000 C 
ENDROOT
BRANCH   1   2
ATOM      2  C   UNL     1       0.667  10.530  18.942  0.00  0.00    +0.000 C 
BRANCH   2  16
ATOM      3  C   UNL     1       2.403  16.703  18.605  0.00  0.00    +0.000 A 
ATOM      4  C   UNL     1       1.459  17.729  18.467  0.00  0.00    +0.000 A 
ATOM      5  C   UNL     1       0.100  17.452  18.425  0.00  0.00    +0.000 A 
ATOM      6  C   UNL     1      -0.338  16.141  18.570  0.00  0.00    +0.000 A 
ATOM      7  C   UNL     1       0.573  15.088  18.768  0.00  0.00    +0.000 A 
ATOM      8  C   UNL     1       1.970  15.363  18.725  0.00  0.00    +0.000 A 
ATOM      9  C   UNL     1       2.963  14.240  18.891  0.00  0.00    +0.000 C 
ATOM     10  C   UNL     1       2.403  12.836  18.933  0.00  0.00    +0.000 C 
ATOM     11  C   UNL     1       1.125  12.807  19.761  0.00  0.00    +0.000 C 
ATOM     12  C   UNL     1       0.056  13.665  19.017  0.00  0.00    +0.000 C 
ATOM     13  C   UNL     1      -1.268  13.613  19.807  0.00  0.00    +0.000 C 
ATOM     14  C   UNL     1      -1.670  12.178  20.127  0.00  0.00    +0.000 C 
ATOM     15  C   UNL     1      -0.542  11.466  20.867  0.00  0.00    +0.000 C 
ATOM     16  N   UNL     1       0.716  11.421  20.105  0.00  0.00    +0.000 NA
BRANCH   3  18
ATOM     17  C   UNL     1       4.226  17.418  20.003  0.00  0.00    +0.000 C 
ATOM     18  O   UNL     1       3.681  17.188  18.715  0.00  0.00    +0.000 OA
ENDBRANCH   3  18
ENDBRANCH   2  16
ENDBRANCH   1   2
BRANCH   1  19
ATOM     19  C   UNL     1       0.940   8.454  20.358  0.00  0.00    +0.000 C 
BRANCH  19  20
ATOM     20  C   UNL     1       1.838   7.256  20.647  0.00  0.00    +0.000 C 
BRANCH  20  21
ATOM     21  N   UNL     1       2.642   6.909  19.512  0.00  0.00    +0.000 N 
ATOM     22  C   UNL     1       3.199   5.651  19.420  0.00  0.00    +0.000 C 
ATOM     23  O   UNL     1       3.032   4.760  20.243  0.00  0.00    +0.000 OA
ATOM     24  H   UNL     1       2.710   7.559  18.743  0.00  0.00    +0.000 HD
BRANCH  22  25
ATOM     25  C   UNL     1       3.988   5.402  18.197  0.00  0.00    +0.000 A 
ATOM     26  C   UNL     1       4.456   6.454  17.410  0.00  0.00    +0.000 A 
ATOM     27  C   UNL     1       5.115   6.181  16.212  0.00  0.00    +0.000 A 
ATOM     28  C   UNL     1       5.342   4.858  15.787  0.00  0.00    +0.000 A 
ATOM     29  C   UNL     1       4.923   3.820  16.638  0.00  0.00    +0.000 A 
ATOM     30  C   UNL     1       4.247   4.082  17.827  0.00  0.00    +0.000 A 
BRANCH  28  31
ATOM     31  C   UNL     1       5.968   4.575  14.479  0.00  0.00    +0.000 A 
ATOM     32  C   UNL     1       7.164   5.201  14.084  0.00  0.00    +0.000 A 
ATOM     33  C   UNL     1       7.721   4.976  12.822  0.00  0.00    +0.000 A 
ATOM     34  C   UNL     1       7.111   4.101  11.940  0.00  0.00    +0.000 A 
ATOM     35  C   UNL     1       5.941   3.443  12.305  0.00  0.00    +0.000 A 
ATOM     36  C   UNL     1       5.373   3.685  13.560  0.00  0.00    +0.000 A 
ENDBRANCH  28  31
ENDBRANCH  22  25
ENDBRANCH  20  21
ENDBRANCH  19  20
ENDBRANCH   1  19
TORSDOF 8
ENDMDL
MODEL 4
REMARK VINA RESULT:      -8.2      3.023      6.874
REMARK  Name = 
REMARK  9 active torsions:
REMARK  status: ('A' for Active; 'I' for Inactive)
REMARK    1  A    between atoms: C_1  and  O_2
REMARK    2  A    between atoms: O_2  and  C_3
REMARK    3  A    between atoms: N_16  and  C_17
REMARK    4  A    between atoms: C_17  and  C_18
REMARK    5  A    between atoms: C_18  and  C_19
REMARK    6  A    between atoms: C_19  and  C_20
REMARK    7  A    between atoms: C_20  and  N_21
REMARK    8  A    between atoms: C_22  and  C_24
REMARK    9  A    between atoms: C_27  and  C_28
REMARK                            x       y       z     vdW  Elec       q    Type
REMARK                         _______ _______ _______ _____ _____    ______ ____
ROOT
ATOM      1  C   UNL     1       2.146   4.248  17.937  0.00  0.00    +0.000 C 
ENDROOT
BRANCH   1   2
ATOM      2  C   UNL     1       1.969   5.770  17.862  0.00  0.00    +0.000 C 
BRANCH   2  16
ATOM      3  C   UNL     1       1.048  11.952  19.329  0.00  0.00    +0.000 A 
ATOM      4  C   UNL     1       0.298  12.343  20.447  0.00  0.00    +0.000 A 
ATOM      5  C   UNL     1      -0.255  11.401  21.304  0.00  0.00    +0.000 A 
ATOM      6  C   UNL     1      -0.024  10.049  21.078  0.00  0.00    +0.000 A 
ATOM      7  C   UNL     1       0.770   9.616  20.000  0.00  0.00    +0.000 A 
ATOM      8  C   UNL     1       1.265  10.580  19.075  0.00  0.00    +0.000 A 
ATOM      9  C   UNL     1       2.080  10.131  17.888  0.00  0.00    +0.000 C 
ATOM     10  C   UNL     1       2.189   8.640  17.660  0.00  0.00    +0.000 C 
ATOM     11  C   UNL     1       2.379   7.920  18.989  0.00  0.00    +0.000 C 
ATOM     12  C   UNL     1       1.083   8.124  19.831  0.00  0.00    +0.000 C 
ATOM     13  C   UNL     1       1.225   7.362  21.165  0.00  0.00    +0.000 C 
ATOM     14  C   UNL     1       1.652   5.917  20.937  0.00  0.00    +0.000 C 
ATOM     15  C   UNL     1       2.938   5.868  20.119  0.00  0.00    +0.000 C 
ATOM     16  N   UNL     1       2.814   6.512  18.802  0.00  0.00    +0.000 NA
BRANCH   3  18
ATOM     17  C   UNL     1       2.607  13.784  19.281  0.00  0.00    +0.000 C 
ATOM     18  O   UNL     1       1.581  13.027  18.664  0.00  0.00    +0.000 OA
ENDBRANCH   3  18
ENDBRANCH   2  16
ENDBRANCH   1   2
BRANCH   1  19
ATOM     19  C   UNL     1       3.169   3.755  16.917  0.00  0.00    +0.000 C 
BRANCH  19  20
ATOM     20  C   UNL     1       4.502   3.454  17.593  0.00  0.00    +0.000 C 
BRANCH  20  21
ATOM     21  N   UNL     1       5.246   4.651  17.857  0.00  0.00    +0.000 N 
ATOM     22  C   UNL     1       6.516   4.802  17.343  0.00  0.00    +0.000 C 
ATOM     23  O   UNL     1       7.072   3.980  16.625  0.00  0.00    +0.000 OA
ATOM     24  H   UNL     1       4.791   5.414  18.337  0.00  0.00    +0.000 HD
BRANCH  22  25
ATOM     25  C   UNL     1       7.175   6.084  17.662  0.00  0.00    +0.000 A 
ATOM     26  C   UNL     1       8.014   6.211  18.769  0.00  0.00    +0.000 A 
ATOM     27  C   UNL     1       8.543   7.459  19.094  0.00  0.00    +0.000 A 
ATOM     28  C   UNL     1       8.268   8.598  18.313  0.00  0.00    +0.000 A 
ATOM     29  C   UNL     1       7.479   8.422  17.162  0.00  0.00    +0.000 A 
ATOM     30  C   UNL     1       6.930   7.183  16.839  0.00  0.00    +0.000 A 
BRANCH  28  31
ATOM     31  C   UNL     1       8.765   9.931  18.709  0.00  0.00    +0.000 A 
ATOM     32  C   UNL     1       9.329  10.160  19.977  0.00  0.00    +0.000 A 
ATOM     33  C   UNL     1       9.743  11.437  20.369  0.00  0.00    +0.000 A 
ATOM     34  C   UNL     1       9.629  12.503  19.494  0.00  0.00    +0.000 A 
ATOM     35  C   UNL     1       9.100  12.310  18.222  0.00  0.00    +0.000 A 
ATOM     36  C   UNL     1       8.666  11.037  17.838  0.00  0.00    +0.000 A 
ENDBRANCH  28  31
ENDBRANCH  22  25
ENDBRANCH  20  21
ENDBRANCH  19  20
ENDBRANCH   1  19
TORSDOF 8
ENDMDL
MODEL 5
REMARK VINA RESULT:      -7.9      5.722      8.477
REMARK  Name = 
REMARK  9 active torsions:
REMARK  status: ('A' for Active; 'I' for Inactive)
REMARK    1  A    between atoms: C_1  and  O_2
REMARK    2  A    between atoms: O_2  and  C_3
REMARK    3  A    between atoms: N_16  and  C_17
REMARK    4  A    between atoms: C_17  and  C_18
REMARK    5  A    between atoms: C_18  and  C_19
REMARK    6  A    between atoms: C_19  and  C_20
REMARK    7  A    between atoms: C_20  and  N_21
REMARK    8  A    between atoms: C_22  and  C_24
REMARK    9  A    between atoms: C_27  and  C_28
REMARK                            x       y       z     vdW  Elec       q    Type
REMARK                         _______ _______ _______ _____ _____    ______ ____
ROOT
ATOM      1  C   UNL     1       0.927   9.890  21.827  0.00  0.00    +0.000 C 
ENDROOT
BRANCH   1   2
ATOM      2  C   UNL     1      -0.440  10.584  21.795  0.00  0.00    +0.000 C 
BRANCH   2  16
ATOM      3  C   UNL     1      -3.851  11.458  16.426  0.00  0.00    +0.000 A 
ATOM      4  C   UNL     1      -5.133  12.025  16.449  0.00  0.00    +0.000 A 
ATOM      5  C   UNL     1      -5.708  12.449  17.639  0.00  0.00    +0.000 A 
ATOM      6  C   UNL     1      -4.986  12.355  18.822  0.00  0.00    +0.000 A 
ATOM      7  C   UNL     1      -3.674  11.844  18.835  0.00  0.00    +0.000 A 
ATOM      8  C   UNL     1      -3.119  11.332  17.628  0.00  0.00    +0.000 A 
ATOM      9  C   UNL     1      -1.732  10.739  17.631  0.00  0.00    +0.000 C 
ATOM     10  C   UNL     1      -1.063  10.577  18.977  0.00  0.00    +0.000 C 
ATOM     11  C   UNL     1      -1.337  11.796  19.848  0.00  0.00    +0.000 C 
ATOM     12  C   UNL     1      -2.868  11.838  20.141  0.00  0.00    +0.000 C 
ATOM     13  C   UNL     1      -3.170  13.036  21.065  0.00  0.00    +0.000 C 
ATOM     14  C   UNL     1      -2.258  13.041  22.286  0.00  0.00    +0.000 C 
ATOM     15  C   UNL     1      -0.795  13.016  21.853  0.00  0.00    +0.000 C 
ATOM     16  N   UNL     1      -0.451  11.840  21.039  0.00  0.00    +0.000 NA
BRANCH   3  18
ATOM     17  C   UNL     1      -3.680   9.910  14.593  0.00  0.00    +0.000 C 
ATOM     18  O   UNL     1      -3.429  11.188  15.150  0.00  0.00    +0.000 OA
ENDBRANCH   3  18
ENDBRANCH   2  16
ENDBRANCH   1   2
BRANCH   1  19
ATOM     19  C   UNL     1       1.256   9.247  20.482  0.00  0.00    +0.000 C 
BRANCH  19  20
ATOM     20  C   UNL     1       1.894   7.877  20.681  0.00  0.00    +0.000 C 
BRANCH  20  21
ATOM     21  N   UNL     1       2.521   7.403  19.482  0.00  0.00    +0.000 N 
ATOM     22  C   UNL     1       3.047   6.129  19.435  0.00  0.00    +0.000 C 
ATOM     23  O   UNL     1       2.994   5.326  20.358  0.00  0.00    +0.000 OA
ATOM     24  H   UNL     1       2.482   7.974  18.651  0.00  0.00    +0.000 HD
BRANCH  22  25
ATOM     25  C   UNL     1       3.647   5.745  18.142  0.00  0.00    +0.000 A 
ATOM     26  C   UNL     1       3.662   4.417  17.717  0.00  0.00    +0.000 A 
ATOM     27  C   UNL     1       4.320   4.078  16.535  0.00  0.00    +0.000 A 
ATOM     28  C   UNL     1       4.954   5.055  15.743  0.00  0.00    +0.000 A 
ATOM     29  C   UNL     1       4.856   6.394  16.161  0.00  0.00    +0.000 A 
ATOM     30  C   UNL     1       4.217   6.741  17.349  0.00  0.00    +0.000 A 
BRANCH  28  31
ATOM     31  C   UNL     1       5.718   4.678  14.536  0.00  0.00    +0.000 A 
ATOM     32  C   UNL     1       6.998   5.201  14.283  0.00  0.00    +0.000 A 
ATOM     33  C   UNL     1       7.693   4.888  13.110  0.00  0.00    +0.000 A 
ATOM     34  C   UNL     1       7.136   4.026  12.182  0.00  0.00    +0.000 A 
ATOM     35  C   UNL     1       5.882   3.468  12.411  0.00  0.00    +0.000 A 
ATOM     36  C   UNL     1       5.178   3.798  13.574  0.00  0.00    +0.000 A 
ENDBRANCH  28  31
ENDBRANCH  22  25
ENDBRANCH  20  21
ENDBRANCH  19  20
ENDBRANCH   1  19
TORSDOF 8
ENDMDL
MODEL 6
REMARK VINA RESULT:      -7.9      5.377      9.690
REMARK  Name = 
REMARK  9 active torsions:
REMARK  status: ('A' for Active; 'I' for Inactive)
REMARK    1  A    between atoms: C_1  and  O_2
REMARK    2  A    between atoms: O_2  and  C_3
REMARK    3  A    between atoms: N_16  and  C_17
REMARK    4  A    between atoms: C_17  and  C_18
REMARK    5  A    between atoms: C_18  and  C_19
REMARK    6  A    between atoms: C_19  and  C_20
REMARK    7  A    between atoms: C_20  and  N_21
REMARK    8  A    between atoms: C_22  and  C_24
REMARK    9  A    between atoms: C_27  and  C_28
REMARK                            x       y       z     vdW  Elec       q    Type
REMARK                         _______ _______ _______ _____ _____    ______ ____
ROOT
ATOM      1  C   UNL     1       0.416   8.844  21.710  0.00  0.00    +0.000 C 
ENDROOT
BRANCH   1   2
ATOM      2  C   UNL     1       0.204  10.350  21.916  0.00  0.00    +0.000 C 
BRANCH   2  16
ATOM      3  C   UNL     1      -3.398  15.416  23.525  0.00  0.00    +0.000 A 
ATOM      4  C   UNL     1      -3.037  16.722  23.166  0.00  0.00    +0.000 A 
ATOM      5  C   UNL     1      -1.894  16.971  22.420  0.00  0.00    +0.000 A 
ATOM      6  C   UNL     1      -1.117  15.907  21.979  0.00  0.00    +0.000 A 
ATOM      7  C   UNL     1      -1.474  14.577  22.268  0.00  0.00    +0.000 A 
ATOM      8  C   UNL     1      -2.600  14.328  23.105  0.00  0.00    +0.000 A 
ATOM      9  C   UNL     1      -2.971  12.911  23.463  0.00  0.00    +0.000 C 
ATOM     10  C   UNL     1      -2.011  11.825  23.032  0.00  0.00    +0.000 C 
ATOM     11  C   UNL     1      -1.493  12.111  21.628  0.00  0.00    +0.000 C 
ATOM     12  C   UNL     1      -0.648  13.420  21.689  0.00  0.00    +0.000 C 
ATOM     13  C   UNL     1      -0.067  13.709  20.290  0.00  0.00    +0.000 C 
ATOM     14  C   UNL     1       0.640  12.485  19.718  0.00  0.00    +0.000 C 
ATOM     15  C   UNL     1      -0.306  11.288  19.701  0.00  0.00    +0.000 C 
ATOM     16  N   UNL     1      -0.814  10.931  21.034  0.00  0.00    +0.000 NA
BRANCH   3  18
ATOM     17  C   UNL     1      -5.226  16.587  24.561  0.00  0.00    +0.000 C 
ATOM     18  O   UNL     1      -4.601  15.373  24.181  0.00  0.00    +0.000 OA
ENDBRANCH   3  18
ENDBRANCH   2  16
ENDBRANCH   1   2
BRANCH   1  19
ATOM     19  C   UNL     1       1.446   8.571  20.618  0.00  0.00    +0.000 C 
BRANCH  19  20
ATOM     20  C   UNL     1       1.829   7.095  20.595  0.00  0.00    +0.000 C 
BRANCH  20  21
ATOM     21  N   UNL     1       2.635   6.773  19.454  0.00  0.00    +0.000 N 
ATOM     22  C   UNL     1       3.202   5.521  19.341  0.00  0.00    +0.000 C 
ATOM     23  O   UNL     1       3.042   4.616  20.150  0.00  0.00    +0.000 OA
ATOM     24  H   UNL     1       2.699   7.437  18.696  0.00  0.00    +0.000 HD
BRANCH  22  25
ATOM     25  C   UNL     1       3.993   5.299  18.115  0.00  0.00    +0.000 A 
ATOM     26  C   UNL     1       4.533   6.366  17.397  0.00  0.00    +0.000 A 
ATOM     27  C   UNL     1       5.193   6.126  16.193  0.00  0.00    +0.000 A 
ATOM     28  C   UNL     1       5.349   4.819  15.692  0.00  0.00    +0.000 A 
ATOM     29  C   UNL     1       4.858   3.759  16.475  0.00  0.00    +0.000 A 
ATOM     30  C   UNL     1       4.181   3.990  17.670  0.00  0.00    +0.000 A 
BRANCH  28  31
ATOM     31  C   UNL     1       5.977   4.578  14.376  0.00  0.00    +0.000 A 
ATOM     32  C   UNL     1       5.437   3.658  13.460  0.00  0.00    +0.000 A 
ATOM     33  C   UNL     1       6.067   3.390  12.241  0.00  0.00    +0.000 A 
ATOM     34  C   UNL     1       7.233   4.054  11.901  0.00  0.00    +0.000 A 
ATOM     35  C   UNL     1       7.783   4.991  12.771  0.00  0.00    +0.000 A 
ATOM     36  C   UNL     1       7.163   5.243  13.999  0.00  0.00    +0.000 A 
ENDBRANCH  28  31
ENDBRANCH  22  25
ENDBRANCH  20  21
ENDBRANCH  19  20
ENDBRANCH   1  19
TORSDOF 8
ENDMDL
MODEL 7
REMARK VINA RESULT:      -7.8      5.351      9.031
REMARK  Name = 
REMARK  9 active torsions:
REMARK  status: ('A' for Active; 'I' for Inactive)
REMARK    1  A    between atoms: C_1  and  O_2
REMARK    2  A    between atoms: O_2  and  C_3
REMARK    3  A    between atoms: N_16  and  C_17
REMARK    4  A    between atoms: C_17  and  C_18
REMARK    5  A    between atoms: C_18  and  C_19
REMARK    6  A    between atoms: C_19  and  C_20
REMARK    7  A    between atoms: C_20  and  N_21
REMARK    8  A    between atoms: C_22  and  C_24
REMARK    9  A    between atoms: C_27  and  C_28
REMARK                            x       y       z     vdW  Elec       q    Type
REMARK                         _______ _______ _______ _____ _____    ______ ____
ROOT
ATOM      1  C   UNL     1       1.411   9.288  19.297  0.00  0.00    +0.000 C 
ENDROOT
BRANCH   1   2
ATOM      2  C   UNL     1       0.017   9.705  18.811  0.00  0.00    +0.000 C 
BRANCH   2  16
ATOM      3  C   UNL     1      -5.380  13.105  19.540  0.00  0.00    +0.000 A 
ATOM      4  C   UNL     1      -5.632  13.854  20.698  0.00  0.00    +0.000 A 
ATOM      5  C   UNL     1      -4.704  13.912  21.729  0.00  0.00    +0.000 A 
ATOM      6  C   UNL     1      -3.486  13.258  21.593  0.00  0.00    +0.000 A 
ATOM      7  C   UNL     1      -3.170  12.542  20.424  0.00  0.00    +0.000 A 
ATOM      8  C   UNL     1      -4.156  12.413  19.404  0.00  0.00    +0.000 A 
ATOM      9  C   UNL     1      -3.853  11.612  18.162  0.00  0.00    +0.000 C 
ATOM     10  C   UNL     1      -2.549  10.846  18.147  0.00  0.00    +0.000 C 
ATOM     11  C   UNL     1      -1.439  11.690  18.759  0.00  0.00    +0.000 C 
ATOM     12  C   UNL     1      -1.781  11.908  20.265  0.00  0.00    +0.000 C 
ATOM     13  C   UNL     1      -0.648  12.719  20.926  0.00  0.00    +0.000 C 
ATOM     14  C   UNL     1       0.717  12.106  20.635  0.00  0.00    +0.000 C 
ATOM     15  C   UNL     1       0.925  11.968  19.130  0.00  0.00    +0.000 C 
ATOM     16  N   UNL     1      -0.093  11.129  18.478  0.00  0.00    +0.000 NA
BRANCH   3  18
ATOM     17  C   UNL     1      -6.838  14.546  18.280  0.00  0.00    +0.000 C 
ATOM     18  O   UNL     1      -6.376  13.247  18.607  0.00  0.00    +0.000 OA
ENDBRANCH   3  18
ENDBRANCH   2  16
ENDBRANCH   1   2
BRANCH   1  19
ATOM     19  C   UNL     1       1.357   8.698  20.704  0.00  0.00    +0.000 C 
BRANCH  19  20
ATOM     20  C   UNL     1       1.755   7.227  20.688  0.00  0.00    +0.000 C 
BRANCH  20  21
ATOM     21  N   UNL     1       2.400   6.865  19.459  0.00  0.00    +0.000 N 
ATOM     22  C   UNL     1       3.196   5.741  19.402  0.00  0.00    +0.000 C 
ATOM     23  O   UNL     1       3.380   4.977  20.342  0.00  0.00    +0.000 OA
ATOM     24  H   UNL     1       2.184   7.386  18.621  0.00  0.00    +0.000 HD
BRANCH  22  25
ATOM     25  C   UNL     1       3.788   5.458  18.080  0.00  0.00    +0.000 A 
ATOM     26  C   UNL     1       3.771   4.172  17.538  0.00  0.00    +0.000 A 
ATOM     27  C   UNL     1       4.422   3.923  16.331  0.00  0.00    +0.000 A 
ATOM     28  C   UNL     1       5.083   4.949  15.629  0.00  0.00    +0.000 A 
ATOM     29  C   UNL     1       5.018   6.248  16.164  0.00  0.00    +0.000 A 
ATOM     30  C   UNL     1       4.386   6.505  17.378  0.00  0.00    +0.000 A 
BRANCH  28  31
ATOM     31  C   UNL     1       5.840   4.662  14.393  0.00  0.00    +0.000 A 
ATOM     32  C   UNL     1       5.349   3.776  13.418  0.00  0.00    +0.000 A 
ATOM     33  C   UNL     1       6.095   3.461  12.279  0.00  0.00    +0.000 A 
ATOM     34  C   UNL     1       7.334   4.046  12.077  0.00  0.00    +0.000 A 
ATOM     35  C   UNL     1       7.841   4.948  13.007  0.00  0.00    +0.000 A 
ATOM     36  C   UNL     1       7.102   5.246  14.157  0.00  0.00    +0.000 A 
ENDBRANCH  28  31
ENDBRANCH  22  25
ENDBRANCH  20  21
ENDBRANCH  19  20
ENDBRANCH   1  19
TORSDOF 8
ENDMDL
MODEL 8
REMARK VINA RESULT:      -7.8      3.019      6.537
REMARK  Name = 
REMARK  9 active torsions:
REMARK  status: ('A' for Active; 'I' for Inactive)
REMARK    1  A    between atoms: C_1  and  O_2
REMARK    2  A    between atoms: O_2  and  C_3
REMARK    3  A    between atoms: N_16  and  C_17
REMARK    4  A    between atoms: C_17  and  C_18
REMARK    5  A    between atoms: C_18  and  C_19
REMARK    6  A    between atoms: C_19  and  C_20
REMARK    7  A    between atoms: C_20  and  N_21
REMARK    8  A    between atoms: C_22  and  C_24
REMARK    9  A    between atoms: C_27  and  C_28
REMARK                            x       y       z     vdW  Elec       q    Type
REMARK                         _______ _______ _______ _____ _____    ______ ____
ROOT
ATOM      1  C   UNL     1       3.171   4.220  16.925  0.00  0.00    +0.000 C 
ENDROOT
BRANCH   1   2
ATOM      2  C   UNL     1       2.360   5.166  17.820  0.00  0.00    +0.000 C 
BRANCH   2  16
ATOM      3  C   UNL     1       0.987  11.266  19.280  0.00  0.00    +0.000 A 
ATOM      4  C   UNL     1       0.262  11.606  20.430  0.00  0.00    +0.000 A 
ATOM      5  C   UNL     1      -0.167  10.631  21.320  0.00  0.00    +0.000 A 
ATOM      6  C   UNL     1       0.167   9.301  21.095  0.00  0.00    +0.000 A 
ATOM      7  C   UNL     1       0.942   8.924  19.983  0.00  0.00    +0.000 A 
ATOM      8  C   UNL     1       1.308   9.914  19.026  0.00  0.00    +0.000 A 
ATOM      9  C   UNL     1       2.100   9.522  17.804  0.00  0.00    +0.000 C 
ATOM     10  C   UNL     1       2.325   8.042  17.584  0.00  0.00    +0.000 C 
ATOM     11  C   UNL     1       2.640   7.358  18.908  0.00  0.00    +0.000 C 
ATOM     12  C   UNL     1       1.373   7.461  19.811  0.00  0.00    +0.000 C 
ATOM     13  C   UNL     1       1.644   6.731  21.142  0.00  0.00    +0.000 C 
ATOM     14  C   UNL     1       2.181   5.324  20.906  0.00  0.00    +0.000 C 
ATOM     15  C   UNL     1       3.426   5.375  20.026  0.00  0.00    +0.000 C 
ATOM     16  N   UNL     1       3.183   5.989  18.712  0.00  0.00    +0.000 NA
BRANCH   3  18
ATOM     17  C   UNL     1       2.452  13.166  19.091  0.00  0.00    +0.000 C 
ATOM     18  O   UNL     1       1.394  12.374  18.580  0.00  0.00    +0.000 OA
ENDBRANCH   3  18
ENDBRANCH   2  16
ENDBRANCH   1   2
BRANCH   1  19
ATOM     19  C   UNL     1       4.218   3.454  17.730  0.00  0.00    +0.000 C 
BRANCH  19  20
ATOM     20  C   UNL     1       5.606   3.645  17.129  0.00  0.00    +0.000 C 
BRANCH  20  21
ATOM     21  N   UNL     1       6.249   4.820  17.642  0.00  0.00    +0.000 N 
ATOM     22  C   UNL     1       6.556   5.864  16.795  0.00  0.00    +0.000 C 
ATOM     23  O   UNL     1       6.287   5.886  15.601  0.00  0.00    +0.000 OA
ATOM     24  H   UNL     1       6.381   4.910  18.639  0.00  0.00    +0.000 HD
BRANCH  22  25
ATOM     25  C   UNL     1       7.196   7.027  17.440  0.00  0.00    +0.000 A 
ATOM     26  C   UNL     1       6.982   8.324  16.973  0.00  0.00    +0.000 A 
ATOM     27  C   UNL     1       7.676   9.388  17.546  0.00  0.00    +0.000 A 
ATOM     28  C   UNL     1       8.578   9.187  18.609  0.00  0.00    +0.000 A 
ATOM     29  C   UNL     1       8.716   7.879  19.106  0.00  0.00    +0.000 A 
ATOM     30  C   UNL     1       8.041   6.806  18.528  0.00  0.00    +0.000 A 
BRANCH  28  31
ATOM     31  C   UNL     1       9.370  10.307  19.157  0.00  0.00    +0.000 A 
ATOM     32  C   UNL     1       9.317  10.649  20.520  0.00  0.00    +0.000 A 
ATOM     33  C   UNL     1      10.023  11.746  21.023  0.00  0.00    +0.000 A 
ATOM     34  C   UNL     1      10.817  12.506  20.181  0.00  0.00    +0.000 A 
ATOM     35  C   UNL     1      10.916  12.181  18.832  0.00  0.00    +0.000 A 
ATOM     36  C   UNL     1      10.193  11.096  18.325  0.00  0.00    +0.000 A 
ENDBRANCH  28  31
ENDBRANCH  22  25
ENDBRANCH  20  21
ENDBRANCH  19  20
ENDBRANCH   1  19
TORSDOF 8
ENDMDL
MODEL 9
REMARK VINA RESULT:      -7.8      4.349      8.883
REMARK  Name = 
REMARK  9 active torsions:
REMARK  status: ('A' for Active; 'I' for Inactive)
REMARK    1  A    between atoms: C_1  and  O_2
REMARK    2  A    between atoms: O_2  and  C_3
REMARK    3  A    between atoms: N_16  and  C_17
REMARK    4  A    between atoms: C_17  and  C_18
REMARK    5  A    between atoms: C_18  and  C_19
REMARK    6  A    between atoms: C_19  and  C_20
REMARK    7  A    between atoms: C_20  and  N_21
REMARK    8  A    between atoms: C_22  and  C_24
REMARK    9  A    between atoms: C_27  and  C_28
REMARK                            x       y       z     vdW  Elec       q    Type
REMARK                         _______ _______ _______ _____ _____    ______ ____
ROOT
ATOM      1  C   UNL     1       0.659   9.355  21.798  0.00  0.00    +0.000 C 
ENDROOT
BRANCH   1   2
ATOM      2  C   UNL     1      -0.473  10.375  21.616  0.00  0.00    +0.000 C 
BRANCH   2  16
ATOM      3  C   UNL     1       1.805  15.752  18.945  0.00  0.00    +0.000 A 
ATOM      4  C   UNL     1       0.953  16.750  18.452  0.00  0.00    +0.000 A 
ATOM      5  C   UNL     1      -0.426  16.628  18.549  0.00  0.00    +0.000 A 
ATOM      6  C   UNL     1      -0.974  15.521  19.185  0.00  0.00    +0.000 A 
ATOM      7  C   UNL     1      -0.154  14.523  19.744  0.00  0.00    +0.000 A 
ATOM      8  C   UNL     1       1.258  14.609  19.569  0.00  0.00    +0.000 A 
ATOM      9  C   UNL     1       2.150  13.526  20.122  0.00  0.00    +0.000 C 
ATOM     10  C   UNL     1       1.466  12.308  20.702  0.00  0.00    +0.000 C 
ATOM     11  C   UNL     1       0.245  12.729  21.508  0.00  0.00    +0.000 C 
ATOM     12  C   UNL     1      -0.785  13.360  20.521  0.00  0.00    +0.000 C 
ATOM     13  C   UNL     1      -2.056  13.751  21.303  0.00  0.00    +0.000 C 
ATOM     14  C   UNL     1      -2.568  12.590  22.148  0.00  0.00    +0.000 C 
ATOM     15  C   UNL     1      -1.468  12.085  23.076  0.00  0.00    +0.000 C 
ATOM     16  N   UNL     1      -0.270  11.624  22.358  0.00  0.00    +0.000 NA
BRANCH   3  18
ATOM     17  C   UNL     1       3.563  16.811  17.690  0.00  0.00    +0.000 C 
ATOM     18  O   UNL     1       3.127  16.100  18.835  0.00  0.00    +0.000 OA
ENDBRANCH   3  18
ENDBRANCH   2  16
ENDBRANCH   1   2
BRANCH   1  19
ATOM     19  C   UNL     1       0.876   8.534  20.529  0.00  0.00    +0.000 C 
BRANCH  19  20
ATOM     20  C   UNL     1       1.768   7.330  20.813  0.00  0.00    +0.000 C 
BRANCH  20  21
ATOM     21  N   UNL     1       2.580   6.993  19.681  0.00  0.00    +0.000 N 
ATOM     22  C   UNL     1       3.149   5.740  19.589  0.00  0.00    +0.000 C 
ATOM     23  O   UNL     1       2.986   4.846  20.410  0.00  0.00    +0.000 OA
ATOM     24  H   UNL     1       2.647   7.646  18.914  0.00  0.00    +0.000 HD
BRANCH  22  25
ATOM     25  C   UNL     1       3.946   5.501  18.369  0.00  0.00    +0.000 A 
ATOM     26  C   UNL     1       4.230   6.534  17.476  0.00  0.00    +0.000 A 
ATOM     27  C   UNL     1       4.904   6.253  16.288  0.00  0.00    +0.000 A 
ATOM     28  C   UNL     1       5.328   4.946  15.977  0.00  0.00    +0.000 A 
ATOM     29  C   UNL     1       5.091   3.942  16.932  0.00  0.00    +0.000 A 
ATOM     30  C   UNL     1       4.403   4.208  18.113  0.00  0.00    +0.000 A 
BRANCH  28  31
ATOM     31  C   UNL     1       5.968   4.642  14.681  0.00  0.00    +0.000 A 
ATOM     32  C   UNL     1       7.195   5.220  14.312  0.00  0.00    +0.000 A 
ATOM     33  C   UNL     1       7.768   4.975  13.060  0.00  0.00    +0.000 A 
ATOM     34  C   UNL     1       7.142   4.126  12.164  0.00  0.00    +0.000 A 
ATOM     35  C   UNL     1       5.939   3.514  12.505  0.00  0.00    +0.000 A 
ATOM     36  C   UNL     1       5.356   3.777  13.749  0.00  0.00    +0.000 A 
ENDBRANCH  28  31
ENDBRANCH  22  25
ENDBRANCH  20  21
ENDBRANCH  19  20
ENDBRANCH   1  19
TORSDOF 8
ENDMDL
