MODEL 1
REMARK VINA RESULT:      -7.1      0.000      0.000
REMARK  Name = 
REMARK  11 active torsions:
REMARK  status: ('A' for Active; 'I' for Inactive)
REMARK    1  A    between atoms: C_1  and  O_2
REMARK    2  A    between atoms: O_2  and  C_3
REMARK    3  A    between atoms: C_9  and  C_10
REMARK    4  A    between atoms: C_10  and  C_12
REMARK    5  A    between atoms: C_14  and  O_15
REMARK    6  A    between atoms: O_15  and  C_16
REMARK    7  A    between atoms: C_17  and  O_18
REMARK    8  A    between atoms: O_18  and  C_19
REMARK    9  A    between atoms: C_20  and  O_21
REMARK   10  A    between atoms: O_21  and  C_22
REMARK   11  A    between atoms: C_23  and  N_24
REMARK                            x       y       z     vdW  Elec       q    Type
REMARK                         _______ _______ _______ _____ _____    ______ ____
ROOT
ATOM      1  C   UNL     1       2.801   6.319  17.896  0.00  0.00    +0.000 A 
ATOM      2  C   UNL     1       1.777   5.379  18.031  0.00  0.00    +0.000 A 
ATOM      3  C   UNL     1       2.026   4.022  17.883  0.00  0.00    +0.000 A 
ATOM      4  C   UNL     1       3.317   3.582  17.519  0.00  0.00    +0.000 A 
ATOM      5  C   UNL     1       4.358   4.527  17.284  0.00  0.00    +0.000 A 
ATOM      6  C   UNL     1       4.094   5.919  17.461  0.00  0.00    +0.000 A 
ENDROOT
BRANCH   6   7
ATOM      7  N   UNL     1       5.102   6.912  17.319  0.00  0.00    +0.000 N 
ATOM      8  H   UNL     1       4.728   7.846  17.425  0.00  0.00    +0.000 HD
ATOM      9  H   UNL     1       5.839   6.804  18.027  0.00  0.00    +0.000 HD
ENDBRANCH   6   7
BRANCH   1  10
ATOM     10  C   UNL     1       2.456   7.761  18.114  0.00  0.00    +0.000 C 
ATOM     11  O   UNL     1       2.658   8.564  17.203  0.00  0.00    +0.000 OA
BRANCH  10  18
ATOM     12  C   UNL     1      -0.515  11.237  19.471  0.00  0.00    +0.000 A 
ATOM     13  C   UNL     1      -0.706  11.225  20.850  0.00  0.00    +0.000 A 
ATOM     14  C   UNL     1      -0.122  10.232  21.647  0.00  0.00    +0.000 A 
ATOM     15  C   UNL     1       0.677   9.270  21.018  0.00  0.00    +0.000 A 
ATOM     16  N   UNL     1       1.370   8.212  21.556  0.00  0.00    +0.000 N 
ATOM     17  C   UNL     1       2.055   7.549  20.577  0.00  0.00    +0.000 A 
ATOM     18  C   UNL     1       1.817   8.178  19.366  0.00  0.00    +0.000 A 
ATOM     19  C   UNL     1       0.900   9.253  19.640  0.00  0.00    +0.000 A 
ATOM     20  C   UNL     1       0.255  10.238  18.858  0.00  0.00    +0.000 A 
ATOM     21  H   UNL     1       1.379   7.972  22.539  0.00  0.00    +0.000 HD
BRANCH  12  23
ATOM     22  C   UNL     1      -1.976  11.660  17.661  0.00  0.00    +0.000 C 
ATOM     23  O   UNL     1      -1.045  12.163  18.613  0.00  0.00    +0.000 OA
ENDBRANCH  12  23
ENDBRANCH  10  18
ENDBRANCH   1  10
BRANCH   3  24
ATOM     24  O   UNL     1       1.069   3.059  18.111  0.00  0.00    +0.000 OA
ATOM     25  C   UNL     1       0.605   2.911  19.448  0.00  0.00    +0.000 C 
ENDBRANCH   3  24
BRANCH   4  26
ATOM     26  O   UNL     1       3.396   2.209  17.431  0.00  0.00    +0.000 OA
ATOM     27  C   UNL     1       3.826   1.429  18.532  0.00  0.00    +0.000 C 
ENDBRANCH   4  26
BRANCH   5  28
ATOM     28  O   UNL     1       5.553   3.970  16.911  0.00  0.00    +0.000 OA
ATOM     29  C   UNL     1       5.983   3.851  15.571  0.00  0.00    +0.000 C 
ENDBRANCH   5  28
TORSDOF 7
ENDMDL
MODEL 2
REMARK VINA RESULT:      -6.8      2.091      3.591
REMARK  Name = 
REMARK  11 active torsions:
REMARK  status: ('A' for Active; 'I' for Inactive)
REMARK    1  A    between atoms: C_1  and  O_2
REMARK    2  A    between atoms: O_2  and  C_3
REMARK    3  A    between atoms: C_9  and  C_10
REMARK    4  A    between atoms: C_10  and  C_12
REMARK    5  A    between atoms: C_14  and  O_15
REMARK    6  A    between atoms: O_15  and  C_16
REMARK    7  A    between atoms: C_17  and  O_18
REMARK    8  A    between atoms: O_18  and  C_19
REMARK    9  A    between atoms: C_20  and  O_21
REMARK   10  A    between atoms: O_21  and  C_22
REMARK   11  A    between atoms: C_23  and  N_24
REMARK                            x       y       z     vdW  Elec       q    Type
REMARK                         _______ _______ _______ _____ _____    ______ ____
ROOT
ATOM      1  C   UNL     1       3.050   6.071  18.781  0.00  0.00    +0.000 A 
ATOM      2  C   UNL     1       4.262   6.620  18.356  0.00  0.00    +0.000 A 
ATOM      3  C   UNL     1       5.130   5.899  17.549  0.00  0.00    +0.000 A 
ATOM      4  C   UNL     1       4.824   4.563  17.209  0.00  0.00    +0.000 A 
ATOM      5  C   UNL     1       3.638   3.949  17.706  0.00  0.00    +0.000 A 
ATOM      6  C   UNL     1       2.742   4.709  18.517  0.00  0.00    +0.000 A 
ENDROOT
BRANCH   6   7
ATOM      7  N   UNL     1       1.506   4.186  18.985  0.00  0.00    +0.000 N 
ATOM      8  H   UNL     1       1.232   3.354  18.478  0.00  0.00    +0.000 HD
ATOM      9  H   UNL     1       1.559   3.926  19.978  0.00  0.00    +0.000 HD
ENDBRANCH   6   7
BRANCH   1  10
ATOM     10  C   UNL     1       2.150   6.933  19.615  0.00  0.00    +0.000 C 
ATOM     11  O   UNL     1       1.792   6.523  20.720  0.00  0.00    +0.000 OA
BRANCH  10  18
ATOM     12  C   UNL     1       0.163  10.825  21.525  0.00  0.00    +0.000 A 
ATOM     13  C   UNL     1      -0.073  11.796  20.556  0.00  0.00    +0.000 A 
ATOM     14  C   UNL     1       0.330  11.599  19.230  0.00  0.00    +0.000 A 
ATOM     15  C   UNL     1       0.950  10.387  18.905  0.00  0.00    +0.000 A 
ATOM     16  N   UNL     1       1.422   9.935  17.695  0.00  0.00    +0.000 N 
ATOM     17  C   UNL     1       1.921   8.670  17.826  0.00  0.00    +0.000 A 
ATOM     18  C   UNL     1       1.777   8.270  19.144  0.00  0.00    +0.000 A 
ATOM     19  C   UNL     1       1.197   9.385  19.845  0.00  0.00    +0.000 A 
ATOM     20  C   UNL     1       0.825   9.637  21.186  0.00  0.00    +0.000 A 
ATOM     21  H   UNL     1       1.389  10.463  16.833  0.00  0.00    +0.000 HD
BRANCH  12  23
ATOM     22  C   UNL     1      -1.485  11.465  23.095  0.00  0.00    +0.000 C 
ATOM     23  O   UNL     1      -0.191  10.930  22.845  0.00  0.00    +0.000 OA
ENDBRANCH  12  23
ENDBRANCH  10  18
ENDBRANCH   1  10
BRANCH   3  24
ATOM     24  O   UNL     1       6.282   6.438  17.025  0.00  0.00    +0.000 OA
ATOM     25  C   UNL     1       7.376   6.623  17.917  0.00  0.00    +0.000 C 
ENDBRANCH   3  24
BRANCH   4  26
ATOM     26  O   UNL     1       5.781   4.000  16.391  0.00  0.00    +0.000 OA
ATOM     27  C   UNL     1       5.673   4.074  14.981  0.00  0.00    +0.000 C 
ENDBRANCH   4  26
BRANCH   5  28
ATOM     28  O   UNL     1       3.475   2.644  17.323  0.00  0.00    +0.000 OA
ATOM     29  C   UNL     1       3.618   1.542  18.194  0.00  0.00    +0.000 C 
ENDBRANCH   5  28
TORSDOF 7
ENDMDL
MODEL 3
REMARK VINA RESULT:      -6.8      2.244      7.766
REMARK  Name = 
REMARK  11 active torsions:
REMARK  status: ('A' for Active; 'I' for Inactive)
REMARK    1  A    between atoms: C_1  and  O_2
REMARK    2  A    between atoms: O_2  and  C_3
REMARK    3  A    between atoms: C_9  and  C_10
REMARK    4  A    between atoms: C_10  and  C_12
REMARK    5  A    between atoms: C_14  and  O_15
REMARK    6  A    between atoms: O_15  and  C_16
REMARK    7  A    between atoms: C_17  and  O_18
REMARK    8  A    between atoms: O_18  and  C_19
REMARK    9  A    between atoms: C_20  and  O_21
REMARK   10  A    between atoms: O_21  and  C_22
REMARK   11  A    between atoms: C_23  and  N_24
REMARK                            x       y       z     vdW  Elec       q    Type
REMARK                         _______ _______ _______ _____ _____    ______ ____
ROOT
ATOM      1  C   UNL     1       0.112  10.400  18.315  0.00  0.00    +0.000 A 
ATOM      2  C   UNL     1      -0.850   9.774  17.518  0.00  0.00    +0.000 A 
ATOM      3  C   UNL     1      -2.137  10.282  17.420  0.00  0.00    +0.000 A 
ATOM      4  C   UNL     1      -2.509  11.405  18.191  0.00  0.00    +0.000 A 
ATOM      5  C   UNL     1      -1.573  12.005  19.082  0.00  0.00    +0.000 A 
ATOM      6  C   UNL     1      -0.245  11.488  19.157  0.00  0.00    +0.000 A 
ENDROOT
BRANCH   6   7
ATOM      7  N   UNL     1       0.762  12.082  19.966  0.00  0.00    +0.000 N 
ATOM      8  H   UNL     1       0.455  12.201  20.923  0.00  0.00    +0.000 HD
ATOM      9  H   UNL     1       1.611  11.504  19.995  0.00  0.00    +0.000 HD
ENDBRANCH   6   7
BRANCH   1  10
ATOM     10  C   UNL     1       1.492   9.812  18.332  0.00  0.00    +0.000 C 
ATOM     11  O   UNL     1       2.386  10.379  17.704  0.00  0.00    +0.000 OA
BRANCH  10  18
ATOM     12  C   UNL     1       3.861   5.713  17.760  0.00  0.00    +0.000 A 
ATOM     13  C   UNL     1       3.694   4.877  18.861  0.00  0.00    +0.000 A 
ATOM     14  C   UNL     1       2.970   5.304  19.981  0.00  0.00    +0.000 A 
ATOM     15  C   UNL     1       2.401   6.582  19.949  0.00  0.00    +0.000 A 
ATOM     16  N   UNL     1       1.641   7.233  20.892  0.00  0.00    +0.000 N 
ATOM     17  C   UNL     1       1.259   8.459  20.427  0.00  0.00    +0.000 A 
ATOM     18  C   UNL     1       1.770   8.628  19.150  0.00  0.00    +0.000 A 
ATOM     19  C   UNL     1       2.539   7.446  18.861  0.00  0.00    +0.000 A 
ATOM     20  C   UNL     1       3.319   7.005  17.767  0.00  0.00    +0.000 A 
ATOM     21  H   UNL     1       1.392   6.847  21.793  0.00  0.00    +0.000 HD
BRANCH  12  23
ATOM     22  C   UNL     1       5.139   6.476  15.923  0.00  0.00    +0.000 C 
ATOM     23  O   UNL     1       4.552   5.385  16.623  0.00  0.00    +0.000 OA
ENDBRANCH  12  23
ENDBRANCH  10  18
ENDBRANCH   1  10
BRANCH   3  24
ATOM     24  O   UNL     1      -3.082   9.757  16.568  0.00  0.00    +0.000 OA
ATOM     25  C   UNL     1      -2.931  10.041  15.181  0.00  0.00    +0.000 C 
ENDBRANCH   3  24
BRANCH   4  26
ATOM     26  O   UNL     1      -3.813  11.787  17.961  0.00  0.00    +0.000 OA
ATOM     27  C   UNL     1      -4.860  11.373  18.820  0.00  0.00    +0.000 C 
ENDBRANCH   4  26
BRANCH   5  28
ATOM     28  O   UNL     1      -2.069  13.069  19.788  0.00  0.00    +0.000 OA
ATOM     29  C   UNL     1      -2.510  12.990  21.128  0.00  0.00    +0.000 C 
ENDBRANCH   5  28
TORSDOF 7
ENDMDL
MODEL 4
REMARK VINA RESULT:      -6.8      3.016      7.870
REMARK  Name = 
REMARK  11 active torsions:
REMARK  status: ('A' for Active; 'I' for Inactive)
REMARK    1  A    between atoms: C_1  and  O_2
REMARK    2  A    between atoms: O_2  and  C_3
REMARK    3  A    between atoms: C_9  and  C_10
REMARK    4  A    between atoms: C_10  and  C_12
REMARK    5  A    between atoms: C_14  and  O_15
REMARK    6  A    between atoms: O_15  and  C_16
REMARK    7  A    between atoms: C_17  and  O_18
REMARK    8  A    between atoms: O_18  and  C_19
REMARK    9  A    between atoms: C_20  and  O_21
REMARK   10  A    between atoms: O_21  and  C_22
REMARK   11  A    between atoms: C_23  and  N_24
REMARK                            x       y       z     vdW  Elec       q    Type
REMARK                         _______ _______ _______ _____ _____    ______ ____
ROOT
ATOM      1  C   UNL     1       3.854   4.302  18.074  0.00  0.00    +0.000 A 
ATOM      2  C   UNL     1       3.236   5.466  17.610  0.00  0.00    +0.000 A 
ATOM      3  C   UNL     1       2.431   6.229  18.442  0.00  0.00    +0.000 A 
ATOM      4  C   UNL     1       2.167   5.790  19.758  0.00  0.00    +0.000 A 
ATOM      5  C   UNL     1       2.710   4.558  20.226  0.00  0.00    +0.000 A 
ATOM      6  C   UNL     1       3.556   3.793  19.367  0.00  0.00    +0.000 A 
ENDROOT
BRANCH   6   7
ATOM      7  N   UNL     1       4.192   2.595  19.792  0.00  0.00    +0.000 N 
ATOM      8  H   UNL     1       3.560   1.994  20.305  0.00  0.00    +0.000 HD
ATOM      9  H   UNL     1       4.538   2.050  18.992  0.00  0.00    +0.000 HD
ENDBRANCH   6   7
BRANCH   1  10
ATOM     10  C   UNL     1       4.743   3.559  17.123  0.00  0.00    +0.000 C 
ATOM     11  O   UNL     1       4.588   2.344  16.991  0.00  0.00    +0.000 OA
BRANCH  10  18
ATOM     12  C   UNL     1       6.084   3.600  12.546  0.00  0.00    +0.000 A 
ATOM     13  C   UNL     1       7.178   4.439  12.350  0.00  0.00    +0.000 A 
ATOM     14  C   UNL     1       7.699   5.196  13.407  0.00  0.00    +0.000 A 
ATOM     15  C   UNL     1       7.105   5.063  14.667  0.00  0.00    +0.000 A 
ATOM     16  N   UNL     1       7.423   5.668  15.860  0.00  0.00    +0.000 N 
ATOM     17  C   UNL     1       6.602   5.216  16.852  0.00  0.00    +0.000 A 
ATOM     18  C   UNL     1       5.722   4.291  16.314  0.00  0.00    +0.000 A 
ATOM     19  C   UNL     1       6.013   4.227  14.906  0.00  0.00    +0.000 A 
ATOM     20  C   UNL     1       5.478   3.515  13.807  0.00  0.00    +0.000 A 
ATOM     21  H   UNL     1       8.170   6.340  15.981  0.00  0.00    +0.000 HD
BRANCH  12  23
ATOM     22  C   UNL     1       4.150   3.130  11.271  0.00  0.00    +0.000 C 
ATOM     23  O   UNL     1       5.505   2.825  11.576  0.00  0.00    +0.000 OA
ENDBRANCH  12  23
ENDBRANCH  10  18
ENDBRANCH   1  10
BRANCH   3  24
ATOM     24  O   UNL     1       1.890   7.434  18.056  0.00  0.00    +0.000 OA
ATOM     25  C   UNL     1       2.801   8.469  17.703  0.00  0.00    +0.000 C 
ENDBRANCH   3  24
BRANCH   4  26
ATOM     26  O   UNL     1       1.365   6.672  20.452  0.00  0.00    +0.000 OA
ATOM     27  C   UNL     1       1.924   7.737  21.199  0.00  0.00    +0.000 C 
ENDBRANCH   4  26
BRANCH   5  28
ATOM     28  O   UNL     1       2.356   4.238  21.510  0.00  0.00    +0.000 OA
ATOM     29  C   UNL     1       1.624   3.081  21.861  0.00  0.00    +0.000 C 
ENDBRANCH   5  28
TORSDOF 7
ENDMDL
MODEL 5
REMARK VINA RESULT:      -6.4      2.067      7.735
REMARK  Name = 
REMARK  11 active torsions:
REMARK  status: ('A' for Active; 'I' for Inactive)
REMARK    1  A    between atoms: C_1  and  O_2
REMARK    2  A    between atoms: O_2  and  C_3
REMARK    3  A    between atoms: C_9  and  C_10
REMARK    4  A    between atoms: C_10  and  C_12
REMARK    5  A    between atoms: C_14  and  O_15
REMARK    6  A    between atoms: O_15  and  C_16
REMARK    7  A    between atoms: C_17  and  O_18
REMARK    8  A    between atoms: O_18  and  C_19
REMARK    9  A    between atoms: C_20  and  O_21
REMARK   10  A    between atoms: O_21  and  C_22
REMARK   11  A    between atoms: C_23  and  N_24
REMARK                            x       y       z     vdW  Elec       q    Type
REMARK                         _______ _______ _______ _____ _____    ______ ____
ROOT
ATOM      1  C   UNL     1       2.310   6.734  18.949  0.00  0.00    +0.000 A 
ATOM      2  C   UNL     1       2.190   7.769  18.020  0.00  0.00    +0.000 A 
ATOM      3  C   UNL     1       1.704   9.014  18.394  0.00  0.00    +0.000 A 
ATOM      4  C   UNL     1       1.255   9.222  19.717  0.00  0.00    +0.000 A 
ATOM      5  C   UNL     1       1.280   8.154  20.660  0.00  0.00    +0.000 A 
ATOM      6  C   UNL     1       1.803   6.885  20.268  0.00  0.00    +0.000 A 
ENDROOT
BRANCH   6   7
ATOM      7  N   UNL     1       1.929   5.798  21.175  0.00  0.00    +0.000 N 
ATOM      8  H   UNL     1       1.717   6.073  22.126  0.00  0.00    +0.000 HD
ATOM      9  H   UNL     1       1.285   5.032  20.937  0.00  0.00    +0.000 HD
ENDBRANCH   6   7
BRANCH   1  10
ATOM     10  C   UNL     1       2.884   5.433  18.471  0.00  0.00    +0.000 C 
ATOM     11  O   UNL     1       2.115   4.522  18.165  0.00  0.00    +0.000 OA
BRANCH  10  18
ATOM     12  C   UNL     1       5.842   4.344  14.893  0.00  0.00    +0.000 A 
ATOM     13  C   UNL     1       7.156   4.238  15.341  0.00  0.00    +0.000 A 
ATOM     14  C   UNL     1       7.483   4.513  16.675  0.00  0.00    +0.000 A 
ATOM     15  C   UNL     1       6.447   4.871  17.546  0.00  0.00    +0.000 A 
ATOM     16  N   UNL     1       6.488   5.173  18.886  0.00  0.00    +0.000 N 
ATOM     17  C   UNL     1       5.229   5.429  19.350  0.00  0.00    +0.000 A 
ATOM     18  C   UNL     1       4.333   5.293  18.303  0.00  0.00    +0.000 A 
ATOM     19  C   UNL     1       5.117   4.980  17.137  0.00  0.00    +0.000 A 
ATOM     20  C   UNL     1       4.828   4.746  15.773  0.00  0.00    +0.000 A 
ATOM     21  H   UNL     1       7.330   5.188  19.445  0.00  0.00    +0.000 HD
BRANCH  12  23
ATOM     22  C   UNL     1       6.448   3.715  12.696  0.00  0.00    +0.000 C 
ATOM     23  O   UNL     1       5.428   4.098  13.611  0.00  0.00    +0.000 OA
ENDBRANCH  12  23
ENDBRANCH  10  18
ENDBRANCH   1  10
BRANCH   3  24
ATOM     24  O   UNL     1       1.668  10.089  17.536  0.00  0.00    +0.000 OA
ATOM     25  C   UNL     1       2.627  11.120  17.749  0.00  0.00    +0.000 C 
ENDBRANCH   3  24
BRANCH   4  26
ATOM     26  O   UNL     1       0.822  10.515  19.924  0.00  0.00    +0.000 OA
ATOM     27  C   UNL     1      -0.556  10.839  19.893  0.00  0.00    +0.000 C 
ENDBRANCH   4  26
BRANCH   5  28
ATOM     28  O   UNL     1       0.792   8.482  21.897  0.00  0.00    +0.000 OA
ATOM     29  C   UNL     1       1.465   9.320  22.813  0.00  0.00    +0.000 C 
ENDBRANCH   5  28
TORSDOF 7
ENDMDL
MODEL 6
REMARK VINA RESULT:      -6.4      2.695      7.800
REMARK  Name = 
REMARK  11 active torsions:
REMARK  status: ('A' for Active; 'I' for Inactive)
REMARK    1  A    between atoms: C_1  and  O_2
REMARK    2  A    between atoms: O_2  and  C_3
REMARK    3  A    between atoms: C_9  and  C_10
REMARK    4  A    between atoms: C_10  and  C_12
REMARK    5  A    between atoms: C_14  and  O_15
REMARK    6  A    between atoms: O_15  and  C_16
REMARK    7  A    between atoms: C_17  and  O_18
REMARK    8  A    between atoms: O_18  and  C_19
REMARK    9  A    between atoms: C_20  and  O_21
REMARK   10  A    between atoms: O_21  and  C_22
REMARK   11  A    between atoms: C_23  and  N_24
REMARK                            x       y       z     vdW  Elec       q    Type
REMARK                         _______ _______ _______ _____ _____    ______ ____
ROOT
ATOM      1  C   UNL     1       1.310  10.221  19.213  0.00  0.00    +0.000 A 
ATOM      2  C   UNL     1       0.737  10.032  20.473  0.00  0.00    +0.000 A 
ATOM      3  C   UNL     1       0.492  11.107  21.315  0.00  0.00    +0.000 A 
ATOM      4  C   UNL     1       0.893  12.405  20.931  0.00  0.00    +0.000 A 
ATOM      5  C   UNL     1       1.565  12.611  19.691  0.00  0.00    +0.000 A 
ATOM      6  C   UNL     1       1.791  11.501  18.823  0.00  0.00    +0.000 A 
ENDROOT
BRANCH   6   7
ATOM      7  N   UNL     1       2.385  11.643  17.540  0.00  0.00    +0.000 N 
ATOM      8  H   UNL     1       1.693  11.806  16.819  0.00  0.00    +0.000 HD
ATOM      9  H   UNL     1       3.036  12.438  17.512  0.00  0.00    +0.000 HD
ENDBRANCH   6   7
BRANCH   1  10
ATOM     10  C   UNL     1       1.502   9.012  18.347  0.00  0.00    +0.000 C 
ATOM     11  O   UNL     1       1.090   9.041  17.187  0.00  0.00    +0.000 OA
BRANCH  10  18
ATOM     12  C   UNL     1       4.938   6.124  16.736  0.00  0.00    +0.000 A 
ATOM     13  C   UNL     1       5.182   5.085  17.630  0.00  0.00    +0.000 A 
ATOM     14  C   UNL     1       4.512   5.023  18.858  0.00  0.00    +0.000 A 
ATOM     15  C   UNL     1       3.573   6.021  19.146  0.00  0.00    +0.000 A 
ATOM     16  N   UNL     1       2.776   6.188  20.253  0.00  0.00    +0.000 N 
ATOM     17  C   UNL     1       1.974   7.282  20.096  0.00  0.00    +0.000 A 
ATOM     18  C   UNL     1       2.238   7.854  18.862  0.00  0.00    +0.000 A 
ATOM     19  C   UNL     1       3.294   7.073  18.272  0.00  0.00    +0.000 A 
ATOM     20  C   UNL     1       4.025   7.135  17.064  0.00  0.00    +0.000 A 
ATOM     21  H   UNL     1       2.777   5.576  21.058  0.00  0.00    +0.000 HD
BRANCH  12  23
ATOM     22  C   UNL     1       6.217   5.117  15.022  0.00  0.00    +0.000 C 
ATOM     23  O   UNL     1       5.545   6.269  15.517  0.00  0.00    +0.000 OA
ENDBRANCH  12  23
ENDBRANCH  10  18
ENDBRANCH   1  10
BRANCH   3  24
ATOM     24  O   UNL     1      -0.165  10.977  22.517  0.00  0.00    +0.000 OA
ATOM     25  C   UNL     1      -0.123   9.699  23.144  0.00  0.00    +0.000 C 
ENDBRANCH   3  24
BRANCH   4  26
ATOM     26  O   UNL     1       0.560  13.355  21.873  0.00  0.00    +0.000 OA
ATOM     27  C   UNL     1      -0.552  14.211  21.687  0.00  0.00    +0.000 C 
ENDBRANCH   4  26
BRANCH   5  28
ATOM     28  O   UNL     1       1.922  13.912  19.452  0.00  0.00    +0.000 OA
ATOM     29  C   UNL     1       3.194  14.448  19.751  0.00  0.00    +0.000 C 
ENDBRANCH   5  28
TORSDOF 7
ENDMDL
MODEL 7
REMARK VINA RESULT:      -6.3      1.161      1.173
REMARK  Name = 
REMARK  11 active torsions:
REMARK  status: ('A' for Active; 'I' for Inactive)
REMARK    1  A    between atoms: C_1  and  O_2
REMARK    2  A    between atoms: O_2  and  C_3
REMARK    3  A    between atoms: C_9  and  C_10
REMARK    4  A    between atoms: C_10  and  C_12
REMARK    5  A    between atoms: C_14  and  O_15
REMARK    6  A    between atoms: O_15  and  C_16
REMARK    7  A    between atoms: C_17  and  O_18
REMARK    8  A    between atoms: O_18  and  C_19
REMARK    9  A    between atoms: C_20  and  O_21
REMARK   10  A    between atoms: O_21  and  C_22
REMARK   11  A    between atoms: C_23  and  N_24
REMARK                            x       y       z     vdW  Elec       q    Type
REMARK                         _______ _______ _______ _____ _____    ______ ____
ROOT
ATOM      1  C   UNL     1       2.810   6.394  18.644  0.00  0.00    +0.000 A 
ATOM      2  C   UNL     1       2.084   5.427  19.343  0.00  0.00    +0.000 A 
ATOM      3  C   UNL     1       2.563   4.132  19.479  0.00  0.00    +0.000 A 
ATOM      4  C   UNL     1       3.767   3.759  18.842  0.00  0.00    +0.000 A 
ATOM      5  C   UNL     1       4.480   4.702  18.046  0.00  0.00    +0.000 A 
ATOM      6  C   UNL     1       3.988   6.038  17.932  0.00  0.00    +0.000 A 
ENDROOT
BRANCH   6   7
ATOM      7  N   UNL     1       4.685   7.050  17.219  0.00  0.00    +0.000 N 
ATOM      8  H   UNL     1       4.260   7.239  16.320  0.00  0.00    +0.000 HD
ATOM      9  H   UNL     1       4.692   7.939  17.736  0.00  0.00    +0.000 HD
ENDBRANCH   6   7
BRANCH   1  10
ATOM     10  C   UNL     1       2.242   7.780  18.581  0.00  0.00    +0.000 C 
ATOM     11  O   UNL     1       2.221   8.364  17.497  0.00  0.00    +0.000 OA
BRANCH  10  18
ATOM     12  C   UNL     1      -0.454  11.594  19.545  0.00  0.00    +0.000 A 
ATOM     13  C   UNL     1      -0.623  11.756  20.918  0.00  0.00    +0.000 A 
ATOM     14  C   UNL     1      -0.099  10.823  21.820  0.00  0.00    +0.000 A 
ATOM     15  C   UNL     1       0.621   9.739  21.302  0.00  0.00    +0.000 A 
ATOM     16  N   UNL     1       1.245   8.703  21.954  0.00  0.00    +0.000 N 
ATOM     17  C   UNL     1       1.866   7.884  21.055  0.00  0.00    +0.000 A 
ATOM     18  C   UNL     1       1.654   8.384  19.780  0.00  0.00    +0.000 A 
ATOM     19  C   UNL     1       0.819   9.547  19.934  0.00  0.00    +0.000 A 
ATOM     20  C   UNL     1       0.233  10.479  19.047  0.00  0.00    +0.000 A 
ATOM     21  H   UNL     1       1.252   8.579  22.958  0.00  0.00    +0.000 HD
BRANCH  12  23
ATOM     22  C   UNL     1      -0.374  13.760  18.601  0.00  0.00    +0.000 C 
ATOM     23  O   UNL     1      -0.931  12.451  18.589  0.00  0.00    +0.000 OA
ENDBRANCH  12  23
ENDBRANCH  10  18
ENDBRANCH   1  10
BRANCH   3  24
ATOM     24  O   UNL     1       1.931   3.180  20.245  0.00  0.00    +0.000 OA
ATOM     25  C   UNL     1       2.020   3.322  21.659  0.00  0.00    +0.000 C 
ENDBRANCH   3  24
BRANCH   4  26
ATOM     26  O   UNL     1       4.106   2.447  19.093  0.00  0.00    +0.000 OA
ATOM     27  C   UNL     1       3.671   1.403  18.242  0.00  0.00    +0.000 C 
ENDBRANCH   4  26
BRANCH   5  28
ATOM     28  O   UNL     1       5.616   4.206  17.464  0.00  0.00    +0.000 OA
ATOM     29  C   UNL     1       5.722   3.880  16.094  0.00  0.00    +0.000 C 
ENDBRANCH   5  28
TORSDOF 7
ENDMDL
MODEL 8
REMARK VINA RESULT:      -6.3      2.251      8.043
REMARK  Name = 
REMARK  11 active torsions:
REMARK  status: ('A' for Active; 'I' for Inactive)
REMARK    1  A    between atoms: C_1  and  O_2
REMARK    2  A    between atoms: O_2  and  C_3
REMARK    3  A    between atoms: C_9  and  C_10
REMARK    4  A    between atoms: C_10  and  C_12
REMARK    5  A    between atoms: C_14  and  O_15
REMARK    6  A    between atoms: O_15  and  C_16
REMARK    7  A    between atoms: C_17  and  O_18
REMARK    8  A    between atoms: O_18  and  C_19
REMARK    9  A    between atoms: C_20  and  O_21
REMARK   10  A    between atoms: O_21  and  C_22
REMARK   11  A    between atoms: C_23  and  N_24
REMARK                            x       y       z     vdW  Elec       q    Type
REMARK                         _______ _______ _______ _____ _____    ______ ____
ROOT
ATOM      1  C   UNL     1       0.227  10.712  18.870  0.00  0.00    +0.000 A 
ATOM      2  C   UNL     1      -1.027  10.338  18.382  0.00  0.00    +0.000 A 
ATOM      3  C   UNL     1      -2.159  11.087  18.666  0.00  0.00    +0.000 A 
ATOM      4  C   UNL     1      -2.063  12.205  19.523  0.00  0.00    +0.000 A 
ATOM      5  C   UNL     1      -0.812  12.554  20.110  0.00  0.00    +0.000 A 
ATOM      6  C   UNL     1       0.350  11.788  19.791  0.00  0.00    +0.000 A 
ENDROOT
BRANCH   6   7
ATOM      7  N   UNL     1       1.643  12.123  20.278  0.00  0.00    +0.000 N 
ATOM      8  H   UNL     1       1.596  12.647  21.143  0.00  0.00    +0.000 HD
ATOM      9  H   UNL     1       2.202  11.282  20.470  0.00  0.00    +0.000 HD
ENDBRANCH   6   7
BRANCH   1  10
ATOM     10  C   UNL     1       1.406   9.872  18.480  0.00  0.00    +0.000 C 
ATOM     11  O   UNL     1       2.133  10.258  17.564  0.00  0.00    +0.000 OA
BRANCH  10  18
ATOM     12  C   UNL     1       3.855   5.858  17.686  0.00  0.00    +0.000 A 
ATOM     13  C   UNL     1       3.717   4.967  18.747  0.00  0.00    +0.000 A 
ATOM     14  C   UNL     1       2.998   5.323  19.895  0.00  0.00    +0.000 A 
ATOM     15  C   UNL     1       2.402   6.589  19.930  0.00  0.00    +0.000 A 
ATOM     16  N   UNL     1       1.639   7.177  20.911  0.00  0.00    +0.000 N 
ATOM     17  C   UNL     1       1.226   8.415  20.509  0.00  0.00    +0.000 A 
ATOM     18  C   UNL     1       1.719   8.657  19.237  0.00  0.00    +0.000 A 
ATOM     19  C   UNL     1       2.509   7.507  18.884  0.00  0.00    +0.000 A 
ATOM     20  C   UNL     1       3.285   7.136  17.761  0.00  0.00    +0.000 A 
ATOM     21  H   UNL     1       1.409   6.743  21.795  0.00  0.00    +0.000 HD
BRANCH  12  23
ATOM     22  C   UNL     1       5.100   4.297  16.421  0.00  0.00    +0.000 C 
ATOM     23  O   UNL     1       4.540   5.600  16.528  0.00  0.00    +0.000 OA
ENDBRANCH  12  23
ENDBRANCH  10  18
ENDBRANCH   1  10
BRANCH   3  24
ATOM     24  O   UNL     1      -3.392  10.812  18.120  0.00  0.00    +0.000 OA
ATOM     25  C   UNL     1      -3.488  10.825  16.700  0.00  0.00    +0.000 C 
ENDBRANCH   3  24
BRANCH   4  26
ATOM     26  O   UNL     1      -3.274  12.844  19.686  0.00  0.00    +0.000 OA
ATOM     27  C   UNL     1      -4.061  12.636  20.844  0.00  0.00    +0.000 C 
ENDBRANCH   4  26
BRANCH   5  28
ATOM     28  O   UNL     1      -0.862  13.642  20.941  0.00  0.00    +0.000 OA
ATOM     29  C   UNL     1      -0.860  13.559  22.351  0.00  0.00    +0.000 C 
ENDBRANCH   5  28
TORSDOF 7
ENDMDL
MODEL 9
REMARK VINA RESULT:      -6.3      2.623      7.247
REMARK  Name = 
REMARK  11 active torsions:
REMARK  status: ('A' for Active; 'I' for Inactive)
REMARK    1  A    between atoms: C_1  and  O_2
REMARK    2  A    between atoms: O_2  and  C_3
REMARK    3  A    between atoms: C_9  and  C_10
REMARK    4  A    between atoms: C_10  and  C_12
REMARK    5  A    between atoms: C_14  and  O_15
REMARK    6  A    between atoms: O_15  and  C_16
REMARK    7  A    between atoms: C_17  and  O_18
REMARK    8  A    between atoms: O_18  and  C_19
REMARK    9  A    between atoms: C_20  and  O_21
REMARK   10  A    between atoms: O_21  and  C_22
REMARK   11  A    between atoms: C_23  and  N_24
REMARK                            x       y       z     vdW  Elec       q    Type
REMARK                         _______ _______ _______ _____ _____    ______ ____
ROOT
ATOM      1  C   UNL     1       2.109   6.858  18.851  0.00  0.00    +0.000 A 
ATOM      2  C   UNL     1       1.986   7.924  17.958  0.00  0.00    +0.000 A 
ATOM      3  C   UNL     1       1.647   9.194  18.403  0.00  0.00    +0.000 A 
ATOM      4  C   UNL     1       1.349   9.403  19.767  0.00  0.00    +0.000 A 
ATOM      5  C   UNL     1       1.376   8.312  20.683  0.00  0.00    +0.000 A 
ATOM      6  C   UNL     1       1.749   7.015  20.217  0.00  0.00    +0.000 A 
ENDROOT
BRANCH   6   7
ATOM      7  N   UNL     1       1.871   5.897  21.087  0.00  0.00    +0.000 N 
ATOM      8  H   UNL     1       2.203   6.168  22.004  0.00  0.00    +0.000 HD
ATOM      9  H   UNL     1       0.968   5.427  21.225  0.00  0.00    +0.000 HD
ENDBRANCH   6   7
BRANCH   1  10
ATOM     10  C   UNL     1       2.521   5.527  18.295  0.00  0.00    +0.000 C 
ATOM     11  O   UNL     1       1.727   4.910  17.585  0.00  0.00    +0.000 OA
BRANCH  10  18
ATOM     12  C   UNL     1       6.961   7.120  17.593  0.00  0.00    +0.000 A 
ATOM     13  C   UNL     1       7.902   6.144  17.912  0.00  0.00    +0.000 A 
ATOM     14  C   UNL     1       7.504   4.910  18.441  0.00  0.00    +0.000 A 
ATOM     15  C   UNL     1       6.134   4.680  18.614  0.00  0.00    +0.000 A 
ATOM     16  N   UNL     1       5.480   3.568  19.091  0.00  0.00    +0.000 N 
ATOM     17  C   UNL     1       4.129   3.762  19.051  0.00  0.00    +0.000 A 
ATOM     18  C   UNL     1       3.876   5.023  18.536  0.00  0.00    +0.000 A 
ATOM     19  C   UNL     1       5.160   5.629  18.298  0.00  0.00    +0.000 A 
ATOM     20  C   UNL     1       5.598   6.883  17.815  0.00  0.00    +0.000 A 
ATOM     21  H   UNL     1       5.940   2.726  19.410  0.00  0.00    +0.000 HD
BRANCH  12  23
ATOM     22  C   UNL     1       8.116   9.165  17.865  0.00  0.00    +0.000 C 
ATOM     23  O   UNL     1       7.255   8.353  17.075  0.00  0.00    +0.000 OA
ENDBRANCH  12  23
ENDBRANCH  10  18
ENDBRANCH   1  10
BRANCH   3  24
ATOM     24  O   UNL     1       1.617  10.291  17.572  0.00  0.00    +0.000 OA
ATOM     25  C   UNL     1       2.661  11.247  17.725  0.00  0.00    +0.000 C 
ENDBRANCH   3  24
BRANCH   4  26
ATOM     26  O   UNL     1       1.049  10.721  20.040  0.00  0.00    +0.000 OA
ATOM     27  C   UNL     1      -0.282  11.197  19.974  0.00  0.00    +0.000 C 
ENDBRANCH   4  26
BRANCH   5  28
ATOM     28  O   UNL     1       1.042   8.646  21.969  0.00  0.00    +0.000 OA
ATOM     29  C   UNL     1      -0.285   8.699  22.450  0.00  0.00    +0.000 C 
ENDBRANCH   5  28
TORSDOF 7
ENDMDL
