MODEL 1
REMARK VINA RESULT:      -7.0      0.000      0.000
REMARK  Name = 
REMARK  4 active torsions:
REMARK  status: ('A' for Active; 'I' for Inactive)
REMARK    1  A    between atoms: C_1  and  C_2
REMARK    2  A    between atoms: N_4  and  C_5
REMARK    3  A    between atoms: C_8  and  C_9
REMARK    4  A    between atoms: C_9  and  N_10
REMARK                            x       y       z     vdW  Elec       q    Type
REMARK                         _______ _______ _______ _____ _____    ______ ____
ROOT
ATOM      1  C   UNL     1       6.010   5.750  17.022  0.00  0.00    +0.000 A 
ATOM      2  C   UNL     1       4.919   6.576  16.698  0.00  0.00    +0.000 A 
ATOM      3  C   UNL     1       3.831   6.689  17.576  0.00  0.00    +0.000 A 
ATOM      4  C   UNL     1       3.812   5.958  18.776  0.00  0.00    +0.000 A 
ATOM      5  C   UNL     1       4.879   5.106  19.076  0.00  0.00    +0.000 A 
ATOM      6  C   UNL     1       5.960   5.002  18.209  0.00  0.00    +0.000 A 
ENDROOT
BRANCH   1  10
ATOM      7  C   UNL     1       6.107   3.885  14.538  0.00  0.00    +0.000 C 
ATOM      8  C   UNL     1       7.049   5.042  14.832  0.00  0.00    +0.000 C 
ATOM      9  N   UNL     1       7.901   5.402  13.942  0.00  0.00    +0.000 NA
ATOM     10  N   UNL     1       7.113   5.639  16.128  0.00  0.00    +0.000 N 
ATOM     11  H   UNL     1       7.929   4.973  13.004  0.00  0.00    +0.000 HD
ATOM     12  H   UNL     1       8.036   5.970  16.446  0.00  0.00    +0.000 HD
ENDBRANCH   1  10
BRANCH   4  13
ATOM     13  C   UNL     1       2.659   6.074  19.735  0.00  0.00    +0.000 C 
BRANCH  13  14
ATOM     14  N   UNL     1       2.057   4.768  19.975  0.00  0.00    +0.000 N 
ATOM     15  C   UNL     1       2.004   4.118  21.154  0.00  0.00    +0.000 A 
ATOM     16  C   UNL     1       1.345   2.926  20.952  0.00  0.00    +0.000 A 
ATOM     17  C   UNL     1       1.018   2.917  19.611  0.00  0.00    +0.000 A 
ATOM     18  N   UNL     1       1.463   4.051  19.036  0.00  0.00    +0.000 NA
ENDBRANCH  13  14
ENDBRANCH   4  13
TORSDOF 3
ENDMDL
MODEL 2
REMARK VINA RESULT:      -7.0      0.486      1.522
REMARK  Name = 
REMARK  4 active torsions:
REMARK  status: ('A' for Active; 'I' for Inactive)
REMARK    1  A    between atoms: C_1  and  C_2
REMARK    2  A    between atoms: N_4  and  C_5
REMARK    3  A    between atoms: C_8  and  C_9
REMARK    4  A    between atoms: C_9  and  N_10
REMARK                            x       y       z     vdW  Elec       q    Type
REMARK                         _______ _______ _______ _____ _____    ______ ____
ROOT
ATOM      1  C   UNL     1       5.972   5.827  17.020  0.00  0.00    +0.000 A 
ATOM      2  C   UNL     1       5.987   5.146  18.251  0.00  0.00    +0.000 A 
ATOM      3  C   UNL     1       4.901   5.254  19.132  0.00  0.00    +0.000 A 
ATOM      4  C   UNL     1       3.800   6.062  18.802  0.00  0.00    +0.000 A 
ATOM      5  C   UNL     1       3.806   6.770  17.597  0.00  0.00    +0.000 A 
ATOM      6  C   UNL     1       4.879   6.656  16.721  0.00  0.00    +0.000 A 
ENDROOT
BRANCH   1  10
ATOM      7  C   UNL     1       6.126   3.863  14.617  0.00  0.00    +0.000 C 
ATOM      8  C   UNL     1       7.030   5.062  14.858  0.00  0.00    +0.000 C 
ATOM      9  N   UNL     1       7.869   5.412  13.952  0.00  0.00    +0.000 NA
ATOM     10  N   UNL     1       7.077   5.715  16.128  0.00  0.00    +0.000 N 
ATOM     11  H   UNL     1       7.909   4.945  13.032  0.00  0.00    +0.000 HD
ATOM     12  H   UNL     1       7.989   6.089  16.429  0.00  0.00    +0.000 HD
ENDBRANCH   1  10
BRANCH   4  13
ATOM     13  C   UNL     1       2.621   6.181  19.729  0.00  0.00    +0.000 C 
BRANCH  13  14
ATOM     14  N   UNL     1       2.081   4.864  20.046  0.00  0.00    +0.000 N 
ATOM     15  C   UNL     1       1.458   4.031  19.191  0.00  0.00    +0.000 A 
ATOM     16  C   UNL     1       1.113   2.892  19.883  0.00  0.00    +0.000 A 
ATOM     17  C   UNL     1       1.565   3.102  21.171  0.00  0.00    +0.000 A 
ATOM     18  N   UNL     1       2.151   4.313  21.246  0.00  0.00    +0.000 NA
ENDBRANCH  13  14
ENDBRANCH   4  13
TORSDOF 3
ENDMDL
MODEL 3
REMARK VINA RESULT:      -6.8      1.241      1.843
REMARK  Name = 
REMARK  4 active torsions:
REMARK  status: ('A' for Active; 'I' for Inactive)
REMARK    1  A    between atoms: C_1  and  C_2
REMARK    2  A    between atoms: N_4  and  C_5
REMARK    3  A    between atoms: C_8  and  C_9
REMARK    4  A    between atoms: C_9  and  N_10
REMARK                            x       y       z     vdW  Elec       q    Type
REMARK                         _______ _______ _______ _____ _____    ______ ____
ROOT
ATOM      1  C   UNL     1       6.605   5.383  16.290  0.00  0.00    +0.000 A 
ATOM      2  C   UNL     1       6.965   4.744  17.490  0.00  0.00    +0.000 A 
ATOM      3  C   UNL     1       6.050   4.663  18.550  0.00  0.00    +0.000 A 
ATOM      4  C   UNL     1       4.776   5.241  18.431  0.00  0.00    +0.000 A 
ATOM      5  C   UNL     1       4.435   5.912  17.252  0.00  0.00    +0.000 A 
ATOM      6  C   UNL     1       5.339   5.984  16.199  0.00  0.00    +0.000 A 
ENDROOT
BRANCH   1  10
ATOM      7  C   UNL     1       6.339   3.870  13.589  0.00  0.00    +0.000 C 
ATOM      8  C   UNL     1       7.270   5.037  13.878  0.00  0.00    +0.000 C 
ATOM      9  N   UNL     1       7.936   5.566  12.916  0.00  0.00    +0.000 NA
ATOM     10  N   UNL     1       7.536   5.463  15.215  0.00  0.00    +0.000 N 
ATOM     11  H   UNL     1       7.815   5.267  11.936  0.00  0.00    +0.000 HD
ATOM     12  H   UNL     1       8.487   5.809  15.416  0.00  0.00    +0.000 HD
ENDBRANCH   1  10
BRANCH   4  13
ATOM     13  C   UNL     1       3.778   5.155  19.553  0.00  0.00    +0.000 C 
BRANCH  13  14
ATOM     14  N   UNL     1       2.846   4.056  19.330  0.00  0.00    +0.000 N 
ATOM     15  C   UNL     1       1.557   4.166  18.952  0.00  0.00    +0.000 A 
ATOM     16  C   UNL     1       1.036   2.897  18.845  0.00  0.00    +0.000 A 
ATOM     17  C   UNL     1       2.077   2.051  19.173  0.00  0.00    +0.000 A 
ATOM     18  N   UNL     1       3.170   2.781  19.465  0.00  0.00    +0.000 NA
ENDBRANCH  13  14
ENDBRANCH   4  13
TORSDOF 3
ENDMDL
MODEL 4
REMARK VINA RESULT:      -6.6      1.094      6.105
REMARK  Name = 
REMARK  4 active torsions:
REMARK  status: ('A' for Active; 'I' for Inactive)
REMARK    1  A    between atoms: C_1  and  C_2
REMARK    2  A    between atoms: N_4  and  C_5
REMARK    3  A    between atoms: C_8  and  C_9
REMARK    4  A    between atoms: C_9  and  N_10
REMARK                            x       y       z     vdW  Elec       q    Type
REMARK                         _______ _______ _______ _____ _____    ______ ____
ROOT
ATOM      1  C   UNL     1       3.159   5.241  19.921  0.00  0.00    +0.000 A 
ATOM      2  C   UNL     1       2.531   6.224  19.136  0.00  0.00    +0.000 A 
ATOM      3  C   UNL     1       3.184   6.759  18.016  0.00  0.00    +0.000 A 
ATOM      4  C   UNL     1       4.481   6.332  17.682  0.00  0.00    +0.000 A 
ATOM      5  C   UNL     1       5.119   5.385  18.488  0.00  0.00    +0.000 A 
ATOM      6  C   UNL     1       4.468   4.850  19.594  0.00  0.00    +0.000 A 
ENDROOT
BRANCH   1  10
ATOM      7  C   UNL     1       1.041   2.969  19.829  0.00  0.00    +0.000 C 
ATOM      8  C   UNL     1       1.773   3.467  21.066  0.00  0.00    +0.000 C 
ATOM      9  N   UNL     1       1.632   2.840  22.177  0.00  0.00    +0.000 NA
ATOM     10  N   UNL     1       2.493   4.701  21.058  0.00  0.00    +0.000 N 
ATOM     11  H   UNL     1       1.086   1.967  22.249  0.00  0.00    +0.000 HD
ATOM     12  H   UNL     1       2.486   5.253  21.930  0.00  0.00    +0.000 HD
ENDBRANCH   1  10
BRANCH   4  13
ATOM     13  C   UNL     1       5.193   6.886  16.478  0.00  0.00    +0.000 C 
BRANCH  13  14
ATOM     14  N   UNL     1       5.796   5.811  15.699  0.00  0.00    +0.000 N 
ATOM     15  C   UNL     1       5.145   4.785  15.117  0.00  0.00    +0.000 A 
ATOM     16  C   UNL     1       6.076   4.003  14.472  0.00  0.00    +0.000 A 
ATOM     17  C   UNL     1       7.288   4.620  14.703  0.00  0.00    +0.000 A 
ATOM     18  N   UNL     1       7.092   5.721  15.454  0.00  0.00    +0.000 NA
ENDBRANCH  13  14
ENDBRANCH   4  13
TORSDOF 3
ENDMDL
MODEL 5
REMARK VINA RESULT:      -6.6      1.270      1.355
REMARK  Name = 
REMARK  4 active torsions:
REMARK  status: ('A' for Active; 'I' for Inactive)
REMARK    1  A    between atoms: C_1  and  C_2
REMARK    2  A    between atoms: N_4  and  C_5
REMARK    3  A    between atoms: C_8  and  C_9
REMARK    4  A    between atoms: C_9  and  N_10
REMARK                            x       y       z     vdW  Elec       q    Type
REMARK                         _______ _______ _______ _____ _____    ______ ____
ROOT
ATOM      1  C   UNL     1       5.440   5.065  16.543  0.00  0.00    +0.000 A 
ATOM      2  C   UNL     1       4.770   6.237  16.937  0.00  0.00    +0.000 A 
ATOM      3  C   UNL     1       3.514   6.160  17.556  0.00  0.00    +0.000 A 
ATOM      4  C   UNL     1       2.905   4.911  17.766  0.00  0.00    +0.000 A 
ATOM      5  C   UNL     1       3.555   3.751  17.337  0.00  0.00    +0.000 A 
ATOM      6  C   UNL     1       4.803   3.828  16.731  0.00  0.00    +0.000 A 
ENDROOT
BRANCH   1  10
ATOM      7  C   UNL     1       6.114   3.940  13.725  0.00  0.00    +0.000 C 
ATOM      8  C   UNL     1       6.951   4.928  14.523  0.00  0.00    +0.000 C 
ATOM      9  N   UNL     1       7.974   5.475  13.975  0.00  0.00    +0.000 NA
ATOM     10  N   UNL     1       6.716   5.148  15.915  0.00  0.00    +0.000 N 
ATOM     11  H   UNL     1       8.216   5.315  12.984  0.00  0.00    +0.000 HD
ATOM     12  H   UNL     1       7.541   5.337  16.505  0.00  0.00    +0.000 HD
ENDBRANCH   1  10
BRANCH   4  13
ATOM     13  C   UNL     1       1.563   4.808  18.438  0.00  0.00    +0.000 C 
BRANCH  13  14
ATOM     14  N   UNL     1       1.670   4.067  19.690  0.00  0.00    +0.000 N 
ATOM     15  C   UNL     1       2.298   4.478  20.808  0.00  0.00    +0.000 A 
ATOM     16  C   UNL     1       2.159   3.493  21.759  0.00  0.00    +0.000 A 
ATOM     17  C   UNL     1       1.423   2.500  21.145  0.00  0.00    +0.000 A 
ATOM     18  N   UNL     1       1.137   2.873  19.883  0.00  0.00    +0.000 NA
ENDBRANCH  13  14
ENDBRANCH   4  13
TORSDOF 3
ENDMDL
MODEL 6
REMARK VINA RESULT:      -6.6      1.270      1.641
REMARK  Name = 
REMARK  4 active torsions:
REMARK  status: ('A' for Active; 'I' for Inactive)
REMARK    1  A    between atoms: C_1  and  C_2
REMARK    2  A    between atoms: N_4  and  C_5
REMARK    3  A    between atoms: C_8  and  C_9
REMARK    4  A    between atoms: C_9  and  N_10
REMARK                            x       y       z     vdW  Elec       q    Type
REMARK                         _______ _______ _______ _____ _____    ______ ____
ROOT
ATOM      1  C   UNL     1       5.585   5.096  16.368  0.00  0.00    +0.000 A 
ATOM      2  C   UNL     1       4.978   3.842  16.564  0.00  0.00    +0.000 A 
ATOM      3  C   UNL     1       3.728   3.752  17.192  0.00  0.00    +0.000 A 
ATOM      4  C   UNL     1       3.082   4.912  17.651  0.00  0.00    +0.000 A 
ATOM      5  C   UNL     1       3.706   6.153  17.491  0.00  0.00    +0.000 A 
ATOM      6  C   UNL     1       4.942   6.242  16.862  0.00  0.00    +0.000 A 
ENDROOT
BRANCH   1  10
ATOM      7  C   UNL     1       6.247   3.942  13.559  0.00  0.00    +0.000 C 
ATOM      8  C   UNL     1       7.081   4.947  14.338  0.00  0.00    +0.000 C 
ATOM      9  N   UNL     1       8.095   5.496  13.775  0.00  0.00    +0.000 NA
ATOM     10  N   UNL     1       6.855   5.182  15.729  0.00  0.00    +0.000 N 
ATOM     11  H   UNL     1       8.331   5.327  12.784  0.00  0.00    +0.000 HD
ATOM     12  H   UNL     1       7.683   5.385  16.310  0.00  0.00    +0.000 HD
ENDBRANCH   1  10
BRANCH   4  13
ATOM     13  C   UNL     1       1.735   4.837  18.318  0.00  0.00    +0.000 C 
BRANCH  13  14
ATOM     14  N   UNL     1       1.826   4.113  19.581  0.00  0.00    +0.000 N 
ATOM     15  C   UNL     1       2.396   4.559  20.717  0.00  0.00    +0.000 A 
ATOM     16  C   UNL     1       2.261   3.579  21.673  0.00  0.00    +0.000 A 
ATOM     17  C   UNL     1       1.589   2.551  21.043  0.00  0.00    +0.000 A 
ATOM     18  N   UNL     1       1.335   2.900  19.767  0.00  0.00    +0.000 NA
ENDBRANCH  13  14
ENDBRANCH   4  13
TORSDOF 3
ENDMDL
MODEL 7
REMARK VINA RESULT:      -6.6      1.109      6.239
REMARK  Name = 
REMARK  4 active torsions:
REMARK  status: ('A' for Active; 'I' for Inactive)
REMARK    1  A    between atoms: C_1  and  C_2
REMARK    2  A    between atoms: N_4  and  C_5
REMARK    3  A    between atoms: C_8  and  C_9
REMARK    4  A    between atoms: C_9  and  N_10
REMARK                            x       y       z     vdW  Elec       q    Type
REMARK                         _______ _______ _______ _____ _____    ______ ____
ROOT
ATOM      1  C   UNL     1       3.120   5.261  19.960  0.00  0.00    +0.000 A 
ATOM      2  C   UNL     1       4.295   4.673  19.459  0.00  0.00    +0.000 A 
ATOM      3  C   UNL     1       4.922   5.203  18.322  0.00  0.00    +0.000 A 
ATOM      4  C   UNL     1       4.369   6.311  17.660  0.00  0.00    +0.000 A 
ATOM      5  C   UNL     1       3.179   6.869  18.136  0.00  0.00    +0.000 A 
ATOM      6  C   UNL     1       2.562   6.348  19.268  0.00  0.00    +0.000 A 
ENDROOT
BRANCH   1  10
ATOM      7  C   UNL     1       0.946   3.040  19.921  0.00  0.00    +0.000 C 
ATOM      8  C   UNL     1       1.738   3.503  21.134  0.00  0.00    +0.000 C 
ATOM      9  N   UNL     1       1.627   2.863  22.242  0.00  0.00    +0.000 NA
ATOM     10  N   UNL     1       2.486   4.720  21.115  0.00  0.00    +0.000 N 
ATOM     11  H   UNL     1       1.063   2.003  22.323  0.00  0.00    +0.000 HD
ATOM     12  H   UNL     1       2.526   5.259  21.993  0.00  0.00    +0.000 HD
ENDBRANCH   1  10
BRANCH   4  13
ATOM     13  C   UNL     1       5.033   6.900  16.446  0.00  0.00    +0.000 C 
BRANCH  13  14
ATOM     14  N   UNL     1       5.729   5.866  15.688  0.00  0.00    +0.000 N 
ATOM     15  C   UNL     1       5.156   4.892  14.955  0.00  0.00    +0.000 A 
ATOM     16  C   UNL     1       6.160   4.135  14.396  0.00  0.00    +0.000 A 
ATOM     17  C   UNL     1       7.334   4.714  14.834  0.00  0.00    +0.000 A 
ATOM     18  N   UNL     1       7.046   5.767  15.621  0.00  0.00    +0.000 NA
ENDBRANCH  13  14
ENDBRANCH   4  13
TORSDOF 3
ENDMDL
MODEL 8
REMARK VINA RESULT:      -6.5      1.006      6.150
REMARK  Name = 
REMARK  4 active torsions:
REMARK  status: ('A' for Active; 'I' for Inactive)
REMARK    1  A    between atoms: C_1  and  C_2
REMARK    2  A    between atoms: N_4  and  C_5
REMARK    3  A    between atoms: C_8  and  C_9
REMARK    4  A    between atoms: C_9  and  N_10
REMARK                            x       y       z     vdW  Elec       q    Type
REMARK                         _______ _______ _______ _____ _____    ______ ____
ROOT
ATOM      1  C   UNL     1       3.443   5.036  19.186  0.00  0.00    +0.000 A 
ATOM      2  C   UNL     1       3.427   6.029  18.190  0.00  0.00    +0.000 A 
ATOM      3  C   UNL     1       4.573   6.279  17.422  0.00  0.00    +0.000 A 
ATOM      4  C   UNL     1       5.755   5.557  17.658  0.00  0.00    +0.000 A 
ATOM      5  C   UNL     1       5.780   4.599  18.676  0.00  0.00    +0.000 A 
ATOM      6  C   UNL     1       4.642   4.346  19.431  0.00  0.00    +0.000 A 
ENDROOT
BRANCH   1  10
ATOM      7  C   UNL     1       1.198   3.026  18.427  0.00  0.00    +0.000 C 
ATOM      8  C   UNL     1       1.417   3.657  19.794  0.00  0.00    +0.000 C 
ATOM      9  N   UNL     1       0.714   3.259  20.791  0.00  0.00    +0.000 NA
ATOM     10  N   UNL     1       2.277   4.785  19.964  0.00  0.00    +0.000 N 
ATOM     11  H   UNL     1       0.044   2.477  20.714  0.00  0.00    +0.000 HD
ATOM     12  H   UNL     1       2.001   5.482  20.672  0.00  0.00    +0.000 HD
ENDBRANCH   1  10
BRANCH   4  13
ATOM     13  C   UNL     1       6.991   5.804  16.837  0.00  0.00    +0.000 C 
BRANCH  13  14
ATOM     14  N   UNL     1       6.874   5.172  15.528  0.00  0.00    +0.000 N 
ATOM     15  C   UNL     1       6.014   4.192  15.189  0.00  0.00    +0.000 A 
ATOM     16  C   UNL     1       6.221   3.886  13.863  0.00  0.00    +0.000 A 
ATOM     17  C   UNL     1       7.233   4.729  13.452  0.00  0.00    +0.000 A 
ATOM     18  N   UNL     1       7.616   5.504  14.485  0.00  0.00    +0.000 NA
ENDBRANCH  13  14
ENDBRANCH   4  13
TORSDOF 3
ENDMDL
MODEL 9
REMARK VINA RESULT:      -6.4      0.992      6.263
REMARK  Name = 
REMARK  4 active torsions:
REMARK  status: ('A' for Active; 'I' for Inactive)
REMARK    1  A    between atoms: C_1  and  C_2
REMARK    2  A    between atoms: N_4  and  C_5
REMARK    3  A    between atoms: C_8  and  C_9
REMARK    4  A    between atoms: C_9  and  N_10
REMARK                            x       y       z     vdW  Elec       q    Type
REMARK                         _______ _______ _______ _____ _____    ______ ____
ROOT
ATOM      1  C   UNL     1       3.297   5.033  19.208  0.00  0.00    +0.000 A 
ATOM      2  C   UNL     1       4.496   4.315  19.365  0.00  0.00    +0.000 A 
ATOM      3  C   UNL     1       5.615   4.627  18.579  0.00  0.00    +0.000 A 
ATOM      4  C   UNL     1       5.540   5.644  17.613  0.00  0.00    +0.000 A 
ATOM      5  C   UNL     1       4.335   6.329  17.431  0.00  0.00    +0.000 A 
ATOM      6  C   UNL     1       3.229   6.024  18.215  0.00  0.00    +0.000 A 
ENDROOT
BRANCH   1  10
ATOM      7  C   UNL     1       1.182   2.865  18.511  0.00  0.00    +0.000 C 
ATOM      8  C   UNL     1       1.379   3.527  19.866  0.00  0.00    +0.000 C 
ATOM      9  N   UNL     1       0.721   3.096  20.880  0.00  0.00    +0.000 NA
ATOM     10  N   UNL     1       2.163   4.713  20.008  0.00  0.00    +0.000 N 
ATOM     11  H   UNL     1       0.105   2.270  20.824  0.00  0.00    +0.000 HD
ATOM     12  H   UNL     1       1.851   5.400  20.712  0.00  0.00    +0.000 HD
ENDBRANCH   1  10
BRANCH   4  13
ATOM     13  C   UNL     1       6.733   6.001  16.769  0.00  0.00    +0.000 C 
BRANCH  13  14
ATOM     14  N   UNL     1       6.696   5.285  15.498  0.00  0.00    +0.000 N 
ATOM     15  C   UNL     1       5.811   4.334  15.144  0.00  0.00    +0.000 A 
ATOM     16  C   UNL     1       6.117   3.924  13.866  0.00  0.00    +0.000 A 
ATOM     17  C   UNL     1       7.212   4.679  13.498  0.00  0.00    +0.000 A 
ATOM     18  N   UNL     1       7.548   5.501  14.510  0.00  0.00    +0.000 NA
ENDBRANCH  13  14
ENDBRANCH   4  13
TORSDOF 3
ENDMDL
