MODEL 1
REMARK VINA RESULT:      -7.5      0.000      0.000
REMARK  Name = 
REMARK  9 active torsions:
REMARK  status: ('A' for Active; 'I' for Inactive)
REMARK    1  A    between atoms: C_1  and  C_2
REMARK    2  A    between atoms: C_2  and  C_3
REMARK    3  A    between atoms: C_2  and  C_15
REMARK    4  A    between atoms: C_3  and  N_4
REMARK    5  A    between atoms: C_9  and  S_10
REMARK    6  A    between atoms: S_10  and  C_11
REMARK    7  A    between atoms: C_15  and  O_16
REMARK    8  A    between atoms: O_16  and  C_17
REMARK    9  A    between atoms: C_17  and  C_18
REMARK                            x       y       z     vdW  Elec       q    Type
REMARK                         _______ _______ _______ _____ _____    ______ ____
ROOT
ATOM      1  C   UNL     1       6.880   5.669  18.767  0.00  0.00    +0.000 C 
ENDROOT
BRANCH   1   2
ATOM      2  N   UNL     1       5.497   5.663  19.230  0.00  0.00    +0.000 N 
ATOM      3  C   UNL     1       4.917   4.473  19.600  0.00  0.00    +0.000 C 
ATOM      4  O   UNL     1       5.479   3.387  19.517  0.00  0.00    +0.000 OA
ATOM      5  N   UNL     1       3.632   4.611  20.080  0.00  0.00    +0.000 N 
ATOM      6  C   UNL     1       2.772   3.517  20.535  0.00  0.00    +0.000 C 
ATOM      7  C   UNL     1       1.663   4.111  19.675  0.00  0.00    +0.000 C 
ATOM      8  C   UNL     1       2.528   5.356  19.476  0.00  0.00    +0.000 C 
ATOM      9  H   UNL     1       5.214   6.431  19.824  0.00  0.00    +0.000 HD
BRANCH   7  10
ATOM     10  S   UNL     1       1.233   3.160  18.229  0.00  0.00    +0.000 S 
ATOM     11  C   UNL     1       2.656   2.189  17.812  0.00  0.00    +0.000 C 
ATOM     12  O   UNL     1       0.173   2.225  18.590  0.00  0.00    +0.000 OA
ATOM     13  O   UNL     1       1.024   4.081  17.128  0.00  0.00    +0.000 OA
ENDBRANCH   7  10
ENDBRANCH   1   2
BRANCH   1  15
ATOM     14  C   UNL     1       7.724   7.742  17.562  0.00  0.00    +0.000 C 
ATOM     15  C   UNL     1       7.073   6.364  17.408  0.00  0.00    +0.000 C 
BRANCH  15  16
ATOM     16  C   UNL     1       5.725   6.501  16.673  0.00  0.00    +0.000 C 
BRANCH  16  17
ATOM     17  O   UNL     1       5.272   5.208  16.260  0.00  0.00    +0.000 OA
BRANCH  17  18
ATOM     18  C   UNL     1       6.358   4.336  15.926  0.00  0.00    +0.000 C 
BRANCH  18  19
ATOM     19  C   UNL     1       6.608   4.342  14.435  0.00  0.00    +0.000 A 
ATOM     20  C   UNL     1       7.572   5.200  13.881  0.00  0.00    +0.000 A 
ATOM     21  C   UNL     1       7.809   5.213  12.504  0.00  0.00    +0.000 A 
ATOM     22  C   UNL     1       7.098   4.357  11.665  0.00  0.00    +0.000 A 
ATOM     23  C   UNL     1       6.164   3.476  12.205  0.00  0.00    +0.000 A 
ATOM     24  C   UNL     1       5.927   3.463  13.580  0.00  0.00    +0.000 A 
ENDBRANCH  18  19
ENDBRANCH  17  18
ENDBRANCH  16  17
ENDBRANCH  15  16
ENDBRANCH   1  15
TORSDOF 7
ENDMDL
MODEL 2
REMARK VINA RESULT:      -7.2      2.886      6.840
REMARK  Name = 
REMARK  9 active torsions:
REMARK  status: ('A' for Active; 'I' for Inactive)
REMARK    1  A    between atoms: C_1  and  C_2
REMARK    2  A    between atoms: C_2  and  C_3
REMARK    3  A    between atoms: C_2  and  C_15
REMARK    4  A    between atoms: C_3  and  N_4
REMARK    5  A    between atoms: C_9  and  S_10
REMARK    6  A    between atoms: S_10  and  C_11
REMARK    7  A    between atoms: C_15  and  O_16
REMARK    8  A    between atoms: O_16  and  C_17
REMARK    9  A    between atoms: C_17  and  C_18
REMARK                            x       y       z     vdW  Elec       q    Type
REMARK                         _______ _______ _______ _____ _____    ______ ____
ROOT
ATOM      1  C   UNL     1       3.501   2.647  20.116  0.00  0.00    +0.000 C 
ENDROOT
BRANCH   1   2
ATOM      2  N   UNL     1       4.164   3.826  19.571  0.00  0.00    +0.000 N 
ATOM      3  C   UNL     1       4.053   4.100  18.228  0.00  0.00    +0.000 C 
ATOM      4  O   UNL     1       3.464   3.376  17.433  0.00  0.00    +0.000 OA
ATOM      5  N   UNL     1       4.668   5.274  17.851  0.00  0.00    +0.000 N 
ATOM      6  C   UNL     1       4.719   5.809  16.489  0.00  0.00    +0.000 C 
ATOM      7  C   UNL     1       6.214   6.023  16.693  0.00  0.00    +0.000 C 
ATOM      8  C   UNL     1       6.022   5.719  18.179  0.00  0.00    +0.000 C 
ATOM      9  H   UNL     1       4.140   4.664  20.138  0.00  0.00    +0.000 HD
BRANCH   7  10
ATOM     10  S   UNL     1       7.271   4.935  15.754  0.00  0.00    +0.000 S 
ATOM     11  C   UNL     1       6.217   3.745  14.971  0.00  0.00    +0.000 C 
ATOM     12  O   UNL     1       7.899   5.710  14.689  0.00  0.00    +0.000 OA
ATOM     13  O   UNL     1       8.105   4.200  16.686  0.00  0.00    +0.000 OA
ENDBRANCH   7  10
ENDBRANCH   1   2
BRANCH   1  15
ATOM     14  C   UNL     1       1.024   2.910  19.612  0.00  0.00    +0.000 C 
ATOM     15  C   UNL     1       2.106   2.936  20.695  0.00  0.00    +0.000 C 
BRANCH  15  16
ATOM     16  C   UNL     1       2.090   4.297  21.418  0.00  0.00    +0.000 C 
BRANCH  16  17
ATOM     17  O   UNL     1       1.779   5.333  20.482  0.00  0.00    +0.000 OA
BRANCH  17  18
ATOM     18  C   UNL     1       1.913   6.638  21.056  0.00  0.00    +0.000 C 
BRANCH  18  19
ATOM     19  C   UNL     1       1.746   7.706  19.998  0.00  0.00    +0.000 A 
ATOM     20  C   UNL     1       1.010   8.870  20.276  0.00  0.00    +0.000 A 
ATOM     21  C   UNL     1       0.850   9.861  19.305  0.00  0.00    +0.000 A 
ATOM     22  C   UNL     1       1.436   9.711  18.049  0.00  0.00    +0.000 A 
ATOM     23  C   UNL     1       2.198   8.578  17.772  0.00  0.00    +0.000 A 
ATOM     24  C   UNL     1       2.358   7.588  18.743  0.00  0.00    +0.000 A 
ENDBRANCH  18  19
ENDBRANCH  17  18
ENDBRANCH  16  17
ENDBRANCH  15  16
ENDBRANCH   1  15
TORSDOF 7
ENDMDL
MODEL 3
REMARK VINA RESULT:      -7.1      3.117      7.360
REMARK  Name = 
REMARK  9 active torsions:
REMARK  status: ('A' for Active; 'I' for Inactive)
REMARK    1  A    between atoms: C_1  and  C_2
REMARK    2  A    between atoms: C_2  and  C_3
REMARK    3  A    between atoms: C_2  and  C_15
REMARK    4  A    between atoms: C_3  and  N_4
REMARK    5  A    between atoms: C_9  and  S_10
REMARK    6  A    between atoms: S_10  and  C_11
REMARK    7  A    between atoms: C_15  and  O_16
REMARK    8  A    between atoms: O_16  and  C_17
REMARK    9  A    between atoms: C_17  and  C_18
REMARK                            x       y       z     vdW  Elec       q    Type
REMARK                         _______ _______ _______ _____ _____    ______ ____
ROOT
ATOM      1  C   UNL     1       1.485   3.156  19.178  0.00  0.00    +0.000 C 
ENDROOT
BRANCH   1   2
ATOM      2  N   UNL     1       2.309   3.895  18.228  0.00  0.00    +0.000 N 
ATOM      3  C   UNL     1       3.426   3.294  17.697  0.00  0.00    +0.000 C 
ATOM      4  O   UNL     1       3.812   2.174  18.015  0.00  0.00    +0.000 OA
ATOM      5  N   UNL     1       4.080   4.070  16.765  0.00  0.00    +0.000 N 
ATOM      6  C   UNL     1       5.299   3.692  16.047  0.00  0.00    +0.000 C 
ATOM      7  C   UNL     1       5.865   5.059  16.410  0.00  0.00    +0.000 C 
ATOM      8  C   UNL     1       4.473   5.473  16.888  0.00  0.00    +0.000 C 
ATOM      9  H   UNL     1       1.820   4.465  17.551  0.00  0.00    +0.000 HD
BRANCH   7  10
ATOM     10  S   UNL     1       7.183   5.041  17.612  0.00  0.00    +0.000 S 
ATOM     11  C   UNL     1       7.727   6.716  17.801  0.00  0.00    +0.000 C 
ATOM     12  O   UNL     1       6.628   4.628  18.896  0.00  0.00    +0.000 OA
ATOM     13  O   UNL     1       8.298   4.304  17.049  0.00  0.00    +0.000 OA
ENDBRANCH   7  10
ENDBRANCH   1   2
BRANCH   1  15
ATOM     14  C   UNL     1       1.035   2.621  21.622  0.00  0.00    +0.000 C 
ATOM     15  C   UNL     1       2.058   3.136  20.606  0.00  0.00    +0.000 C 
BRANCH  15  16
ATOM     16  C   UNL     1       2.543   4.540  21.016  0.00  0.00    +0.000 C 
BRANCH  16  17
ATOM     17  O   UNL     1       1.700   5.530  20.418  0.00  0.00    +0.000 OA
BRANCH  17  18
ATOM     18  C   UNL     1       2.445   6.656  19.940  0.00  0.00    +0.000 C 
BRANCH  18  19
ATOM     19  C   UNL     1       1.653   7.932  20.112  0.00  0.00    +0.000 A 
ATOM     20  C   UNL     1       1.513   8.829  19.041  0.00  0.00    +0.000 A 
ATOM     21  C   UNL     1       0.784  10.012  19.191  0.00  0.00    +0.000 A 
ATOM     22  C   UNL     1       0.171  10.305  20.408  0.00  0.00    +0.000 A 
ATOM     23  C   UNL     1       0.272   9.407  21.468  0.00  0.00    +0.000 A 
ATOM     24  C   UNL     1       1.001   8.226  21.318  0.00  0.00    +0.000 A 
ENDBRANCH  18  19
ENDBRANCH  17  18
ENDBRANCH  16  17
ENDBRANCH  15  16
ENDBRANCH   1  15
TORSDOF 7
ENDMDL
MODEL 4
REMARK VINA RESULT:      -7.0      2.944      5.605
REMARK  Name = 
REMARK  9 active torsions:
REMARK  status: ('A' for Active; 'I' for Inactive)
REMARK    1  A    between atoms: C_1  and  C_2
REMARK    2  A    between atoms: C_2  and  C_3
REMARK    3  A    between atoms: C_2  and  C_15
REMARK    4  A    between atoms: C_3  and  N_4
REMARK    5  A    between atoms: C_9  and  S_10
REMARK    6  A    between atoms: S_10  and  C_11
REMARK    7  A    between atoms: C_15  and  O_16
REMARK    8  A    between atoms: O_16  and  C_17
REMARK    9  A    between atoms: C_17  and  C_18
REMARK                            x       y       z     vdW  Elec       q    Type
REMARK                         _______ _______ _______ _____ _____    ______ ____
ROOT
ATOM      1  C   UNL     1       7.139   4.841  17.033  0.00  0.00    +0.000 C 
ENDROOT
BRANCH   1   2
ATOM      2  N   UNL     1       6.298   3.853  17.700  0.00  0.00    +0.000 N 
ATOM      3  C   UNL     1       4.931   3.936  17.570  0.00  0.00    +0.000 C 
ATOM      4  O   UNL     1       4.360   4.834  16.961  0.00  0.00    +0.000 OA
ATOM      5  N   UNL     1       4.254   2.909  18.191  0.00  0.00    +0.000 N 
ATOM      6  C   UNL     1       2.800   2.748  18.226  0.00  0.00    +0.000 C 
ATOM      7  C   UNL     1       2.922   2.509  19.726  0.00  0.00    +0.000 C 
ATOM      8  C   UNL     1       4.438   2.413  19.555  0.00  0.00    +0.000 C 
ATOM      9  H   UNL     1       6.628   2.897  17.692  0.00  0.00    +0.000 HD
BRANCH   7  10
ATOM     10  S   UNL     1       2.286   3.818  20.758  0.00  0.00    +0.000 S 
ATOM     11  C   UNL     1       0.608   4.094  20.259  0.00  0.00    +0.000 C 
ATOM     12  O   UNL     1       2.244   3.340  22.135  0.00  0.00    +0.000 OA
ATOM     13  O   UNL     1       3.015   5.032  20.448  0.00  0.00    +0.000 OA
ENDBRANCH   7  10
ENDBRANCH   1   2
BRANCH   1  15
ATOM     14  C   UNL     1       7.266   5.727  19.412  0.00  0.00    +0.000 C 
ATOM     15  C   UNL     1       7.531   6.025  17.933  0.00  0.00    +0.000 C 
BRANCH  15  16
ATOM     16  C   UNL     1       6.774   7.300  17.511  0.00  0.00    +0.000 C 
BRANCH  16  17
ATOM     17  O   UNL     1       7.704   8.371  17.329  0.00  0.00    +0.000 OA
BRANCH  17  18
ATOM     18  C   UNL     1       8.549   8.554  18.471  0.00  0.00    +0.000 C 
BRANCH  18  19
ATOM     19  C   UNL     1       8.909  10.013  18.640  0.00  0.00    +0.000 A 
ATOM     20  C   UNL     1       8.539  10.952  17.663  0.00  0.00    +0.000 A 
ATOM     21  C   UNL     1       8.869  12.301  17.811  0.00  0.00    +0.000 A 
ATOM     22  C   UNL     1       9.557  12.733  18.943  0.00  0.00    +0.000 A 
ATOM     23  C   UNL     1       9.899  11.818  19.936  0.00  0.00    +0.000 A 
ATOM     24  C   UNL     1       9.570  10.470  19.789  0.00  0.00    +0.000 A 
ENDBRANCH  18  19
ENDBRANCH  17  18
ENDBRANCH  16  17
ENDBRANCH  15  16
ENDBRANCH   1  15
TORSDOF 7
ENDMDL
MODEL 5
REMARK VINA RESULT:      -6.9      3.255      5.990
REMARK  Name = 
REMARK  9 active torsions:
REMARK  status: ('A' for Active; 'I' for Inactive)
REMARK    1  A    between atoms: C_1  and  C_2
REMARK    2  A    between atoms: C_2  and  C_3
REMARK    3  A    between atoms: C_2  and  C_15
REMARK    4  A    between atoms: C_3  and  N_4
REMARK    5  A    between atoms: C_9  and  S_10
REMARK    6  A    between atoms: S_10  and  C_11
REMARK    7  A    between atoms: C_15  and  O_16
REMARK    8  A    between atoms: O_16  and  C_17
REMARK    9  A    between atoms: C_17  and  C_18
REMARK                            x       y       z     vdW  Elec       q    Type
REMARK                         _______ _______ _______ _____ _____    ______ ____
ROOT
ATOM      1  C   UNL     1       6.661   6.713  17.261  0.00  0.00    +0.000 C 
ENDROOT
BRANCH   1   2
ATOM      2  N   UNL     1       5.771   5.561  17.348  0.00  0.00    +0.000 N 
ATOM      3  C   UNL     1       4.416   5.766  17.469  0.00  0.00    +0.000 C 
ATOM      4  O   UNL     1       3.902   6.875  17.562  0.00  0.00    +0.000 OA
ATOM      5  N   UNL     1       3.681   4.601  17.475  0.00  0.00    +0.000 N 
ATOM      6  C   UNL     1       2.225   4.514  17.602  0.00  0.00    +0.000 C 
ATOM      7  C   UNL     1       2.440   3.445  18.666  0.00  0.00    +0.000 C 
ATOM      8  C   UNL     1       3.917   3.398  18.275  0.00  0.00    +0.000 C 
ATOM      9  H   UNL     1       5.990   4.772  16.754  0.00  0.00    +0.000 HD
BRANCH   7  10
ATOM     10  S   UNL     1       2.040   3.942  20.332  0.00  0.00    +0.000 S 
ATOM     11  C   UNL     1       2.586   2.637  21.400  0.00  0.00    +0.000 C 
ATOM     12  O   UNL     1       2.832   5.120  20.664  0.00  0.00    +0.000 OA
ATOM     13  O   UNL     1       0.596   3.998  20.452  0.00  0.00    +0.000 OA
ENDBRANCH   7  10
ENDBRANCH   1   2
BRANCH   1  15
ATOM     14  C   UNL     1       7.664   5.677  19.354  0.00  0.00    +0.000 C 
ATOM     15  C   UNL     1       7.907   6.599  18.156  0.00  0.00    +0.000 C 
BRANCH  15  16
ATOM     16  C   UNL     1       8.352   7.991  18.647  0.00  0.00    +0.000 C 
BRANCH  16  17
ATOM     17  O   UNL     1       8.293   8.922  17.562  0.00  0.00    +0.000 OA
BRANCH  17  18
ATOM     18  C   UNL     1       8.068  10.263  18.013  0.00  0.00    +0.000 C 
BRANCH  18  19
ATOM     19  C   UNL     1       9.321  10.833  18.638  0.00  0.00    +0.000 A 
ATOM     20  C   UNL     1      10.423  11.169  17.835  0.00  0.00    +0.000 A 
ATOM     21  C   UNL     1      11.586  11.696  18.405  0.00  0.00    +0.000 A 
ATOM     22  C   UNL     1      11.656  11.909  19.780  0.00  0.00    +0.000 A 
ATOM     23  C   UNL     1      10.556  11.614  20.583  0.00  0.00    +0.000 A 
ATOM     24  C   UNL     1       9.395  11.088  20.015  0.00  0.00    +0.000 A 
ENDBRANCH  18  19
ENDBRANCH  17  18
ENDBRANCH  16  17
ENDBRANCH  15  16
ENDBRANCH   1  15
TORSDOF 7
ENDMDL
MODEL 6
REMARK VINA RESULT:      -6.9      3.282      7.084
REMARK  Name = 
REMARK  9 active torsions:
REMARK  status: ('A' for Active; 'I' for Inactive)
REMARK    1  A    between atoms: C_1  and  C_2
REMARK    2  A    between atoms: C_2  and  C_3
REMARK    3  A    between atoms: C_2  and  C_15
REMARK    4  A    between atoms: C_3  and  N_4
REMARK    5  A    between atoms: C_9  and  S_10
REMARK    6  A    between atoms: S_10  and  C_11
REMARK    7  A    between atoms: C_15  and  O_16
REMARK    8  A    between atoms: O_16  and  C_17
REMARK    9  A    between atoms: C_17  and  C_18
REMARK                            x       y       z     vdW  Elec       q    Type
REMARK                         _______ _______ _______ _____ _____    ______ ____
ROOT
ATOM      1  C   UNL     1       1.463   3.872  18.956  0.00  0.00    +0.000 C 
ENDROOT
BRANCH   1   2
ATOM      2  N   UNL     1       2.377   4.482  17.997  0.00  0.00    +0.000 N 
ATOM      3  C   UNL     1       3.500   3.791  17.605  0.00  0.00    +0.000 C 
ATOM      4  O   UNL     1       3.816   2.696  18.056  0.00  0.00    +0.000 OA
ATOM      5  N   UNL     1       4.245   4.445  16.649  0.00  0.00    +0.000 N 
ATOM      6  C   UNL     1       5.491   3.954  16.057  0.00  0.00    +0.000 C 
ATOM      7  C   UNL     1       6.090   5.329  16.322  0.00  0.00    +0.000 C 
ATOM      8  C   UNL     1       4.689   5.839  16.661  0.00  0.00    +0.000 C 
ATOM      9  H   UNL     1       1.958   4.999  17.235  0.00  0.00    +0.000 HD
BRANCH   7  10
ATOM     10  S   UNL     1       7.325   5.384  17.607  0.00  0.00    +0.000 S 
ATOM     11  C   UNL     1       6.469   5.206  19.149  0.00  0.00    +0.000 C 
ATOM     12  O   UNL     1       8.189   4.217  17.466  0.00  0.00    +0.000 OA
ATOM     13  O   UNL     1       7.915   6.709  17.611  0.00  0.00    +0.000 OA
ENDBRANCH   7  10
ENDBRANCH   1   2
BRANCH   1  15
ATOM     14  C   UNL     1       1.297   2.648  21.178  0.00  0.00    +0.000 C 
ATOM     15  C   UNL     1       2.075   3.678  20.354  0.00  0.00    +0.000 C 
BRANCH  15  16
ATOM     16  C   UNL     1       2.132   5.019  21.111  0.00  0.00    +0.000 C 
BRANCH  16  17
ATOM     17  O   UNL     1       1.788   6.086  20.222  0.00  0.00    +0.000 OA
BRANCH  17  18
ATOM     18  C   UNL     1       1.461   7.291  20.924  0.00  0.00    +0.000 C 
BRANCH  18  19
ATOM     19  C   UNL     1       1.448   8.472  19.981  0.00  0.00    +0.000 A 
ATOM     20  C   UNL     1       2.006   8.359  18.697  0.00  0.00    +0.000 A 
ATOM     21  C   UNL     1       2.000   9.447  17.819  0.00  0.00    +0.000 A 
ATOM     22  C   UNL     1       1.421  10.654  18.206  0.00  0.00    +0.000 A 
ATOM     23  C   UNL     1       0.832  10.769  19.463  0.00  0.00    +0.000 A 
ATOM     24  C   UNL     1       0.839   9.682  20.340  0.00  0.00    +0.000 A 
ENDBRANCH  18  19
ENDBRANCH  17  18
ENDBRANCH  16  17
ENDBRANCH  15  16
ENDBRANCH   1  15
TORSDOF 7
ENDMDL
MODEL 7
REMARK VINA RESULT:      -6.9      2.570      5.367
REMARK  Name = 
REMARK  9 active torsions:
REMARK  status: ('A' for Active; 'I' for Inactive)
REMARK    1  A    between atoms: C_1  and  C_2
REMARK    2  A    between atoms: C_2  and  C_3
REMARK    3  A    between atoms: C_2  and  C_15
REMARK    4  A    between atoms: C_3  and  N_4
REMARK    5  A    between atoms: C_9  and  S_10
REMARK    6  A    between atoms: S_10  and  C_11
REMARK    7  A    between atoms: C_15  and  O_16
REMARK    8  A    between atoms: O_16  and  C_17
REMARK    9  A    between atoms: C_17  and  C_18
REMARK                            x       y       z     vdW  Elec       q    Type
REMARK                         _______ _______ _______ _____ _____    ______ ____
ROOT
ATOM      1  C   UNL     1       6.708   5.218  16.930  0.00  0.00    +0.000 C 
ENDROOT
BRANCH   1   2
ATOM      2  N   UNL     1       5.988   4.357  17.861  0.00  0.00    +0.000 N 
ATOM      3  C   UNL     1       5.065   3.462  17.373  0.00  0.00    +0.000 C 
ATOM      4  O   UNL     1       4.764   3.375  16.187  0.00  0.00    +0.000 OA
ATOM      5  N   UNL     1       4.502   2.664  18.345  0.00  0.00    +0.000 N 
ATOM      6  C   UNL     1       3.487   1.634  18.117  0.00  0.00    +0.000 C 
ATOM      7  C   UNL     1       2.706   2.231  19.282  0.00  0.00    +0.000 C 
ATOM      8  C   UNL     1       3.929   3.082  19.624  0.00  0.00    +0.000 C 
ATOM      9  H   UNL     1       6.520   3.978  18.633  0.00  0.00    +0.000 HD
BRANCH   7  10
ATOM     10  S   UNL     1       1.204   3.082  18.832  0.00  0.00    +0.000 S 
ATOM     11  C   UNL     1       0.861   4.237  20.131  0.00  0.00    +0.000 C 
ATOM     12  O   UNL     1       1.462   3.863  17.627  0.00  0.00    +0.000 OA
ATOM     13  O   UNL     1       0.120   2.119  18.837  0.00  0.00    +0.000 OA
ENDBRANCH   7  10
ENDBRANCH   1   2
BRANCH   1  15
ATOM     14  C   UNL     1       7.706   7.441  17.654  0.00  0.00    +0.000 C 
ATOM     15  C   UNL     1       6.452   6.718  17.153  0.00  0.00    +0.000 C 
BRANCH  15  16
ATOM     16  C   UNL     1       5.294   6.928  18.148  0.00  0.00    +0.000 C 
BRANCH  16  17
ATOM     17  O   UNL     1       4.051   6.940  17.441  0.00  0.00    +0.000 OA
BRANCH  17  18
ATOM     18  C   UNL     1       2.949   6.575  18.279  0.00  0.00    +0.000 C 
BRANCH  18  19
ATOM     19  C   UNL     1       2.203   7.804  18.746  0.00  0.00    +0.000 A 
ATOM     20  C   UNL     1       1.921   8.846  17.847  0.00  0.00    +0.000 A 
ATOM     21  C   UNL     1       1.233   9.986  18.270  0.00  0.00    +0.000 A 
ATOM     22  C   UNL     1       0.804  10.094  19.592  0.00  0.00    +0.000 A 
ATOM     23  C   UNL     1       1.046   9.052  20.485  0.00  0.00    +0.000 A 
ATOM     24  C   UNL     1       1.733   7.913  20.062  0.00  0.00    +0.000 A 
ENDBRANCH  18  19
ENDBRANCH  17  18
ENDBRANCH  16  17
ENDBRANCH  15  16
ENDBRANCH   1  15
TORSDOF 7
ENDMDL
MODEL 8
REMARK VINA RESULT:      -6.8      3.349      5.829
REMARK  Name = 
REMARK  9 active torsions:
REMARK  status: ('A' for Active; 'I' for Inactive)
REMARK    1  A    between atoms: C_1  and  C_2
REMARK    2  A    between atoms: C_2  and  C_3
REMARK    3  A    between atoms: C_2  and  C_15
REMARK    4  A    between atoms: C_3  and  N_4
REMARK    5  A    between atoms: C_9  and  S_10
REMARK    6  A    between atoms: S_10  and  C_11
REMARK    7  A    between atoms: C_15  and  O_16
REMARK    8  A    between atoms: O_16  and  C_17
REMARK    9  A    between atoms: C_17  and  C_18
REMARK                            x       y       z     vdW  Elec       q    Type
REMARK                         _______ _______ _______ _____ _____    ______ ____
ROOT
ATOM      1  C   UNL     1       6.390   6.825  16.948  0.00  0.00    +0.000 C 
ENDROOT
BRANCH   1   2
ATOM      2  N   UNL     1       5.410   6.444  17.960  0.00  0.00    +0.000 N 
ATOM      3  C   UNL     1       5.225   5.112  18.249  0.00  0.00    +0.000 C 
ATOM      4  O   UNL     1       5.802   4.203  17.664  0.00  0.00    +0.000 OA
ATOM      5  N   UNL     1       4.322   4.889  19.266  0.00  0.00    +0.000 N 
ATOM      6  C   UNL     1       3.922   3.576  19.775  0.00  0.00    +0.000 C 
ATOM      7  C   UNL     1       2.475   4.041  19.669  0.00  0.00    +0.000 C 
ATOM      8  C   UNL     1       2.984   5.461  19.415  0.00  0.00    +0.000 C 
ATOM      9  H   UNL     1       5.359   7.028  18.784  0.00  0.00    +0.000 HD
BRANCH   7  10
ATOM     10  S   UNL     1       1.520   3.261  18.381  0.00  0.00    +0.000 S 
ATOM     11  C   UNL     1       2.624   2.191  17.500  0.00  0.00    +0.000 C 
ATOM     12  O   UNL     1       0.514   2.409  19.006  0.00  0.00    +0.000 OA
ATOM     13  O   UNL     1       1.101   4.285  17.445  0.00  0.00    +0.000 OA
ENDBRANCH   7  10
ENDBRANCH   1   2
BRANCH   1  15
ATOM     14  C   UNL     1       8.047   6.502  18.849  0.00  0.00    +0.000 C 
ATOM     15  C   UNL     1       7.755   7.227  17.532  0.00  0.00    +0.000 C 
BRANCH  15  16
ATOM     16  C   UNL     1       7.824   8.752  17.747  0.00  0.00    +0.000 C 
BRANCH  16  17
ATOM     17  O   UNL     1       8.961   9.071  18.554  0.00  0.00    +0.000 OA
BRANCH  17  18
ATOM     18  C   UNL     1       8.821  10.337  19.209  0.00  0.00    +0.000 C 
BRANCH  18  19
ATOM     19  C   UNL     1       9.966  11.255  18.846  0.00  0.00    +0.000 A 
ATOM     20  C   UNL     1      11.118  11.302  19.647  0.00  0.00    +0.000 A 
ATOM     21  C   UNL     1      12.181  12.148  19.320  0.00  0.00    +0.000 A 
ATOM     22  C   UNL     1      12.113  12.946  18.179  0.00  0.00    +0.000 A 
ATOM     23  C   UNL     1      10.991  12.883  17.356  0.00  0.00    +0.000 A 
ATOM     24  C   UNL     1       9.930  12.037  17.683  0.00  0.00    +0.000 A 
ENDBRANCH  18  19
ENDBRANCH  17  18
ENDBRANCH  16  17
ENDBRANCH  15  16
ENDBRANCH   1  15
TORSDOF 7
ENDMDL
MODEL 9
REMARK VINA RESULT:      -6.8      3.519      6.504
REMARK  Name = 
REMARK  9 active torsions:
REMARK  status: ('A' for Active; 'I' for Inactive)
REMARK    1  A    between atoms: C_1  and  C_2
REMARK    2  A    between atoms: C_2  and  C_3
REMARK    3  A    between atoms: C_2  and  C_15
REMARK    4  A    between atoms: C_3  and  N_4
REMARK    5  A    between atoms: C_9  and  S_10
REMARK    6  A    between atoms: S_10  and  C_11
REMARK    7  A    between atoms: C_15  and  O_16
REMARK    8  A    between atoms: O_16  and  C_17
REMARK    9  A    between atoms: C_17  and  C_18
REMARK                            x       y       z     vdW  Elec       q    Type
REMARK                         _______ _______ _______ _____ _____    ______ ____
ROOT
ATOM      1  C   UNL     1       6.080   6.934  17.419  0.00  0.00    +0.000 C 
ENDROOT
BRANCH   1   2
ATOM      2  N   UNL     1       5.762   5.660  18.054  0.00  0.00    +0.000 N 
ATOM      3  C   UNL     1       4.836   4.829  17.467  0.00  0.00    +0.000 C 
ATOM      4  O   UNL     1       4.211   5.116  16.453  0.00  0.00    +0.000 OA
ATOM      5  N   UNL     1       4.674   3.631  18.128  0.00  0.00    +0.000 N 
ATOM      6  C   UNL     1       3.752   2.562  17.738  0.00  0.00    +0.000 C 
ATOM      7  C   UNL     1       3.290   2.512  19.189  0.00  0.00    +0.000 C 
ATOM      8  C   UNL     1       4.462   3.422  19.560  0.00  0.00    +0.000 C 
ATOM      9  H   UNL     1       6.535   5.150  18.461  0.00  0.00    +0.000 HD
BRANCH   7  10
ATOM     10  S   UNL     1       1.640   3.125  19.481  0.00  0.00    +0.000 S 
ATOM     11  C   UNL     1       1.320   2.929  21.213  0.00  0.00    +0.000 C 
ATOM     12  O   UNL     1       1.626   4.558  19.207  0.00  0.00    +0.000 OA
ATOM     13  O   UNL     1       0.707   2.259  18.787  0.00  0.00    +0.000 OA
ENDBRANCH   7  10
ENDBRANCH   1   2
BRANCH   1  15
ATOM     14  C   UNL     1       8.181   6.717  18.832  0.00  0.00    +0.000 C 
ATOM     15  C   UNL     1       7.546   7.364  17.598  0.00  0.00    +0.000 C 
BRANCH  15  16
ATOM     16  C   UNL     1       7.653   8.898  17.697  0.00  0.00    +0.000 C 
BRANCH  16  17
ATOM     17  O   UNL     1       8.710   9.247  18.596  0.00  0.00    +0.000 OA
BRANCH  17  18
ATOM     18  C   UNL     1       9.423  10.413  18.166  0.00  0.00    +0.000 C 
BRANCH  18  19
ATOM     19  C   UNL     1       9.557  11.405  19.299  0.00  0.00    +0.000 A 
ATOM     20  C   UNL     1       9.297  11.010  20.621  0.00  0.00    +0.000 A 
ATOM     21  C   UNL     1       9.418  11.920  21.674  0.00  0.00    +0.000 A 
ATOM     22  C   UNL     1       9.817  13.231  21.422  0.00  0.00    +0.000 A 
ATOM     23  C   UNL     1      10.113  13.627  20.120  0.00  0.00    +0.000 A 
ATOM     24  C   UNL     1       9.992  12.718  19.068  0.00  0.00    +0.000 A 
ENDBRANCH  18  19
ENDBRANCH  17  18
ENDBRANCH  16  17
ENDBRANCH  15  16
ENDBRANCH   1  15
TORSDOF 7
ENDMDL
