MODEL 1
REMARK VINA RESULT:      -8.4      0.000      0.000
REMARK  Name = 
REMARK  13 active torsions:
REMARK  status: ('A' for Active; 'I' for Inactive)
REMARK    1  A    between atoms: C_1  and  C_2
REMARK    2  A    between atoms: C_2  and  C_3
REMARK    3  A    between atoms: C_2  and  C_4
REMARK    4  A    between atoms: C_4  and  C_5
REMARK    5  A    between atoms: C_5  and  N_6
REMARK    6  A    between atoms: C_5  and  C_17
REMARK    7  A    between atoms: C_7  and  O_9
REMARK    8  A    between atoms: O_9  and  C_10
REMARK    9  A    between atoms: C_10  and  C_11
REMARK   10  A    between atoms: N_19  and  C_20
REMARK   11  A    between atoms: C_20  and  C_21
REMARK   12  A    between atoms: C_20  and  C_23
REMARK   13  A    between atoms: C_23  and  C_24
REMARK                            x       y       z     vdW  Elec       q    Type
REMARK                         _______ _______ _______ _____ _____    ______ ____
ROOT
ATOM      1  C   UNL     1       6.113   6.821  16.708  0.00  0.00    +0.000 C 
ENDROOT
BRANCH   1   2
ATOM      2  N   UNL     1       7.111   7.707  17.295  0.00  0.00    +0.000 N 
ATOM      3  C   UNL     1       7.962   7.332  18.291  0.00  0.00    +0.000 C 
ATOM      4  O   UNL     1       7.990   6.214  18.787  0.00  0.00    +0.000 OA
ATOM      5  H   UNL     1       7.193   8.663  16.968  0.00  0.00    +0.000 HD
BRANCH   3   6
ATOM      6  O   UNL     1       8.715   8.382  18.676  0.00  0.00    +0.000 OA
BRANCH   6   7
ATOM      7  C   UNL     1       8.484   9.602  17.957  0.00  0.00    +0.000 C 
BRANCH   7   8
ATOM      8  C   UNL     1       9.152  10.749  18.667  0.00  0.00    +0.000 A 
ATOM      9  C   UNL     1       9.555  10.630  20.004  0.00  0.00    +0.000 A 
ATOM     10  C   UNL     1      10.173  11.699  20.656  0.00  0.00    +0.000 A 
ATOM     11  C   UNL     1      10.389  12.898  19.979  0.00  0.00    +0.000 A 
ATOM     12  C   UNL     1       9.992  13.029  18.649  0.00  0.00    +0.000 A 
ATOM     13  C   UNL     1       9.373  11.960  17.997  0.00  0.00    +0.000 A 
ENDBRANCH   7   8
ENDBRANCH   6   7
ENDBRANCH   3   6
ENDBRANCH   1   2
BRANCH   1  14
ATOM     14  C   UNL     1       4.966   6.582  17.728  0.00  0.00    +0.000 C 
ATOM     15  O   UNL     1       4.999   5.653  18.532  0.00  0.00    +0.000 OA
ATOM     16  N   UNL     1       3.863   7.393  17.556  0.00  0.00    +0.000 N 
ATOM     17  H   UNL     1       3.765   7.737  16.603  0.00  0.00    +0.000 HD
BRANCH  16  18
ATOM     18  C   UNL     1       2.594   7.181  18.262  0.00  0.00    +0.000 C 
BRANCH  18  19
ATOM     19  C   UNL     1       1.933   8.542  18.550  0.00  0.00    +0.000 C 
ATOM     20  F   UNL     1       1.246   8.961  17.450  0.00  0.00    +0.000 F 
ENDBRANCH  18  19
BRANCH  18  21
ATOM     21  C   UNL     1       2.754   6.366  19.569  0.00  0.00    +0.000 C 
BRANCH  21  22
ATOM     22  C   UNL     1       1.992   5.059  19.488  0.00  0.00    +0.000 A 
ATOM     23  C   UNL     1       1.566   4.421  20.663  0.00  0.00    +0.000 A 
ATOM     24  C   UNL     1       1.041   3.130  20.615  0.00  0.00    +0.000 A 
ATOM     25  C   UNL     1       0.907   2.479  19.391  0.00  0.00    +0.000 A 
ATOM     26  C   UNL     1       1.272   3.126  18.212  0.00  0.00    +0.000 A 
ATOM     27  C   UNL     1       1.810   4.414  18.258  0.00  0.00    +0.000 A 
ENDBRANCH  21  22
ENDBRANCH  18  21
ENDBRANCH  16  18
ENDBRANCH   1  14
BRANCH   1  28
ATOM     28  C   UNL     1       6.746   5.542  16.119  0.00  0.00    +0.000 C 
BRANCH  28  30
ATOM     29  C   UNL     1       6.515   4.311  13.900  0.00  0.00    +0.000 C 
ATOM     30  C   UNL     1       5.823   4.713  15.201  0.00  0.00    +0.000 C 
ATOM     31  C   UNL     1       5.328   3.477  15.957  0.00  0.00    +0.000 C 
ENDBRANCH  28  30
ENDBRANCH   1  28
TORSDOF 11
ENDMDL
MODEL 2
REMARK VINA RESULT:      -8.4      3.844      6.791
REMARK  Name = 
REMARK  13 active torsions:
REMARK  status: ('A' for Active; 'I' for Inactive)
REMARK    1  A    between atoms: C_1  and  C_2
REMARK    2  A    between atoms: C_2  and  C_3
REMARK    3  A    between atoms: C_2  and  C_4
REMARK    4  A    between atoms: C_4  and  C_5
REMARK    5  A    between atoms: C_5  and  N_6
REMARK    6  A    between atoms: C_5  and  C_17
REMARK    7  A    between atoms: C_7  and  O_9
REMARK    8  A    between atoms: O_9  and  C_10
REMARK    9  A    between atoms: C_10  and  C_11
REMARK   10  A    between atoms: N_19  and  C_20
REMARK   11  A    between atoms: C_20  and  C_21
REMARK   12  A    between atoms: C_20  and  C_23
REMARK   13  A    between atoms: C_23  and  C_24
REMARK                            x       y       z     vdW  Elec       q    Type
REMARK                         _______ _______ _______ _____ _____    ______ ____
ROOT
ATOM      1  C   UNL     1       2.668   5.568  19.841  0.00  0.00    +0.000 C 
ENDROOT
BRANCH   1   2
ATOM      2  N   UNL     1       4.125   5.525  19.859  0.00  0.00    +0.000 N 
ATOM      3  C   UNL     1       4.860   4.538  19.273  0.00  0.00    +0.000 C 
ATOM      4  O   UNL     1       4.379   3.595  18.660  0.00  0.00    +0.000 OA
ATOM      5  H   UNL     1       4.646   6.254  20.333  0.00  0.00    +0.000 HD
BRANCH   3   6
ATOM      6  O   UNL     1       6.172   4.729  19.519  0.00  0.00    +0.000 OA
BRANCH   6   7
ATOM      7  C   UNL     1       6.802   5.754  18.736  0.00  0.00    +0.000 C 
BRANCH   7   8
ATOM      8  C   UNL     1       6.503   5.540  17.276  0.00  0.00    +0.000 A 
ATOM      9  C   UNL     1       7.151   4.532  16.550  0.00  0.00    +0.000 A 
ATOM     10  C   UNL     1       6.869   4.341  15.196  0.00  0.00    +0.000 A 
ATOM     11  C   UNL     1       5.940   5.158  14.555  0.00  0.00    +0.000 A 
ATOM     12  C   UNL     1       5.289   6.166  15.267  0.00  0.00    +0.000 A 
ATOM     13  C   UNL     1       5.572   6.358  16.620  0.00  0.00    +0.000 A 
ENDBRANCH   7   8
ENDBRANCH   6   7
ENDBRANCH   3   6
ENDBRANCH   1   2
BRANCH   1  14
ATOM     14  C   UNL     1       2.193   7.044  19.759  0.00  0.00    +0.000 C 
ATOM     15  O   UNL     1       2.483   7.765  18.806  0.00  0.00    +0.000 OA
ATOM     16  N   UNL     1       1.558   7.510  20.892  0.00  0.00    +0.000 N 
ATOM     17  H   UNL     1       1.825   7.005  21.735  0.00  0.00    +0.000 HD
BRANCH  16  18
ATOM     18  C   UNL     1       1.235   8.925  21.105  0.00  0.00    +0.000 C 
BRANCH  18  19
ATOM     19  C   UNL     1       1.318   9.250  22.609  0.00  0.00    +0.000 C 
ATOM     20  F   UNL     1       0.062   9.328  23.132  0.00  0.00    +0.000 F 
ENDBRANCH  18  19
BRANCH  18  21
ATOM     21  C   UNL     1      -0.149   9.325  20.538  0.00  0.00    +0.000 C 
BRANCH  21  22
ATOM     22  C   UNL     1      -0.126  10.744  20.007  0.00  0.00    +0.000 A 
ATOM     23  C   UNL     1      -1.260  11.559  20.132  0.00  0.00    +0.000 A 
ATOM     24  C   UNL     1      -1.322  12.789  19.478  0.00  0.00    +0.000 A 
ATOM     25  C   UNL     1      -0.239  13.230  18.722  0.00  0.00    +0.000 A 
ATOM     26  C   UNL     1       0.917  12.455  18.640  0.00  0.00    +0.000 A 
ATOM     27  C   UNL     1       0.976  11.217  19.282  0.00  0.00    +0.000 A 
ENDBRANCH  21  22
ENDBRANCH  18  21
ENDBRANCH  16  18
ENDBRANCH   1  14
BRANCH   1  28
ATOM     28  C   UNL     1       2.049   4.741  20.988  0.00  0.00    +0.000 C 
BRANCH  28  30
ATOM     29  C   UNL     1       1.434   2.448  21.915  0.00  0.00    +0.000 C 
ATOM     30  C   UNL     1       1.813   3.249  20.670  0.00  0.00    +0.000 C 
ATOM     31  C   UNL     1       0.732   3.121  19.593  0.00  0.00    +0.000 C 
ENDBRANCH  28  30
ENDBRANCH   1  28
TORSDOF 11
ENDMDL
MODEL 3
REMARK VINA RESULT:      -8.4      3.915      6.824
REMARK  Name = 
REMARK  13 active torsions:
REMARK  status: ('A' for Active; 'I' for Inactive)
REMARK    1  A    between atoms: C_1  and  C_2
REMARK    2  A    between atoms: C_2  and  C_3
REMARK    3  A    between atoms: C_2  and  C_4
REMARK    4  A    between atoms: C_4  and  C_5
REMARK    5  A    between atoms: C_5  and  N_6
REMARK    6  A    between atoms: C_5  and  C_17
REMARK    7  A    between atoms: C_7  and  O_9
REMARK    8  A    between atoms: O_9  and  C_10
REMARK    9  A    between atoms: C_10  and  C_11
REMARK   10  A    between atoms: N_19  and  C_20
REMARK   11  A    between atoms: C_20  and  C_21
REMARK   12  A    between atoms: C_20  and  C_23
REMARK   13  A    between atoms: C_23  and  C_24
REMARK                            x       y       z     vdW  Elec       q    Type
REMARK                         _______ _______ _______ _____ _____    ______ ____
ROOT
ATOM      1  C   UNL     1       2.642   5.534  19.915  0.00  0.00    +0.000 C 
ENDROOT
BRANCH   1   2
ATOM      2  N   UNL     1       4.092   5.388  19.869  0.00  0.00    +0.000 N 
ATOM      3  C   UNL     1       4.727   4.323  19.302  0.00  0.00    +0.000 C 
ATOM      4  O   UNL     1       4.152   3.389  18.762  0.00  0.00    +0.000 OA
ATOM      5  H   UNL     1       4.685   6.100  20.280  0.00  0.00    +0.000 HD
BRANCH   3   6
ATOM      6  O   UNL     1       6.059   4.432  19.477  0.00  0.00    +0.000 OA
BRANCH   6   7
ATOM      7  C   UNL     1       6.680   5.538  18.805  0.00  0.00    +0.000 C 
BRANCH   7   8
ATOM      8  C   UNL     1       6.441   5.437  17.322  0.00  0.00    +0.000 A 
ATOM      9  C   UNL     1       5.502   6.261  16.688  0.00  0.00    +0.000 A 
ATOM     10  C   UNL     1       5.285   6.160  15.312  0.00  0.00    +0.000 A 
ATOM     11  C   UNL     1       6.001   5.230  14.560  0.00  0.00    +0.000 A 
ATOM     12  C   UNL     1       6.936   4.403  15.180  0.00  0.00    +0.000 A 
ATOM     13  C   UNL     1       7.153   4.504  16.556  0.00  0.00    +0.000 A 
ENDBRANCH   7   8
ENDBRANCH   6   7
ENDBRANCH   3   6
ENDBRANCH   1   2
BRANCH   1  14
ATOM     14  C   UNL     1       2.259   7.012  19.630  0.00  0.00    +0.000 C 
ATOM     15  O   UNL     1       2.668   7.605  18.633  0.00  0.00    +0.000 OA
ATOM     16  N   UNL     1       1.561   7.634  20.644  0.00  0.00    +0.000 N 
ATOM     17  H   UNL     1       1.727   7.216  21.557  0.00  0.00    +0.000 HD
BRANCH  16  18
ATOM     18  C   UNL     1       1.301   9.077  20.671  0.00  0.00    +0.000 C 
BRANCH  18  19
ATOM     19  C   UNL     1       0.821   9.487  22.077  0.00  0.00    +0.000 C 
ATOM     20  F   UNL     1       1.807   9.247  22.986  0.00  0.00    +0.000 F 
ENDBRANCH  18  19
BRANCH  18  21
ATOM     21  C   UNL     1       0.284   9.533  19.596  0.00  0.00    +0.000 C 
BRANCH  21  22
ATOM     22  C   UNL     1       0.661  10.891  19.038  0.00  0.00    +0.000 A 
ATOM     23  C   UNL     1       1.941  11.101  18.505  0.00  0.00    +0.000 A 
ATOM     24  C   UNL     1       2.366  12.386  18.171  0.00  0.00    +0.000 A 
ATOM     25  C   UNL     1       1.503  13.468  18.335  0.00  0.00    +0.000 A 
ATOM     26  C   UNL     1       0.208  13.263  18.807  0.00  0.00    +0.000 A 
ATOM     27  C   UNL     1      -0.215  11.978  19.155  0.00  0.00    +0.000 A 
ENDBRANCH  21  22
ENDBRANCH  18  21
ENDBRANCH  16  18
ENDBRANCH   1  14
BRANCH   1  28
ATOM     28  C   UNL     1       2.040   4.936  21.205  0.00  0.00    +0.000 C 
BRANCH  28  30
ATOM     29  C   UNL     1       0.896   3.334  19.586  0.00  0.00    +0.000 C 
ATOM     30  C   UNL     1       1.330   3.577  21.031  0.00  0.00    +0.000 C 
ATOM     31  C   UNL     1       2.250   2.455  21.518  0.00  0.00    +0.000 C 
ENDBRANCH  28  30
ENDBRANCH   1  28
TORSDOF 11
ENDMDL
MODEL 4
REMARK VINA RESULT:      -8.4      0.615      1.203
REMARK  Name = 
REMARK  13 active torsions:
REMARK  status: ('A' for Active; 'I' for Inactive)
REMARK    1  A    between atoms: C_1  and  C_2
REMARK    2  A    between atoms: C_2  and  C_3
REMARK    3  A    between atoms: C_2  and  C_4
REMARK    4  A    between atoms: C_4  and  C_5
REMARK    5  A    between atoms: C_5  and  N_6
REMARK    6  A    between atoms: C_5  and  C_17
REMARK    7  A    between atoms: C_7  and  O_9
REMARK    8  A    between atoms: O_9  and  C_10
REMARK    9  A    between atoms: C_10  and  C_11
REMARK   10  A    between atoms: N_19  and  C_20
REMARK   11  A    between atoms: C_20  and  C_21
REMARK   12  A    between atoms: C_20  and  C_23
REMARK   13  A    between atoms: C_23  and  C_24
REMARK                            x       y       z     vdW  Elec       q    Type
REMARK                         _______ _______ _______ _____ _____    ______ ____
ROOT
ATOM      1  C   UNL     1       6.386   6.443  16.864  0.00  0.00    +0.000 C 
ENDROOT
BRANCH   1   2
ATOM      2  N   UNL     1       7.267   7.505  17.334  0.00  0.00    +0.000 N 
ATOM      3  C   UNL     1       8.083   7.386  18.420  0.00  0.00    +0.000 C 
ATOM      4  O   UNL     1       8.174   6.376  19.103  0.00  0.00    +0.000 OA
ATOM      5  H   UNL     1       7.288   8.396  16.851  0.00  0.00    +0.000 HD
BRANCH   3   6
ATOM      6  O   UNL     1       8.719   8.552  18.652  0.00  0.00    +0.000 OA
BRANCH   6   7
ATOM      7  C   UNL     1       8.204   9.686  17.939  0.00  0.00    +0.000 C 
BRANCH   7   8
ATOM      8  C   UNL     1       9.049  10.899  18.227  0.00  0.00    +0.000 A 
ATOM      9  C   UNL     1       8.705  12.154  17.709  0.00  0.00    +0.000 A 
ATOM     10  C   UNL     1       9.495  13.273  17.980  0.00  0.00    +0.000 A 
ATOM     11  C   UNL     1      10.637  13.146  18.767  0.00  0.00    +0.000 A 
ATOM     12  C   UNL     1      10.991  11.901  19.287  0.00  0.00    +0.000 A 
ATOM     13  C   UNL     1      10.202  10.782  19.016  0.00  0.00    +0.000 A 
ENDBRANCH   7   8
ENDBRANCH   6   7
ENDBRANCH   3   6
ENDBRANCH   1   2
BRANCH   1  14
ATOM     14  C   UNL     1       5.153   6.338  17.802  0.00  0.00    +0.000 C 
ATOM     15  O   UNL     1       5.075   5.475  18.674  0.00  0.00    +0.000 OA
ATOM     16  N   UNL     1       4.109   7.181  17.479  0.00  0.00    +0.000 N 
ATOM     17  H   UNL     1       4.104   7.452  16.498  0.00  0.00    +0.000 HD
BRANCH  16  18
ATOM     18  C   UNL     1       2.780   7.083  18.092  0.00  0.00    +0.000 C 
BRANCH  18  19
ATOM     19  C   UNL     1       2.151   8.486  18.183  0.00  0.00    +0.000 C 
ATOM     20  F   UNL     1       1.065   8.556  17.362  0.00  0.00    +0.000 F 
ENDBRANCH  18  19
BRANCH  18  21
ATOM     21  C   UNL     1       2.801   6.406  19.485  0.00  0.00    +0.000 C 
BRANCH  21  22
ATOM     22  C   UNL     1       2.025   5.104  19.465  0.00  0.00    +0.000 A 
ATOM     23  C   UNL     1       1.694   4.467  20.669  0.00  0.00    +0.000 A 
ATOM     24  C   UNL     1       1.157   3.179  20.663  0.00  0.00    +0.000 A 
ATOM     25  C   UNL     1       0.915   2.533  19.453  0.00  0.00    +0.000 A 
ATOM     26  C   UNL     1       1.186   3.181  18.249  0.00  0.00    +0.000 A 
ATOM     27  C   UNL     1       1.735   4.465  18.253  0.00  0.00    +0.000 A 
ENDBRANCH  21  22
ENDBRANCH  18  21
ENDBRANCH  16  18
ENDBRANCH   1  14
BRANCH   1  28
ATOM     28  C   UNL     1       7.147   5.121  16.627  0.00  0.00    +0.000 C 
BRANCH  28  30
ATOM     29  C   UNL     1       5.146   3.978  15.537  0.00  0.00    +0.000 C 
ATOM     30  C   UNL     1       6.642   4.275  15.438  0.00  0.00    +0.000 C 
ATOM     31  C   UNL     1       6.967   4.994  14.126  0.00  0.00    +0.000 C 
ENDBRANCH  28  30
ENDBRANCH   1  28
TORSDOF 11
ENDMDL
MODEL 5
REMARK VINA RESULT:      -8.2      1.052      1.179
REMARK  Name = 
REMARK  13 active torsions:
REMARK  status: ('A' for Active; 'I' for Inactive)
REMARK    1  A    between atoms: C_1  and  C_2
REMARK    2  A    between atoms: C_2  and  C_3
REMARK    3  A    between atoms: C_2  and  C_4
REMARK    4  A    between atoms: C_4  and  C_5
REMARK    5  A    between atoms: C_5  and  N_6
REMARK    6  A    between atoms: C_5  and  C_17
REMARK    7  A    between atoms: C_7  and  O_9
REMARK    8  A    between atoms: O_9  and  C_10
REMARK    9  A    between atoms: C_10  and  C_11
REMARK   10  A    between atoms: N_19  and  C_20
REMARK   11  A    between atoms: C_20  and  C_21
REMARK   12  A    between atoms: C_20  and  C_23
REMARK   13  A    between atoms: C_23  and  C_24
REMARK                            x       y       z     vdW  Elec       q    Type
REMARK                         _______ _______ _______ _____ _____    ______ ____
ROOT
ATOM      1  C   UNL     1       5.935   6.321  16.088  0.00  0.00    +0.000 C 
ENDROOT
BRANCH   1   2
ATOM      2  N   UNL     1       6.759   7.251  16.851  0.00  0.00    +0.000 N 
ATOM      3  C   UNL     1       7.546   6.879  17.900  0.00  0.00    +0.000 C 
ATOM      4  O   UNL     1       7.657   5.729  18.302  0.00  0.00    +0.000 OA
ATOM      5  H   UNL     1       6.760   8.236  16.614  0.00  0.00    +0.000 HD
BRANCH   3   6
ATOM      6  O   UNL     1       8.129   7.964  18.449  0.00  0.00    +0.000 OA
BRANCH   6   7
ATOM      7  C   UNL     1       8.170   9.130  17.614  0.00  0.00    +0.000 C 
BRANCH   7   8
ATOM      8  C   UNL     1       8.781  10.280  18.370  0.00  0.00    +0.000 A 
ATOM      9  C   UNL     1       9.367  10.082  19.627  0.00  0.00    +0.000 A 
ATOM     10  C   UNL     1       9.930  11.154  20.322  0.00  0.00    +0.000 A 
ATOM     11  C   UNL     1       9.907  12.433  19.769  0.00  0.00    +0.000 A 
ATOM     12  C   UNL     1       9.325  12.642  18.520  0.00  0.00    +0.000 A 
ATOM     13  C   UNL     1       8.762  11.571  17.824  0.00  0.00    +0.000 A 
ENDBRANCH   7   8
ENDBRANCH   6   7
ENDBRANCH   3   6
ENDBRANCH   1   2
BRANCH   1  14
ATOM     14  C   UNL     1       4.724   5.872  16.951  0.00  0.00    +0.000 C 
ATOM     15  O   UNL     1       4.248   4.742  16.859  0.00  0.00    +0.000 OA
ATOM     16  N   UNL     1       4.147   6.875  17.703  0.00  0.00    +0.000 N 
ATOM     17  H   UNL     1       4.306   7.804  17.317  0.00  0.00    +0.000 HD
BRANCH  16  18
ATOM     18  C   UNL     1       2.869   6.717  18.406  0.00  0.00    +0.000 C 
BRANCH  18  19
ATOM     19  C   UNL     1       2.204   8.095  18.579  0.00  0.00    +0.000 C 
ATOM     20  F   UNL     1       1.710   8.520  17.382  0.00  0.00    +0.000 F 
ENDBRANCH  18  19
BRANCH  18  21
ATOM     21  C   UNL     1       3.012   6.006  19.774  0.00  0.00    +0.000 C 
BRANCH  21  22
ATOM     22  C   UNL     1       2.578   4.557  19.679  0.00  0.00    +0.000 A 
ATOM     23  C   UNL     1       3.490   3.531  19.965  0.00  0.00    +0.000 A 
ATOM     24  C   UNL     1       3.166   2.202  19.693  0.00  0.00    +0.000 A 
ATOM     25  C   UNL     1       1.917   1.885  19.165  0.00  0.00    +0.000 A 
ATOM     26  C   UNL     1       0.981   2.891  18.933  0.00  0.00    +0.000 A 
ATOM     27  C   UNL     1       1.307   4.224  19.192  0.00  0.00    +0.000 A 
ENDBRANCH  21  22
ENDBRANCH  18  21
ENDBRANCH  16  18
ENDBRANCH   1  14
BRANCH   1  28
ATOM     28  C   UNL     1       6.768   5.174  15.477  0.00  0.00    +0.000 C 
BRANCH  28  30
ATOM     29  C   UNL     1       7.900   5.246  13.195  0.00  0.00    +0.000 C 
ATOM     30  C   UNL     1       6.602   4.978  13.955  0.00  0.00    +0.000 C 
ATOM     31  C   UNL     1       6.091   3.563  13.675  0.00  0.00    +0.000 C 
ENDBRANCH  28  30
ENDBRANCH   1  28
TORSDOF 11
ENDMDL
MODEL 6
REMARK VINA RESULT:      -8.2      4.178      7.920
REMARK  Name = 
REMARK  13 active torsions:
REMARK  status: ('A' for Active; 'I' for Inactive)
REMARK    1  A    between atoms: C_1  and  C_2
REMARK    2  A    between atoms: C_2  and  C_3
REMARK    3  A    between atoms: C_2  and  C_4
REMARK    4  A    between atoms: C_4  and  C_5
REMARK    5  A    between atoms: C_5  and  N_6
REMARK    6  A    between atoms: C_5  and  C_17
REMARK    7  A    between atoms: C_7  and  O_9
REMARK    8  A    between atoms: O_9  and  C_10
REMARK    9  A    between atoms: C_10  and  C_11
REMARK   10  A    between atoms: N_19  and  C_20
REMARK   11  A    between atoms: C_20  and  C_21
REMARK   12  A    between atoms: C_20  and  C_23
REMARK   13  A    between atoms: C_23  and  C_24
REMARK                            x       y       z     vdW  Elec       q    Type
REMARK                         _______ _______ _______ _____ _____    ______ ____
ROOT
ATOM      1  C   UNL     1       3.148   6.152  18.279  0.00  0.00    +0.000 C 
ENDROOT
BRANCH   1   2
ATOM      2  N   UNL     1       2.510   7.398  17.874  0.00  0.00    +0.000 N 
ATOM      3  C   UNL     1       1.923   8.266  18.747  0.00  0.00    +0.000 C 
ATOM      4  O   UNL     1       1.882   8.100  19.957  0.00  0.00    +0.000 OA
ATOM      5  H   UNL     1       2.479   7.655  16.894  0.00  0.00    +0.000 HD
BRANCH   3   6
ATOM      6  O   UNL     1       1.356   9.287  18.073  0.00  0.00    +0.000 OA
BRANCH   6   7
ATOM      7  C   UNL     1       0.785  10.321  18.889  0.00  0.00    +0.000 C 
BRANCH   7   8
ATOM      8  C   UNL     1      -0.654  10.540  18.504  0.00  0.00    +0.000 A 
ATOM      9  C   UNL     1      -1.248   9.785  17.484  0.00  0.00    +0.000 A 
ATOM     10  C   UNL     1      -2.583   9.995  17.132  0.00  0.00    +0.000 A 
ATOM     11  C   UNL     1      -3.334  10.964  17.795  0.00  0.00    +0.000 A 
ATOM     12  C   UNL     1      -2.754  11.722  18.811  0.00  0.00    +0.000 A 
ATOM     13  C   UNL     1      -1.419  11.513  19.162  0.00  0.00    +0.000 A 
ENDBRANCH   7   8
ENDBRANCH   6   7
ENDBRANCH   3   6
ENDBRANCH   1   2
BRANCH   1  14
ATOM     14  C   UNL     1       4.610   6.122  17.754  0.00  0.00    +0.000 C 
ATOM     15  O   UNL     1       5.189   7.145  17.395  0.00  0.00    +0.000 OA
ATOM     16  N   UNL     1       5.137   4.858  17.587  0.00  0.00    +0.000 N 
ATOM     17  H   UNL     1       4.426   4.145  17.441  0.00  0.00    +0.000 HD
BRANCH  16  18
ATOM     18  C   UNL     1       6.407   4.604  16.897  0.00  0.00    +0.000 C 
BRANCH  18  19
ATOM     19  C   UNL     1       7.556   4.596  17.923  0.00  0.00    +0.000 C 
ATOM     20  F   UNL     1       7.991   5.869  18.136  0.00  0.00    +0.000 F 
ENDBRANCH  18  19
BRANCH  18  21
ATOM     21  C   UNL     1       6.697   5.618  15.764  0.00  0.00    +0.000 C 
BRANCH  21  22
ATOM     22  C   UNL     1       6.535   4.970  14.404  0.00  0.00    +0.000 A 
ATOM     23  C   UNL     1       5.466   4.093  14.168  0.00  0.00    +0.000 A 
ATOM     24  C   UNL     1       5.415   3.342  12.994  0.00  0.00    +0.000 A 
ATOM     25  C   UNL     1       6.413   3.485  12.032  0.00  0.00    +0.000 A 
ATOM     26  C   UNL     1       7.448   4.397  12.231  0.00  0.00    +0.000 A 
ATOM     27  C   UNL     1       7.509   5.141  13.411  0.00  0.00    +0.000 A 
ENDBRANCH  21  22
ENDBRANCH  18  21
ENDBRANCH  16  18
ENDBRANCH   1  14
BRANCH   1  28
ATOM     28  C   UNL     1       2.294   4.918  17.917  0.00  0.00    +0.000 C 
BRANCH  28  30
ATOM     29  C   UNL     1       1.479   4.630  20.314  0.00  0.00    +0.000 C 
ATOM     30  C   UNL     1       2.039   3.931  19.076  0.00  0.00    +0.000 C 
ATOM     31  C   UNL     1       1.094   2.823  18.604  0.00  0.00    +0.000 C 
ENDBRANCH  28  30
ENDBRANCH   1  28
TORSDOF 11
ENDMDL
MODEL 7
REMARK VINA RESULT:      -8.2      3.879      7.276
REMARK  Name = 
REMARK  13 active torsions:
REMARK  status: ('A' for Active; 'I' for Inactive)
REMARK    1  A    between atoms: C_1  and  C_2
REMARK    2  A    between atoms: C_2  and  C_3
REMARK    3  A    between atoms: C_2  and  C_4
REMARK    4  A    between atoms: C_4  and  C_5
REMARK    5  A    between atoms: C_5  and  N_6
REMARK    6  A    between atoms: C_5  and  C_17
REMARK    7  A    between atoms: C_7  and  O_9
REMARK    8  A    between atoms: O_9  and  C_10
REMARK    9  A    between atoms: C_10  and  C_11
REMARK   10  A    between atoms: N_19  and  C_20
REMARK   11  A    between atoms: C_20  and  C_21
REMARK   12  A    between atoms: C_20  and  C_23
REMARK   13  A    between atoms: C_23  and  C_24
REMARK                            x       y       z     vdW  Elec       q    Type
REMARK                         _______ _______ _______ _____ _____    ______ ____
ROOT
ATOM      1  C   UNL     1       3.602   4.882  19.744  0.00  0.00    +0.000 C 
ENDROOT
BRANCH   1   2
ATOM      2  N   UNL     1       2.963   6.141  20.106  0.00  0.00    +0.000 N 
ATOM      3  C   UNL     1       2.469   7.028  19.196  0.00  0.00    +0.000 C 
ATOM      4  O   UNL     1       2.495   6.856  17.986  0.00  0.00    +0.000 OA
ATOM      5  H   UNL     1       2.875   6.401  21.082  0.00  0.00    +0.000 HD
BRANCH   3   6
ATOM      6  O   UNL     1       2.008   8.128  19.824  0.00  0.00    +0.000 OA
BRANCH   6   7
ATOM      7  C   UNL     1       1.336   7.889  21.070  0.00  0.00    +0.000 C 
BRANCH   7   8
ATOM      8  C   UNL     1       0.599   9.130  21.500  0.00  0.00    +0.000 A 
ATOM      9  C   UNL     1      -0.078   9.175  22.726  0.00  0.00    +0.000 A 
ATOM     10  C   UNL     1      -0.761  10.329  23.116  0.00  0.00    +0.000 A 
ATOM     11  C   UNL     1      -0.776  11.445  22.282  0.00  0.00    +0.000 A 
ATOM     12  C   UNL     1      -0.107  11.412  21.059  0.00  0.00    +0.000 A 
ATOM     13  C   UNL     1       0.575  10.258  20.668  0.00  0.00    +0.000 A 
ENDBRANCH   7   8
ENDBRANCH   6   7
ENDBRANCH   3   6
ENDBRANCH   1   2
BRANCH   1  14
ATOM     14  C   UNL     1       5.014   5.163  19.162  0.00  0.00    +0.000 C 
ATOM     15  O   UNL     1       5.970   5.431  19.887  0.00  0.00    +0.000 OA
ATOM     16  N   UNL     1       5.067   5.234  17.785  0.00  0.00    +0.000 N 
ATOM     17  H   UNL     1       4.176   5.487  17.364  0.00  0.00    +0.000 HD
BRANCH  16  18
ATOM     18  C   UNL     1       6.246   5.707  17.052  0.00  0.00    +0.000 C 
BRANCH  18  19
ATOM     19  C   UNL     1       5.810   6.730  15.985  0.00  0.00    +0.000 C 
ATOM     20  F   UNL     1       4.471   6.616  15.760  0.00  0.00    +0.000 F 
ENDBRANCH  18  19
BRANCH  18  21
ATOM     21  C   UNL     1       7.061   4.561  16.405  0.00  0.00    +0.000 C 
BRANCH  21  22
ATOM     22  C   UNL     1       6.854   4.530  14.904  0.00  0.00    +0.000 A 
ATOM     23  C   UNL     1       5.833   3.743  14.352  0.00  0.00    +0.000 A 
ATOM     24  C   UNL     1       5.756   3.551  12.973  0.00  0.00    +0.000 A 
ATOM     25  C   UNL     1       6.677   4.171  12.132  0.00  0.00    +0.000 A 
ATOM     26  C   UNL     1       7.660   5.003  12.666  0.00  0.00    +0.000 A 
ATOM     27  C   UNL     1       7.748   5.186  14.047  0.00  0.00    +0.000 A 
ENDBRANCH  21  22
ENDBRANCH  18  21
ENDBRANCH  16  18
ENDBRANCH   1  14
BRANCH   1  28
ATOM     28  C   UNL     1       2.690   4.001  18.862  0.00  0.00    +0.000 C 
BRANCH  28  30
ATOM     29  C   UNL     1       0.722   2.387  18.743  0.00  0.00    +0.000 C 
ATOM     30  C   UNL     1       1.403   3.494  19.546  0.00  0.00    +0.000 C 
ATOM     31  C   UNL     1       1.732   3.015  20.962  0.00  0.00    +0.000 C 
ENDBRANCH  28  30
ENDBRANCH   1  28
TORSDOF 11
ENDMDL
MODEL 8
REMARK VINA RESULT:      -8.2      1.034      1.238
REMARK  Name = 
REMARK  13 active torsions:
REMARK  status: ('A' for Active; 'I' for Inactive)
REMARK    1  A    between atoms: C_1  and  C_2
REMARK    2  A    between atoms: C_2  and  C_3
REMARK    3  A    between atoms: C_2  and  C_4
REMARK    4  A    between atoms: C_4  and  C_5
REMARK    5  A    between atoms: C_5  and  N_6
REMARK    6  A    between atoms: C_5  and  C_17
REMARK    7  A    between atoms: C_7  and  O_9
REMARK    8  A    between atoms: O_9  and  C_10
REMARK    9  A    between atoms: C_10  and  C_11
REMARK   10  A    between atoms: N_19  and  C_20
REMARK   11  A    between atoms: C_20  and  C_21
REMARK   12  A    between atoms: C_20  and  C_23
REMARK   13  A    between atoms: C_23  and  C_24
REMARK                            x       y       z     vdW  Elec       q    Type
REMARK                         _______ _______ _______ _____ _____    ______ ____
ROOT
ATOM      1  C   UNL     1       6.761   6.659  16.895  0.00  0.00    +0.000 C 
ENDROOT
BRANCH   1   2
ATOM      2  N   UNL     1       7.771   7.276  17.746  0.00  0.00    +0.000 N 
ATOM      3  C   UNL     1       7.905   8.623  17.906  0.00  0.00    +0.000 C 
ATOM      4  O   UNL     1       7.187   9.453  17.367  0.00  0.00    +0.000 OA
ATOM      5  H   UNL     1       8.428   6.694  18.253  0.00  0.00    +0.000 HD
BRANCH   3   6
ATOM      6  O   UNL     1       8.967   8.893  18.691  0.00  0.00    +0.000 OA
BRANCH   6   7
ATOM      7  C   UNL     1       8.872  10.098  19.465  0.00  0.00    +0.000 C 
BRANCH   7   8
ATOM      8  C   UNL     1      10.042  10.995  19.162  0.00  0.00    +0.000 A 
ATOM      9  C   UNL     1      10.857  11.485  20.191  0.00  0.00    +0.000 A 
ATOM     10  C   UNL     1      11.940  12.318  19.901  0.00  0.00    +0.000 A 
ATOM     11  C   UNL     1      12.214  12.671  18.581  0.00  0.00    +0.000 A 
ATOM     12  C   UNL     1      11.410  12.191  17.549  0.00  0.00    +0.000 A 
ATOM     13  C   UNL     1      10.327  11.359  17.838  0.00  0.00    +0.000 A 
ENDBRANCH   7   8
ENDBRANCH   6   7
ENDBRANCH   3   6
ENDBRANCH   1   2
BRANCH   1  14
ATOM     14  C   UNL     1       5.456   6.445  17.709  0.00  0.00    +0.000 C 
ATOM     15  O   UNL     1       5.302   5.469  18.441  0.00  0.00    +0.000 OA
ATOM     16  N   UNL     1       4.447   7.344  17.429  0.00  0.00    +0.000 N 
ATOM     17  H   UNL     1       4.523   7.751  16.499  0.00  0.00    +0.000 HD
BRANCH  16  18
ATOM     18  C   UNL     1       3.073   7.185  17.916  0.00  0.00    +0.000 C 
BRANCH  18  19
ATOM     19  C   UNL     1       2.347   8.543  17.859  0.00  0.00    +0.000 C 
ATOM     20  F   UNL     1       1.194   8.477  18.582  0.00  0.00    +0.000 F 
ENDBRANCH  18  19
BRANCH  18  21
ATOM     21  C   UNL     1       2.998   6.588  19.343  0.00  0.00    +0.000 C 
BRANCH  21  22
ATOM     22  C   UNL     1       2.135   5.342  19.363  0.00  0.00    +0.000 A 
ATOM     23  C   UNL     1       1.672   4.829  20.583  0.00  0.00    +0.000 A 
ATOM     24  C   UNL     1       1.046   3.584  20.634  0.00  0.00    +0.000 A 
ATOM     25  C   UNL     1       0.849   2.856  19.463  0.00  0.00    +0.000 A 
ATOM     26  C   UNL     1       1.253   3.383  18.237  0.00  0.00    +0.000 A 
ATOM     27  C   UNL     1       1.890   4.624  18.185  0.00  0.00    +0.000 A 
ENDBRANCH  21  22
ENDBRANCH  18  21
ENDBRANCH  16  18
ENDBRANCH   1  14
BRANCH   1  28
ATOM     28  C   UNL     1       7.298   5.405  16.172  0.00  0.00    +0.000 C 
BRANCH  28  30
ATOM     29  C   UNL     1       7.354   4.873  13.680  0.00  0.00    +0.000 C 
ATOM     30  C   UNL     1       6.488   4.960  14.936  0.00  0.00    +0.000 C 
ATOM     31  C   UNL     1       5.814   3.615  15.225  0.00  0.00    +0.000 C 
ENDBRANCH  28  30
ENDBRANCH   1  28
TORSDOF 11
ENDMDL
MODEL 9
REMARK VINA RESULT:      -8.2      4.233      6.892
REMARK  Name = 
REMARK  13 active torsions:
REMARK  status: ('A' for Active; 'I' for Inactive)
REMARK    1  A    between atoms: C_1  and  C_2
REMARK    2  A    between atoms: C_2  and  C_3
REMARK    3  A    between atoms: C_2  and  C_4
REMARK    4  A    between atoms: C_4  and  C_5
REMARK    5  A    between atoms: C_5  and  N_6
REMARK    6  A    between atoms: C_5  and  C_17
REMARK    7  A    between atoms: C_7  and  O_9
REMARK    8  A    between atoms: O_9  and  C_10
REMARK    9  A    between atoms: C_10  and  C_11
REMARK   10  A    between atoms: N_19  and  C_20
REMARK   11  A    between atoms: C_20  and  C_21
REMARK   12  A    between atoms: C_20  and  C_23
REMARK   13  A    between atoms: C_23  and  C_24
REMARK                            x       y       z     vdW  Elec       q    Type
REMARK                         _______ _______ _______ _____ _____    ______ ____
ROOT
ATOM      1  C   UNL     1       2.750   5.400  18.450  0.00  0.00    +0.000 C 
ENDROOT
BRANCH   1   2
ATOM      2  N   UNL     1       2.536   6.749  17.940  0.00  0.00    +0.000 N 
ATOM      3  C   UNL     1       2.226   7.816  18.730  0.00  0.00    +0.000 C 
ATOM      4  O   UNL     1       2.111   7.760  19.946  0.00  0.00    +0.000 OA
ATOM      5  H   UNL     1       2.607   6.930  16.945  0.00  0.00    +0.000 HD
BRANCH   3   6
ATOM      6  O   UNL     1       2.016   8.909  17.969  0.00  0.00    +0.000 OA
BRANCH   6   7
ATOM      7  C   UNL     1       0.898   9.722  18.354  0.00  0.00    +0.000 C 
BRANCH   7   8
ATOM      8  C   UNL     1       1.374  11.095  18.748  0.00  0.00    +0.000 A 
ATOM      9  C   UNL     1       2.334  11.770  17.982  0.00  0.00    +0.000 A 
ATOM     10  C   UNL     1       2.772  13.042  18.355  0.00  0.00    +0.000 A 
ATOM     11  C   UNL     1       2.257  13.649  19.500  0.00  0.00    +0.000 A 
ATOM     12  C   UNL     1       1.303  12.987  20.271  0.00  0.00    +0.000 A 
ATOM     13  C   UNL     1       0.865  11.714  19.899  0.00  0.00    +0.000 A 
ENDBRANCH   7   8
ENDBRANCH   6   7
ENDBRANCH   3   6
ENDBRANCH   1   2
BRANCH   1  14
ATOM     14  C   UNL     1       3.877   4.709  17.635  0.00  0.00    +0.000 C 
ATOM     15  O   UNL     1       3.785   3.541  17.266  0.00  0.00    +0.000 OA
ATOM     16  N   UNL     1       5.029   5.456  17.495  0.00  0.00    +0.000 N 
ATOM     17  H   UNL     1       5.150   6.145  18.235  0.00  0.00    +0.000 HD
BRANCH  16  18
ATOM     18  C   UNL     1       6.281   4.908  16.961  0.00  0.00    +0.000 C 
BRANCH  18  19
ATOM     19  C   UNL     1       7.304   4.758  18.103  0.00  0.00    +0.000 C 
ATOM     20  F   UNL     1       8.385   4.056  17.661  0.00  0.00    +0.000 F 
ENDBRANCH  18  19
BRANCH  18  21
ATOM     21  C   UNL     1       6.873   5.755  15.808  0.00  0.00    +0.000 C 
BRANCH  21  22
ATOM     22  C   UNL     1       6.651   5.077  14.471  0.00  0.00    +0.000 A 
ATOM     23  C   UNL     1       5.567   4.205  14.298  0.00  0.00    +0.000 A 
ATOM     24  C   UNL     1       5.463   3.427  13.145  0.00  0.00    +0.000 A 
ATOM     25  C   UNL     1       6.422   3.540  12.141  0.00  0.00    +0.000 A 
ATOM     26  C   UNL     1       7.471   4.448  12.277  0.00  0.00    +0.000 A 
ATOM     27  C   UNL     1       7.585   5.218  13.436  0.00  0.00    +0.000 A 
ENDBRANCH  21  22
ENDBRANCH  18  21
ENDBRANCH  16  18
ENDBRANCH   1  14
BRANCH   1  28
ATOM     28  C   UNL     1       1.432   4.603  18.555  0.00  0.00    +0.000 C 
BRANCH  28  30
ATOM     29  C   UNL     1       1.491   2.371  19.783  0.00  0.00    +0.000 C 
ATOM     30  C   UNL     1       1.212   3.869  19.895  0.00  0.00    +0.000 C 
ATOM     31  C   UNL     1       2.090   4.505  20.976  0.00  0.00    +0.000 C 
ENDBRANCH  28  30
ENDBRANCH   1  28
TORSDOF 11
ENDMDL
