MODEL 1
REMARK VINA RESULT:      -9.1      0.000      0.000
REMARK  Name = 
REMARK  13 active torsions:
REMARK  status: ('A' for Active; 'I' for Inactive)
REMARK    1  A    between atoms: C_1  and  O_2
REMARK    2  A    between atoms: O_2  and  C_3
REMARK    3  A    between atoms: C_6  and  C_7
REMARK    4  A    between atoms: C_7  and  C_8
REMARK    5  A    between atoms: C_8  and  N_9
REMARK    6  A    between atoms: C_10  and  C_12
REMARK    7  A    between atoms: N_15  and  C_16
REMARK    8  A    between atoms: C_16  and  C_17
REMARK    9  A    between atoms: C_19  and  C_20
REMARK   10  A    between atoms: C_25  and  C_26
REMARK   11  A    between atoms: C_28  and  C_29
REMARK   12  A    between atoms: C_33  and  O_34
REMARK   13  A    between atoms: O_34  and  C_35
REMARK                            x       y       z     vdW  Elec       q    Type
REMARK                         _______ _______ _______ _____ _____    ______ ____
ROOT
ATOM      1  C   UNL     1       7.697   5.585  18.200  0.00  0.00    +0.000 C 
ATOM      2  C   UNL     1       7.203   4.698  17.056  0.00  0.00    +0.000 C 
ATOM      3  C   UNL     1       5.729   4.966  16.735  0.00  0.00    +0.000 C 
ATOM      4  N   UNL     1       4.858   4.750  17.905  0.00  0.00    +0.000 NA
ATOM      5  C   UNL     1       5.303   5.561  19.057  0.00  0.00    +0.000 C 
ATOM      6  C   UNL     1       6.781   5.360  19.409  0.00  0.00    +0.000 C 
ENDROOT
BRANCH   1   8
ATOM      7  N   UNL     1       8.421   7.882  18.713  0.00  0.00    +0.000 N 
ATOM      8  C   UNL     1       7.767   7.066  17.812  0.00  0.00    +0.000 C 
ATOM      9  O   UNL     1       7.257   7.511  16.786  0.00  0.00    +0.000 OA
ATOM     10  H   UNL     1       8.754   7.503  19.591  0.00  0.00    +0.000 HD
BRANCH   7  11
ATOM     11  C   UNL     1       8.594   9.295  18.419  0.00  0.00    +0.000 C 
BRANCH  11  12
ATOM     12  C   UNL     1       9.347  10.062  19.510  0.00  0.00    +0.000 C 
BRANCH  12  16
ATOM     13  C   UNL     1       9.741  14.217  18.344  0.00  0.00    +0.000 A 
ATOM     14  C   UNL     1      10.066  13.182  17.448  0.00  0.00    +0.000 A 
ATOM     15  C   UNL     1       9.956  11.841  17.824  0.00  0.00    +0.000 A 
ATOM     16  C   UNL     1       9.562  11.505  19.119  0.00  0.00    +0.000 A 
ATOM     17  C   UNL     1       9.317  12.536  20.032  0.00  0.00    +0.000 A 
ATOM     18  C   UNL     1       9.407  13.892  19.666  0.00  0.00    +0.000 A 
BRANCH  13  20
ATOM     19  C   UNL     1       8.520  16.156  17.733  0.00  0.00    +0.000 C 
ATOM     20  O   UNL     1       9.782  15.529  17.953  0.00  0.00    +0.000 OA
ENDBRANCH  13  20
BRANCH  18  21
ATOM     21  O   UNL     1       9.118  14.725  20.714  0.00  0.00    +0.000 OA
ATOM     22  C   UNL     1       7.807  14.733  21.254  0.00  0.00    +0.000 C 
ENDBRANCH  18  21
ENDBRANCH  12  16
ENDBRANCH  11  12
ENDBRANCH   7  11
ENDBRANCH   1   8
BRANCH   4  23
ATOM     23  C   UNL     1       3.458   5.141  17.597  0.00  0.00    +0.000 C 
BRANCH  23  24
ATOM     24  C   UNL     1       2.739   5.735  18.764  0.00  0.00    +0.000 A 
ATOM     25  N   UNL     1       2.425   7.082  18.772  0.00  0.00    +0.000 NA
ATOM     26  C   UNL     1       1.831   7.284  19.931  0.00  0.00    +0.000 A 
ATOM     27  O   UNL     1       1.733   6.150  20.698  0.00  0.00    +0.000 OA
ATOM     28  C   UNL     1       2.314   5.168  19.946  0.00  0.00    +0.000 A 
ATOM     29  C   UNL     1       2.335   3.816  20.527  0.00  0.00    +0.000 C 
BRANCH  26  30
ATOM     30  C   UNL     1       1.251   8.510  20.498  0.00  0.00    +0.000 A 
ATOM     31  C   UNL     1       0.978   8.574  21.880  0.00  0.00    +0.000 A 
ATOM     32  C   UNL     1       0.401   9.706  22.460  0.00  0.00    +0.000 A 
ATOM     33  C   UNL     1       0.086  10.802  21.668  0.00  0.00    +0.000 A 
ATOM     34  C   UNL     1       0.358  10.771  20.301  0.00  0.00    +0.000 A 
ATOM     35  C   UNL     1       0.938   9.637  19.702  0.00  0.00    +0.000 A 
ATOM     36  C   UNL     1       1.207   9.679  18.219  0.00  0.00    +0.000 C 
ENDBRANCH  26  30
ENDBRANCH  23  24
ENDBRANCH   4  23
TORSDOF 9
ENDMDL
MODEL 2
REMARK VINA RESULT:      -8.7      1.389      2.160
REMARK  Name = 
REMARK  13 active torsions:
REMARK  status: ('A' for Active; 'I' for Inactive)
REMARK    1  A    between atoms: C_1  and  O_2
REMARK    2  A    between atoms: O_2  and  C_3
REMARK    3  A    between atoms: C_6  and  C_7
REMARK    4  A    between atoms: C_7  and  C_8
REMARK    5  A    between atoms: C_8  and  N_9
REMARK    6  A    between atoms: C_10  and  C_12
REMARK    7  A    between atoms: N_15  and  C_16
REMARK    8  A    between atoms: C_16  and  C_17
REMARK    9  A    between atoms: C_19  and  C_20
REMARK   10  A    between atoms: C_25  and  C_26
REMARK   11  A    between atoms: C_28  and  C_29
REMARK   12  A    between atoms: C_33  and  O_34
REMARK   13  A    between atoms: O_34  and  C_35
REMARK                            x       y       z     vdW  Elec       q    Type
REMARK                         _______ _______ _______ _____ _____    ______ ____
ROOT
ATOM      1  C   UNL     1       6.528   5.828  16.372  0.00  0.00    +0.000 C 
ATOM      2  C   UNL     1       5.059   5.489  16.118  0.00  0.00    +0.000 C 
ATOM      3  C   UNL     1       4.346   5.077  17.411  0.00  0.00    +0.000 C 
ATOM      4  N   UNL     1       4.990   3.916  18.053  0.00  0.00    +0.000 NA
ATOM      5  C   UNL     1       6.424   4.173  18.300  0.00  0.00    +0.000 C 
ATOM      6  C   UNL     1       7.188   4.619  17.048  0.00  0.00    +0.000 C 
ENDROOT
BRANCH   1   8
ATOM      7  N   UNL     1       7.955   7.276  17.762  0.00  0.00    +0.000 N 
ATOM      8  C   UNL     1       6.705   7.105  17.201  0.00  0.00    +0.000 C 
ATOM      9  O   UNL     1       5.798   7.914  17.380  0.00  0.00    +0.000 OA
ATOM     10  H   UNL     1       8.656   6.551  17.670  0.00  0.00    +0.000 HD
BRANCH   7  11
ATOM     11  C   UNL     1       8.250   8.479  18.523  0.00  0.00    +0.000 C 
BRANCH  11  12
ATOM     12  C   UNL     1       8.466   9.720  17.652  0.00  0.00    +0.000 C 
BRANCH  12  16
ATOM     13  C   UNL     1      10.512  12.869  19.814  0.00  0.00    +0.000 A 
ATOM     14  C   UNL     1      10.184  11.655  20.445  0.00  0.00    +0.000 A 
ATOM     15  C   UNL     1       9.510  10.643  19.758  0.00  0.00    +0.000 A 
ATOM     16  C   UNL     1       9.108  10.838  18.436  0.00  0.00    +0.000 A 
ATOM     17  C   UNL     1       9.364  12.076  17.836  0.00  0.00    +0.000 A 
ATOM     18  C   UNL     1      10.057  13.100  18.508  0.00  0.00    +0.000 A 
BRANCH  13  20
ATOM     19  C   UNL     1      10.474  14.859  21.103  0.00  0.00    +0.000 C 
ATOM     20  O   UNL     1      11.233  13.832  20.467  0.00  0.00    +0.000 OA
ENDBRANCH  13  20
BRANCH  18  21
ATOM     21  O   UNL     1      10.201  14.217  17.728  0.00  0.00    +0.000 OA
ATOM     22  C   UNL     1      11.408  14.412  17.010  0.00  0.00    +0.000 C 
ENDBRANCH  18  21
ENDBRANCH  12  16
ENDBRANCH  11  12
ENDBRANCH   7  11
ENDBRANCH   1   8
BRANCH   4  23
ATOM     23  C   UNL     1       4.356   3.624  19.365  0.00  0.00    +0.000 C 
BRANCH  23  24
ATOM     24  C   UNL     1       3.195   4.511  19.672  0.00  0.00    +0.000 A 
ATOM     25  N   UNL     1       3.359   5.884  19.700  0.00  0.00    +0.000 NA
ATOM     26  C   UNL     1       2.172   6.361  20.020  0.00  0.00    +0.000 A 
ATOM     27  O   UNL     1       1.227   5.384  20.210  0.00  0.00    +0.000 OA
ATOM     28  C   UNL     1       1.887   4.209  19.987  0.00  0.00    +0.000 A 
ATOM     29  C   UNL     1       1.096   2.974  20.108  0.00  0.00    +0.000 C 
BRANCH  26  30
ATOM     30  C   UNL     1       1.720   7.750  20.175  0.00  0.00    +0.000 A 
ATOM     31  C   UNL     1       1.267   8.196  21.434  0.00  0.00    +0.000 A 
ATOM     32  C   UNL     1       0.800   9.498  21.624  0.00  0.00    +0.000 A 
ATOM     33  C   UNL     1       0.778  10.386  20.557  0.00  0.00    +0.000 A 
ATOM     34  C   UNL     1       1.232   9.976  19.305  0.00  0.00    +0.000 A 
ATOM     35  C   UNL     1       1.705   8.667  19.097  0.00  0.00    +0.000 A 
ATOM     36  C   UNL     1       2.184   8.297  17.716  0.00  0.00    +0.000 C 
ENDBRANCH  26  30
ENDBRANCH  23  24
ENDBRANCH   4  23
TORSDOF 9
ENDMDL
MODEL 3
REMARK VINA RESULT:      -8.4      0.968      2.181
REMARK  Name = 
REMARK  13 active torsions:
REMARK  status: ('A' for Active; 'I' for Inactive)
REMARK    1  A    between atoms: C_1  and  O_2
REMARK    2  A    between atoms: O_2  and  C_3
REMARK    3  A    between atoms: C_6  and  C_7
REMARK    4  A    between atoms: C_7  and  C_8
REMARK    5  A    between atoms: C_8  and  N_9
REMARK    6  A    between atoms: C_10  and  C_12
REMARK    7  A    between atoms: N_15  and  C_16
REMARK    8  A    between atoms: C_16  and  C_17
REMARK    9  A    between atoms: C_19  and  C_20
REMARK   10  A    between atoms: C_25  and  C_26
REMARK   11  A    between atoms: C_28  and  C_29
REMARK   12  A    between atoms: C_33  and  O_34
REMARK   13  A    between atoms: O_34  and  C_35
REMARK                            x       y       z     vdW  Elec       q    Type
REMARK                         _______ _______ _______ _____ _____    ______ ____
ROOT
ATOM      1  C   UNL     1       7.705   5.635  18.186  0.00  0.00    +0.000 C 
ATOM      2  C   UNL     1       7.337   4.612  17.111  0.00  0.00    +0.000 C 
ATOM      3  C   UNL     1       5.830   4.609  16.831  0.00  0.00    +0.000 C 
ATOM      4  N   UNL     1       5.042   4.319  18.043  0.00  0.00    +0.000 NA
ATOM      5  C   UNL     1       5.375   5.260  19.132  0.00  0.00    +0.000 C 
ATOM      6  C   UNL     1       6.875   5.331  19.439  0.00  0.00    +0.000 C 
ENDROOT
BRANCH   1   8
ATOM      7  N   UNL     1       8.264   8.025  18.387  0.00  0.00    +0.000 N 
ATOM      8  C   UNL     1       7.511   7.081  17.717  0.00  0.00    +0.000 C 
ATOM      9  O   UNL     1       6.726   7.393  16.824  0.00  0.00    +0.000 OA
ATOM     10  H   UNL     1       8.837   7.750  19.175  0.00  0.00    +0.000 HD
BRANCH   7  11
ATOM     11  C   UNL     1       8.200   9.421  17.987  0.00  0.00    +0.000 C 
BRANCH  11  12
ATOM     12  C   UNL     1       9.496  10.194  18.242  0.00  0.00    +0.000 C 
BRANCH  12  16
ATOM     13  C   UNL     1       9.081  13.546  20.956  0.00  0.00    +0.000 A 
ATOM     14  C   UNL     1       9.244  12.237  21.445  0.00  0.00    +0.000 A 
ATOM     15  C   UNL     1       9.362  11.152  20.575  0.00  0.00    +0.000 A 
ATOM     16  C   UNL     1       9.274  11.343  19.196  0.00  0.00    +0.000 A 
ATOM     17  C   UNL     1       9.033  12.634  18.715  0.00  0.00    +0.000 A 
ATOM     18  C   UNL     1       8.928  13.742  19.576  0.00  0.00    +0.000 A 
BRANCH  13  20
ATOM     19  C   UNL     1       8.830  14.314  23.186  0.00  0.00    +0.000 C 
ATOM     20  O   UNL     1       9.035  14.618  21.807  0.00  0.00    +0.000 OA
ENDBRANCH  13  20
BRANCH  18  21
ATOM     21  O   UNL     1       8.699  14.905  18.888  0.00  0.00    +0.000 OA
ATOM     22  C   UNL     1       7.657  14.950  17.928  0.00  0.00    +0.000 C 
ENDBRANCH  18  21
ENDBRANCH  12  16
ENDBRANCH  11  12
ENDBRANCH   7  11
ENDBRANCH   1   8
BRANCH   4  23
ATOM     23  C   UNL     1       3.587   4.451  17.767  0.00  0.00    +0.000 C 
BRANCH  23  24
ATOM     24  C   UNL     1       2.918   5.489  18.607  0.00  0.00    +0.000 A 
ATOM     25  N   UNL     1       2.752   6.773  18.121  0.00  0.00    +0.000 NA
ATOM     26  C   UNL     1       2.162   7.432  19.099  0.00  0.00    +0.000 A 
ATOM     27  O   UNL     1       1.928   6.662  20.211  0.00  0.00    +0.000 OA
ATOM     28  C   UNL     1       2.413   5.426  19.888  0.00  0.00    +0.000 A 
ATOM     29  C   UNL     1       2.276   4.375  20.910  0.00  0.00    +0.000 C 
BRANCH  26  30
ATOM     30  C   UNL     1       1.710   8.829  19.163  0.00  0.00    +0.000 A 
ATOM     31  C   UNL     1       2.063   9.721  18.129  0.00  0.00    +0.000 A 
ATOM     32  C   UNL     1       1.681  11.064  18.161  0.00  0.00    +0.000 A 
ATOM     33  C   UNL     1       0.934  11.544  19.227  0.00  0.00    +0.000 A 
ATOM     34  C   UNL     1       0.560  10.682  20.256  0.00  0.00    +0.000 A 
ATOM     35  C   UNL     1       0.937   9.325  20.240  0.00  0.00    +0.000 A 
ATOM     36  C   UNL     1       0.492   8.452  21.384  0.00  0.00    +0.000 C 
ENDBRANCH  26  30
ENDBRANCH  23  24
ENDBRANCH   4  23
TORSDOF 9
ENDMDL
MODEL 4
REMARK VINA RESULT:      -8.3      1.278      1.931
REMARK  Name = 
REMARK  13 active torsions:
REMARK  status: ('A' for Active; 'I' for Inactive)
REMARK    1  A    between atoms: C_1  and  O_2
REMARK    2  A    between atoms: O_2  and  C_3
REMARK    3  A    between atoms: C_6  and  C_7
REMARK    4  A    between atoms: C_7  and  C_8
REMARK    5  A    between atoms: C_8  and  N_9
REMARK    6  A    between atoms: C_10  and  C_12
REMARK    7  A    between atoms: N_15  and  C_16
REMARK    8  A    between atoms: C_16  and  C_17
REMARK    9  A    between atoms: C_19  and  C_20
REMARK   10  A    between atoms: C_25  and  C_26
REMARK   11  A    between atoms: C_28  and  C_29
REMARK   12  A    between atoms: C_33  and  O_34
REMARK   13  A    between atoms: O_34  and  C_35
REMARK                            x       y       z     vdW  Elec       q    Type
REMARK                         _______ _______ _______ _____ _____    ______ ____
ROOT
ATOM      1  C   UNL     1       7.746   5.828  17.287  0.00  0.00    +0.000 C 
ATOM      2  C   UNL     1       6.618   5.064  16.592  0.00  0.00    +0.000 C 
ATOM      3  C   UNL     1       5.370   4.979  17.477  0.00  0.00    +0.000 C 
ATOM      4  N   UNL     1       5.650   4.327  18.769  0.00  0.00    +0.000 NA
ATOM      5  C   UNL     1       6.755   5.004  19.479  0.00  0.00    +0.000 C 
ATOM      6  C   UNL     1       8.025   5.149  18.633  0.00  0.00    +0.000 C 
ENDROOT
BRANCH   1   8
ATOM      7  N   UNL     1       8.385   8.047  18.144  0.00  0.00    +0.000 N 
ATOM      8  C   UNL     1       7.432   7.318  17.461  0.00  0.00    +0.000 C 
ATOM      9  O   UNL     1       6.396   7.833  17.046  0.00  0.00    +0.000 OA
ATOM     10  H   UNL     1       9.186   7.579  18.550  0.00  0.00    +0.000 HD
BRANCH   7  11
ATOM     11  C   UNL     1       8.214   9.480  18.319  0.00  0.00    +0.000 C 
BRANCH  11  12
ATOM     12  C   UNL     1       9.165  10.091  19.352  0.00  0.00    +0.000 C 
BRANCH  12  16
ATOM     13  C   UNL     1      10.553  13.920  17.875  0.00  0.00    +0.000 A 
ATOM     14  C   UNL     1      10.957  12.721  17.261  0.00  0.00    +0.000 A 
ATOM     15  C   UNL     1      10.526  11.483  17.743  0.00  0.00    +0.000 A 
ATOM     16  C   UNL     1       9.717  11.413  18.877  0.00  0.00    +0.000 A 
ATOM     17  C   UNL     1       9.383  12.603  19.533  0.00  0.00    +0.000 A 
ATOM     18  C   UNL     1       9.795  13.860  19.052  0.00  0.00    +0.000 A 
BRANCH  13  20
ATOM     19  C   UNL     1      12.321  15.405  17.331  0.00  0.00    +0.000 C 
ATOM     20  O   UNL     1      10.920  15.135  17.360  0.00  0.00    +0.000 OA
ENDBRANCH  13  20
BRANCH  18  21
ATOM     21  O   UNL     1       9.346  14.883  19.845  0.00  0.00    +0.000 OA
ATOM     22  C   UNL     1      10.275  15.615  20.626  0.00  0.00    +0.000 C 
ENDBRANCH  18  21
ENDBRANCH  12  16
ENDBRANCH  11  12
ENDBRANCH   7  11
ENDBRANCH   1   8
BRANCH   4  23
ATOM     23  C   UNL     1       4.456   4.376  19.652  0.00  0.00    +0.000 C 
BRANCH  23  24
ATOM     24  C   UNL     1       3.392   5.301  19.158  0.00  0.00    +0.000 A 
ATOM     25  N   UNL     1       3.386   6.625  19.555  0.00  0.00    +0.000 NA
ATOM     26  C   UNL     1       2.325   7.149  18.973  0.00  0.00    +0.000 A 
ATOM     27  O   UNL     1       1.621   6.248  18.213  0.00  0.00    +0.000 OA
ATOM     28  C   UNL     1       2.308   5.074  18.337  0.00  0.00    +0.000 A 
ATOM     29  C   UNL     1       1.777   3.916  17.598  0.00  0.00    +0.000 C 
BRANCH  26  30
ATOM     30  C   UNL     1       1.811   8.525  19.000  0.00  0.00    +0.000 A 
ATOM     31  C   UNL     1       2.008   9.361  17.882  0.00  0.00    +0.000 A 
ATOM     32  C   UNL     1       1.564  10.685  17.872  0.00  0.00    +0.000 A 
ATOM     33  C   UNL     1       0.910  11.202  18.982  0.00  0.00    +0.000 A 
ATOM     34  C   UNL     1       0.690  10.394  20.096  0.00  0.00    +0.000 A 
ATOM     35  C   UNL     1       1.132   9.058  20.122  0.00  0.00    +0.000 A 
ATOM     36  C   UNL     1       0.856   8.244  21.360  0.00  0.00    +0.000 C 
ENDBRANCH  26  30
ENDBRANCH  23  24
ENDBRANCH   4  23
TORSDOF 9
ENDMDL
MODEL 5
REMARK VINA RESULT:      -8.3      1.531      2.204
REMARK  Name = 
REMARK  13 active torsions:
REMARK  status: ('A' for Active; 'I' for Inactive)
REMARK    1  A    between atoms: C_1  and  O_2
REMARK    2  A    between atoms: O_2  and  C_3
REMARK    3  A    between atoms: C_6  and  C_7
REMARK    4  A    between atoms: C_7  and  C_8
REMARK    5  A    between atoms: C_8  and  N_9
REMARK    6  A    between atoms: C_10  and  C_12
REMARK    7  A    between atoms: N_15  and  C_16
REMARK    8  A    between atoms: C_16  and  C_17
REMARK    9  A    between atoms: C_19  and  C_20
REMARK   10  A    between atoms: C_25  and  C_26
REMARK   11  A    between atoms: C_28  and  C_29
REMARK   12  A    between atoms: C_33  and  O_34
REMARK   13  A    between atoms: O_34  and  C_35
REMARK                            x       y       z     vdW  Elec       q    Type
REMARK                         _______ _______ _______ _____ _____    ______ ____
ROOT
ATOM      1  C   UNL     1       7.381   5.133  16.723  0.00  0.00    +0.000 C 
ATOM      2  C   UNL     1       6.150   4.371  16.232  0.00  0.00    +0.000 C 
ATOM      3  C   UNL     1       5.016   4.412  17.263  0.00  0.00    +0.000 C 
ATOM      4  N   UNL     1       5.428   3.850  18.562  0.00  0.00    +0.000 NA
ATOM      5  C   UNL     1       6.635   4.529  19.077  0.00  0.00    +0.000 C 
ATOM      6  C   UNL     1       7.797   4.549  18.078  0.00  0.00    +0.000 C 
ENDROOT
BRANCH   1   8
ATOM      7  N   UNL     1       8.186   7.377  17.343  0.00  0.00    +0.000 N 
ATOM      8  C   UNL     1       7.144   6.645  16.808  0.00  0.00    +0.000 C 
ATOM      9  O   UNL     1       6.094   7.177  16.452  0.00  0.00    +0.000 OA
ATOM     10  H   UNL     1       9.003   6.903  17.708  0.00  0.00    +0.000 HD
BRANCH   7  11
ATOM     11  C   UNL     1       8.090   8.825  17.421  0.00  0.00    +0.000 C 
BRANCH  11  12
ATOM     12  C   UNL     1       8.600   9.404  18.743  0.00  0.00    +0.000 C 
BRANCH  12  16
ATOM     13  C   UNL     1      10.499  13.213  17.927  0.00  0.00    +0.000 A 
ATOM     14  C   UNL     1      11.260  12.096  18.319  0.00  0.00    +0.000 A 
ATOM     15  C   UNL     1      10.651  10.871  18.599  0.00  0.00    +0.000 A 
ATOM     16  C   UNL     1       9.263  10.745  18.538  0.00  0.00    +0.000 A 
ATOM     17  C   UNL     1       8.503  11.877  18.226  0.00  0.00    +0.000 A 
ATOM     18  C   UNL     1       9.101  13.116  17.924  0.00  0.00    +0.000 A 
BRANCH  13  20
ATOM     19  C   UNL     1      12.333  14.284  16.873  0.00  0.00    +0.000 C 
ATOM     20  O   UNL     1      11.102  14.394  17.586  0.00  0.00    +0.000 OA
ENDBRANCH  13  20
BRANCH  18  21
ATOM     21  O   UNL     1       8.168  14.078  17.642  0.00  0.00    +0.000 OA
ATOM     22  C   UNL     1       7.279  14.505  18.660  0.00  0.00    +0.000 C 
ENDBRANCH  18  21
ENDBRANCH  12  16
ENDBRANCH  11  12
ENDBRANCH   7  11
ENDBRANCH   1   8
BRANCH   4  23
ATOM     23  C   UNL     1       4.352   4.022  19.573  0.00  0.00    +0.000 C 
BRANCH  23  24
ATOM     24  C   UNL     1       3.296   4.992  19.154  0.00  0.00    +0.000 A 
ATOM     25  N   UNL     1       3.406   6.327  19.495  0.00  0.00    +0.000 NA
ATOM     26  C   UNL     1       2.320   6.893  19.006  0.00  0.00    +0.000 A 
ATOM     27  O   UNL     1       1.491   6.010  18.360  0.00  0.00    +0.000 OA
ATOM     28  C   UNL     1       2.120   4.801  18.460  0.00  0.00    +0.000 A 
ATOM     29  C   UNL     1       1.451   3.653  17.828  0.00  0.00    +0.000 C 
BRANCH  26  30
ATOM     30  C   UNL     1       1.890   8.298  19.030  0.00  0.00    +0.000 A 
ATOM     31  C   UNL     1       2.095   9.106  17.892  0.00  0.00    +0.000 A 
ATOM     32  C   UNL     1       1.731  10.453  17.878  0.00  0.00    +0.000 A 
ATOM     33  C   UNL     1       1.148  11.023  19.002  0.00  0.00    +0.000 A 
ATOM     34  C   UNL     1       0.922  10.245  20.135  0.00  0.00    +0.000 A 
ATOM     35  C   UNL     1       1.285   8.884  20.166  0.00  0.00    +0.000 A 
ATOM     36  C   UNL     1       1.005   8.105  21.425  0.00  0.00    +0.000 C 
ENDBRANCH  26  30
ENDBRANCH  23  24
ENDBRANCH   4  23
TORSDOF 9
ENDMDL
MODEL 6
REMARK VINA RESULT:      -8.0      5.104     10.071
REMARK  Name = 
REMARK  13 active torsions:
REMARK  status: ('A' for Active; 'I' for Inactive)
REMARK    1  A    between atoms: C_1  and  O_2
REMARK    2  A    between atoms: O_2  and  C_3
REMARK    3  A    between atoms: C_6  and  C_7
REMARK    4  A    between atoms: C_7  and  C_8
REMARK    5  A    between atoms: C_8  and  N_9
REMARK    6  A    between atoms: C_10  and  C_12
REMARK    7  A    between atoms: N_15  and  C_16
REMARK    8  A    between atoms: C_16  and  C_17
REMARK    9  A    between atoms: C_19  and  C_20
REMARK   10  A    between atoms: C_25  and  C_26
REMARK   11  A    between atoms: C_28  and  C_29
REMARK   12  A    between atoms: C_33  and  O_34
REMARK   13  A    between atoms: O_34  and  C_35
REMARK                            x       y       z     vdW  Elec       q    Type
REMARK                         _______ _______ _______ _____ _____    ______ ____
ROOT
ATOM      1  C   UNL     1      -0.381   9.844  22.949  0.00  0.00    +0.000 C 
ATOM      2  C   UNL     1       1.091   9.456  23.096  0.00  0.00    +0.000 C 
ATOM      3  C   UNL     1       1.786   9.365  21.733  0.00  0.00    +0.000 C 
ATOM      4  N   UNL     1       1.132   8.391  20.841  0.00  0.00    +0.000 NA
ATOM      5  C   UNL     1      -0.305   8.697  20.681  0.00  0.00    +0.000 C 
ATOM      6  C   UNL     1      -1.052   8.832  22.013  0.00  0.00    +0.000 C 
ENDROOT
BRANCH   1   8
ATOM      7  N   UNL     1      -1.858  11.763  22.504  0.00  0.00    +0.000 N 
ATOM      8  C   UNL     1      -0.565  11.282  22.451  0.00  0.00    +0.000 C 
ATOM      9  O   UNL     1       0.361  11.959  22.011  0.00  0.00    +0.000 OA
ATOM     10  H   UNL     1      -2.615  11.154  22.789  0.00  0.00    +0.000 HD
BRANCH   7  11
ATOM     11  C   UNL     1      -2.139  13.134  22.107  0.00  0.00    +0.000 C 
BRANCH  11  12
ATOM     12  C   UNL     1      -3.445  13.292  21.325  0.00  0.00    +0.000 C 
BRANCH  12  16
ATOM     13  C   UNL     1      -3.305  10.966  17.672  0.00  0.00    +0.000 A 
ATOM     14  C   UNL     1      -2.131  11.500  18.233  0.00  0.00    +0.000 A 
ATOM     15  C   UNL     1      -2.172  12.263  19.402  0.00  0.00    +0.000 A 
ATOM     16  C   UNL     1      -3.394  12.550  20.011  0.00  0.00    +0.000 A 
ATOM     17  C   UNL     1      -4.567  12.086  19.407  0.00  0.00    +0.000 A 
ATOM     18  C   UNL     1      -4.543  11.301  18.239  0.00  0.00    +0.000 A 
BRANCH  13  20
ATOM     19  C   UNL     1      -2.961  10.809  15.331  0.00  0.00    +0.000 C 
ATOM     20  O   UNL     1      -3.256  10.160  16.566  0.00  0.00    +0.000 OA
ENDBRANCH  13  20
BRANCH  18  21
ATOM     21  O   UNL     1      -5.803  10.953  17.830  0.00  0.00    +0.000 OA
ATOM     22  C   UNL     1      -6.890  11.099  18.729  0.00  0.00    +0.000 C 
ENDBRANCH  18  21
ENDBRANCH  12  16
ENDBRANCH  11  12
ENDBRANCH   7  11
ENDBRANCH   1   8
BRANCH   4  23
ATOM     23  C   UNL     1       1.748   8.420  19.489  0.00  0.00    +0.000 C 
BRANCH  23  24
ATOM     24  C   UNL     1       2.526   7.186  19.166  0.00  0.00    +0.000 A 
ATOM     25  N   UNL     1       3.520   7.225  18.206  0.00  0.00    +0.000 NA
ATOM     26  C   UNL     1       3.983   5.992  18.147  0.00  0.00    +0.000 A 
ATOM     27  O   UNL     1       3.351   5.132  19.011  0.00  0.00    +0.000 OA
ATOM     28  C   UNL     1       2.425   5.902  19.656  0.00  0.00    +0.000 A 
ATOM     29  C   UNL     1       1.598   5.229  20.671  0.00  0.00    +0.000 C 
BRANCH  26  30
ATOM     30  C   UNL     1       5.063   5.422  17.330  0.00  0.00    +0.000 A 
ATOM     31  C   UNL     1       4.813   5.091  15.982  0.00  0.00    +0.000 A 
ATOM     32  C   UNL     1       5.799   4.521  15.174  0.00  0.00    +0.000 A 
ATOM     33  C   UNL     1       7.061   4.272  15.697  0.00  0.00    +0.000 A 
ATOM     34  C   UNL     1       7.340   4.602  17.023  0.00  0.00    +0.000 A 
ATOM     35  C   UNL     1       6.356   5.176  17.850  0.00  0.00    +0.000 A 
ATOM     36  C   UNL     1       6.732   5.510  19.271  0.00  0.00    +0.000 C 
ENDBRANCH  26  30
ENDBRANCH  23  24
ENDBRANCH   4  23
TORSDOF 9
ENDMDL
MODEL 7
REMARK VINA RESULT:      -8.0      1.544      1.813
REMARK  Name = 
REMARK  13 active torsions:
REMARK  status: ('A' for Active; 'I' for Inactive)
REMARK    1  A    between atoms: C_1  and  O_2
REMARK    2  A    between atoms: O_2  and  C_3
REMARK    3  A    between atoms: C_6  and  C_7
REMARK    4  A    between atoms: C_7  and  C_8
REMARK    5  A    between atoms: C_8  and  N_9
REMARK    6  A    between atoms: C_10  and  C_12
REMARK    7  A    between atoms: N_15  and  C_16
REMARK    8  A    between atoms: C_16  and  C_17
REMARK    9  A    between atoms: C_19  and  C_20
REMARK   10  A    between atoms: C_25  and  C_26
REMARK   11  A    between atoms: C_28  and  C_29
REMARK   12  A    between atoms: C_33  and  O_34
REMARK   13  A    between atoms: O_34  and  C_35
REMARK                            x       y       z     vdW  Elec       q    Type
REMARK                         _______ _______ _______ _____ _____    ______ ____
ROOT
ATOM      1  C   UNL     1       7.201   6.248  16.698  0.00  0.00    +0.000 C 
ATOM      2  C   UNL     1       5.697   6.373  16.455  0.00  0.00    +0.000 C 
ATOM      3  C   UNL     1       4.891   5.941  17.685  0.00  0.00    +0.000 C 
ATOM      4  N   UNL     1       5.188   4.552  18.082  0.00  0.00    +0.000 NA
ATOM      5  C   UNL     1       6.636   4.360  18.304  0.00  0.00    +0.000 C 
ATOM      6  C   UNL     1       7.499   4.804  17.118  0.00  0.00    +0.000 C 
ENDROOT
BRANCH   1   8
ATOM      7  N   UNL     1       7.667   8.579  17.343  0.00  0.00    +0.000 N 
ATOM      8  C   UNL     1       7.718   7.255  17.732  0.00  0.00    +0.000 C 
ATOM      9  O   UNL     1       8.172   6.917  18.823  0.00  0.00    +0.000 OA
ATOM     10  H   UNL     1       7.369   8.821  16.407  0.00  0.00    +0.000 HD
BRANCH   7  11
ATOM     11  C   UNL     1       8.081   9.623  18.267  0.00  0.00    +0.000 C 
BRANCH  11  12
ATOM     12  C   UNL     1       9.589   9.890  18.255  0.00  0.00    +0.000 C 
BRANCH  12  16
ATOM     13  C   UNL     1      10.462  13.384  20.665  0.00  0.00    +0.000 A 
ATOM     14  C   UNL     1      11.294  13.022  19.589  0.00  0.00    +0.000 A 
ATOM     15  C   UNL     1      11.026  11.889  18.819  0.00  0.00    +0.000 A 
ATOM     16  C   UNL     1       9.946  11.063  19.135  0.00  0.00    +0.000 A 
ATOM     17  C   UNL     1       9.168  11.381  20.254  0.00  0.00    +0.000 A 
ATOM     18  C   UNL     1       9.414  12.528  21.031  0.00  0.00    +0.000 A 
BRANCH  13  20
ATOM     19  C   UNL     1      10.021  15.702  20.899  0.00  0.00    +0.000 C 
ATOM     20  O   UNL     1      10.686  14.533  21.375  0.00  0.00    +0.000 OA
ENDBRANCH  13  20
BRANCH  18  21
ATOM     21  O   UNL     1       8.526  12.643  22.068  0.00  0.00    +0.000 OA
ATOM     22  C   UNL     1       8.205  11.497  22.837  0.00  0.00    +0.000 C 
ENDBRANCH  18  21
ENDBRANCH  12  16
ENDBRANCH  11  12
ENDBRANCH   7  11
ENDBRANCH   1   8
BRANCH   4  23
ATOM     23  C   UNL     1       4.491   4.207  19.348  0.00  0.00    +0.000 C 
BRANCH  23  24
ATOM     24  C   UNL     1       3.250   5.006  19.577  0.00  0.00    +0.000 A 
ATOM     25  N   UNL     1       3.338   6.349  19.893  0.00  0.00    +0.000 NA
ATOM     26  C   UNL     1       2.090   6.742  20.053  0.00  0.00    +0.000 A 
ATOM     27  O   UNL     1       1.174   5.737  19.864  0.00  0.00    +0.000 OA
ATOM     28  C   UNL     1       1.922   4.634  19.562  0.00  0.00    +0.000 A 
ATOM     29  C   UNL     1       1.185   3.390  19.289  0.00  0.00    +0.000 C 
BRANCH  26  30
ATOM     30  C   UNL     1       1.548   8.070  20.372  0.00  0.00    +0.000 A 
ATOM     31  C   UNL     1       1.251   8.395  21.712  0.00  0.00    +0.000 A 
ATOM     32  C   UNL     1       0.707   9.633  22.061  0.00  0.00    +0.000 A 
ATOM     33  C   UNL     1       0.451  10.577  21.075  0.00  0.00    +0.000 A 
ATOM     34  C   UNL     1       0.747  10.287  19.744  0.00  0.00    +0.000 A 
ATOM     35  C   UNL     1       1.294   9.043  19.376  0.00  0.00    +0.000 A 
ATOM     36  C   UNL     1       1.592   8.803  17.918  0.00  0.00    +0.000 C 
ENDBRANCH  26  30
ENDBRANCH  23  24
ENDBRANCH   4  23
TORSDOF 9
ENDMDL
MODEL 8
REMARK VINA RESULT:      -7.9      1.307      1.634
REMARK  Name = 
REMARK  13 active torsions:
REMARK  status: ('A' for Active; 'I' for Inactive)
REMARK    1  A    between atoms: C_1  and  O_2
REMARK    2  A    between atoms: O_2  and  C_3
REMARK    3  A    between atoms: C_6  and  C_7
REMARK    4  A    between atoms: C_7  and  C_8
REMARK    5  A    between atoms: C_8  and  N_9
REMARK    6  A    between atoms: C_10  and  C_12
REMARK    7  A    between atoms: N_15  and  C_16
REMARK    8  A    between atoms: C_16  and  C_17
REMARK    9  A    between atoms: C_19  and  C_20
REMARK   10  A    between atoms: C_25  and  C_26
REMARK   11  A    between atoms: C_28  and  C_29
REMARK   12  A    between atoms: C_33  and  O_34
REMARK   13  A    between atoms: O_34  and  C_35
REMARK                            x       y       z     vdW  Elec       q    Type
REMARK                         _______ _______ _______ _____ _____    ______ ____
ROOT
ATOM      1  C   UNL     1       7.971   5.505  18.454  0.00  0.00    +0.000 C 
ATOM      2  C   UNL     1       7.575   4.547  17.330  0.00  0.00    +0.000 C 
ATOM      3  C   UNL     1       6.078   4.639  17.015  0.00  0.00    +0.000 C 
ATOM      4  N   UNL     1       5.244   4.347  18.196  0.00  0.00    +0.000 NA
ATOM      5  C   UNL     1       5.601   5.224  19.329  0.00  0.00    +0.000 C 
ATOM      6  C   UNL     1       7.094   5.200  19.674  0.00  0.00    +0.000 C 
ENDROOT
BRANCH   1   8
ATOM      7  N   UNL     1       8.548   7.867  18.847  0.00  0.00    +0.000 N 
ATOM      8  C   UNL     1       7.869   6.977  18.038  0.00  0.00    +0.000 C 
ATOM      9  O   UNL     1       7.212   7.352  17.070  0.00  0.00    +0.000 OA
ATOM     10  H   UNL     1       9.008   7.539  19.687  0.00  0.00    +0.000 HD
BRANCH   7  11
ATOM     11  C   UNL     1       8.564   9.282  18.515  0.00  0.00    +0.000 C 
BRANCH  11  12
ATOM     12  C   UNL     1       8.883  10.189  19.706  0.00  0.00    +0.000 C 
BRANCH  12  16
ATOM     13  C   UNL     1      10.744  13.900  18.465  0.00  0.00    +0.000 A 
ATOM     14  C   UNL     1      10.351  12.937  17.517  0.00  0.00    +0.000 A 
ATOM     15  C   UNL     1       9.766  11.733  17.913  0.00  0.00    +0.000 A 
ATOM     16  C   UNL     1       9.601  11.443  19.267  0.00  0.00    +0.000 A 
ATOM     17  C   UNL     1      10.065  12.367  20.210  0.00  0.00    +0.000 A 
ATOM     18  C   UNL     1      10.642  13.593  19.829  0.00  0.00    +0.000 A 
BRANCH  13  20
ATOM     19  C   UNL     1      11.250  15.364  16.669  0.00  0.00    +0.000 C 
ATOM     20  O   UNL     1      11.253  15.109  18.073  0.00  0.00    +0.000 OA
ENDBRANCH  13  20
BRANCH  18  21
ATOM     21  O   UNL     1      11.015  14.341  20.913  0.00  0.00    +0.000 OA
ATOM     22  C   UNL     1      10.098  15.270  21.465  0.00  0.00    +0.000 C 
ENDBRANCH  18  21
ENDBRANCH  12  16
ENDBRANCH  11  12
ENDBRANCH   7  11
ENDBRANCH   1   8
BRANCH   4  23
ATOM     23  C   UNL     1       3.807   4.570  17.892  0.00  0.00    +0.000 C 
BRANCH  23  24
ATOM     24  C   UNL     1       3.363   5.976  18.130  0.00  0.00    +0.000 A 
ATOM     25  N   UNL     1       2.538   6.271  19.200  0.00  0.00    +0.000 NA
ATOM     26  C   UNL     1       2.319   7.568  19.111  0.00  0.00    +0.000 A 
ATOM     27  O   UNL     1       2.948   8.155  18.041  0.00  0.00    +0.000 OA
ATOM     28  C   UNL     1       3.611   7.133  17.422  0.00  0.00    +0.000 A 
ATOM     29  C   UNL     1       4.399   7.484  16.230  0.00  0.00    +0.000 C 
BRANCH  26  30
ATOM     30  C   UNL     1       1.538   8.459  19.981  0.00  0.00    +0.000 A 
ATOM     31  C   UNL     1       1.544   8.248  21.375  0.00  0.00    +0.000 A 
ATOM     32  C   UNL     1       0.796   9.050  22.239  0.00  0.00    +0.000 A 
ATOM     33  C   UNL     1       0.025  10.085  21.727  0.00  0.00    +0.000 A 
ATOM     34  C   UNL     1       0.010  10.324  20.354  0.00  0.00    +0.000 A 
ATOM     35  C   UNL     1       0.759   9.524  19.469  0.00  0.00    +0.000 A 
ATOM     36  C   UNL     1       0.697   9.845  17.998  0.00  0.00    +0.000 C 
ENDBRANCH  26  30
ENDBRANCH  23  24
ENDBRANCH   4  23
TORSDOF 9
ENDMDL
MODEL 9
REMARK VINA RESULT:      -7.9      4.054      8.490
REMARK  Name = 
REMARK  13 active torsions:
REMARK  status: ('A' for Active; 'I' for Inactive)
REMARK    1  A    between atoms: C_1  and  O_2
REMARK    2  A    between atoms: O_2  and  C_3
REMARK    3  A    between atoms: C_6  and  C_7
REMARK    4  A    between atoms: C_7  and  C_8
REMARK    5  A    between atoms: C_8  and  N_9
REMARK    6  A    between atoms: C_10  and  C_12
REMARK    7  A    between atoms: N_15  and  C_16
REMARK    8  A    between atoms: C_16  and  C_17
REMARK    9  A    between atoms: C_19  and  C_20
REMARK   10  A    between atoms: C_25  and  C_26
REMARK   11  A    between atoms: C_28  and  C_29
REMARK   12  A    between atoms: C_33  and  O_34
REMARK   13  A    between atoms: O_34  and  C_35
REMARK                            x       y       z     vdW  Elec       q    Type
REMARK                         _______ _______ _______ _____ _____    ______ ____
ROOT
ATOM      1  C   UNL     1       1.377   9.391  17.933  0.00  0.00    +0.000 C 
ATOM      2  C   UNL     1       2.205  10.647  18.207  0.00  0.00    +0.000 C 
ATOM      3  C   UNL     1       1.849  11.270  19.561  0.00  0.00    +0.000 C 
ATOM      4  N   UNL     1       0.420  11.622  19.651  0.00  0.00    +0.000 NA
ATOM      5  C   UNL     1      -0.435  10.451  19.368  0.00  0.00    +0.000 C 
ATOM      6  C   UNL     1      -0.107   9.764  18.038  0.00  0.00    +0.000 C 
ENDROOT
BRANCH   1   8
ATOM      7  N   UNL     1       2.047   7.041  18.243  0.00  0.00    +0.000 N 
ATOM      8  C   UNL     1       1.735   8.232  18.870  0.00  0.00    +0.000 C 
ATOM      9  O   UNL     1       1.725   8.337  20.094  0.00  0.00    +0.000 OA
ATOM     10  H   UNL     1       1.962   6.960  17.238  0.00  0.00    +0.000 HD
BRANCH   7  11
ATOM     11  C   UNL     1       2.455   5.891  19.033  0.00  0.00    +0.000 C 
BRANCH  11  12
ATOM     12  C   UNL     1       3.953   5.860  19.346  0.00  0.00    +0.000 C 
BRANCH  12  16
ATOM     13  C   UNL     1       6.187   5.311  15.675  0.00  0.00    +0.000 A 
ATOM     14  C   UNL     1       5.079   4.497  15.974  0.00  0.00    +0.000 A 
ATOM     15  C   UNL     1       4.365   4.659  17.163  0.00  0.00    +0.000 A 
ATOM     16  C   UNL     1       4.770   5.608  18.102  0.00  0.00    +0.000 A 
ATOM     17  C   UNL     1       5.919   6.361  17.838  0.00  0.00    +0.000 A 
ATOM     18  C   UNL     1       6.641   6.223  16.638  0.00  0.00    +0.000 A 
BRANCH  13  20
ATOM     19  C   UNL     1       6.490   4.073  13.674  0.00  0.00    +0.000 C 
ATOM     20  O   UNL     1       6.843   5.198  14.478  0.00  0.00    +0.000 OA
ENDBRANCH  13  20
BRANCH  18  21
ATOM     21  O   UNL     1       7.721   7.063  16.591  0.00  0.00    +0.000 OA
ATOM     22  C   UNL     1       7.856   8.077  17.573  0.00  0.00    +0.000 C 
ENDBRANCH  18  21
ENDBRANCH  12  16
ENDBRANCH  11  12
ENDBRANCH   7  11
ENDBRANCH   1   8
BRANCH   4  23
ATOM     23  C   UNL     1       0.083  12.102  21.017  0.00  0.00    +0.000 C 
BRANCH  23  24
ATOM     24  C   UNL     1      -1.256  12.758  21.099  0.00  0.00    +0.000 A 
ATOM     25  N   UNL     1      -2.317  12.098  21.693  0.00  0.00    +0.000 NA
ATOM     26  C   UNL     1      -3.337  12.925  21.580  0.00  0.00    +0.000 A 
ATOM     27  O   UNL     1      -3.018  14.098  20.942  0.00  0.00    +0.000 OA
ATOM     28  C   UNL     1      -1.691  13.983  20.639  0.00  0.00    +0.000 A 
ATOM     29  C   UNL     1      -1.068  15.126  19.953  0.00  0.00    +0.000 C 
BRANCH  26  30
ATOM     30  C   UNL     1      -4.724  12.789  22.045  0.00  0.00    +0.000 A 
ATOM     31  C   UNL     1      -5.733  12.433  21.127  0.00  0.00    +0.000 A 
ATOM     32  C   UNL     1      -7.069  12.320  21.516  0.00  0.00    +0.000 A 
ATOM     33  C   UNL     1      -7.426  12.558  22.836  0.00  0.00    +0.000 A 
ATOM     34  C   UNL     1      -6.447  12.898  23.769  0.00  0.00    +0.000 A 
ATOM     35  C   UNL     1      -5.096  13.017  23.392  0.00  0.00    +0.000 A 
ATOM     36  C   UNL     1      -4.093  13.384  24.455  0.00  0.00    +0.000 C 
ENDBRANCH  26  30
ENDBRANCH  23  24
ENDBRANCH   4  23
TORSDOF 9
ENDMDL
