MODEL 1
REMARK VINA RESULT:      -7.1      0.000      0.000
REMARK  Name = 
REMARK  1 active torsions:
REMARK  status: ('A' for Active; 'I' for Inactive)
REMARK    1  A    between atoms: C_1  and  N_2
REMARK                            x       y       z     vdW  Elec       q    Type
REMARK                         _______ _______ _______ _____ _____    ______ ____
ROOT
ATOM      1  C   UNL     1       7.912   6.420  18.334  0.00  0.00    +0.000 C 
ATOM      2  N   UNL     1       6.709   5.760  17.895  0.00  0.00    +0.000 N 
ATOM      3  C   UNL     1       5.657   5.390  18.732  0.00  0.00    +0.000 C 
ATOM      4  O   UNL     1       5.532   5.569  19.928  0.00  0.00    +0.000 OA
ATOM      5  C   UNL     1       4.674   4.682  17.831  0.00  0.00    +0.000 C 
ATOM      6  C   UNL     1       3.555   4.130  18.310  0.00  0.00    +0.000 C 
ATOM      7  N   UNL     1       3.247   3.975  19.643  0.00  0.00    +0.000 N 
ATOM      8  C   UNL     1       2.184   3.102  19.778  0.00  0.00    +0.000 C 
ATOM      9  S   UNL     1       1.572   2.520  21.193  0.00  0.00    +0.000 S 
ATOM     10  N   UNL     1       1.744   2.769  18.527  0.00  0.00    +0.000 N 
ATOM     11  C   UNL     1       2.446   3.441  17.567  0.00  0.00    +0.000 C 
ATOM     12  O   UNL     1       2.138   3.541  16.398  0.00  0.00    +0.000 OA
ATOM     13  C   UNL     1       5.261   4.656  16.485  0.00  0.00    +0.000 A 
ATOM     14  C   UNL     1       4.897   4.037  15.299  0.00  0.00    +0.000 A 
ATOM     15  C   UNL     1       5.765   4.115  14.210  0.00  0.00    +0.000 A 
ATOM     16 BR   UNL     1       5.295   3.245  12.597  0.00  0.00    +0.000 Br
ATOM     17  C   UNL     1       6.988   4.793  14.303  0.00  0.00    +0.000 A 
ATOM     18  C   UNL     1       7.365   5.399  15.504  0.00  0.00    +0.000 A 
ATOM     19  C   UNL     1       6.496   5.310  16.581  0.00  0.00    +0.000 A 
ATOM     20  H   UNL     1       3.814   4.335  20.409  0.00  0.00    +0.000 HD
ATOM     21  H   UNL     1       0.933   2.208  18.329  0.00  0.00    +0.000 HD
ENDROOT
TORSDOF 0
ENDMDL
MODEL 2
REMARK VINA RESULT:      -6.4      4.086      5.879
REMARK  Name = 
REMARK  1 active torsions:
REMARK  status: ('A' for Active; 'I' for Inactive)
REMARK    1  A    between atoms: C_1  and  N_2
REMARK                            x       y       z     vdW  Elec       q    Type
REMARK                         _______ _______ _______ _____ _____    ______ ____
ROOT
ATOM      1  C   UNL     1       1.780   8.967  18.256  0.00  0.00    +0.000 C 
ATOM      2  N   UNL     1       2.611   7.793  18.337  0.00  0.00    +0.000 N 
ATOM      3  C   UNL     1       3.621   7.471  17.433  0.00  0.00    +0.000 C 
ATOM      4  O   UNL     1       4.009   8.097  16.465  0.00  0.00    +0.000 OA
ATOM      5  C   UNL     1       4.149   6.135  17.896  0.00  0.00    +0.000 C 
ATOM      6  C   UNL     1       5.100   5.483  17.220  0.00  0.00    +0.000 C 
ATOM      7  N   UNL     1       5.576   5.828  15.976  0.00  0.00    +0.000 N 
ATOM      8  C   UNL     1       6.310   4.783  15.450  0.00  0.00    +0.000 C 
ATOM      9  S   UNL     1       6.948   4.702  13.933  0.00  0.00    +0.000 S 
ATOM     10  N   UNL     1       6.390   3.798  16.397  0.00  0.00    +0.000 N 
ATOM     11  C   UNL     1       5.779   4.185  17.556  0.00  0.00    +0.000 C 
ATOM     12  O   UNL     1       5.888   3.641  18.635  0.00  0.00    +0.000 OA
ATOM     13  C   UNL     1       3.353   5.737  19.065  0.00  0.00    +0.000 A 
ATOM     14  C   UNL     1       3.281   4.576  19.818  0.00  0.00    +0.000 A 
ATOM     15  C   UNL     1       2.303   4.479  20.808  0.00  0.00    +0.000 A 
ATOM     16 BR   UNL     1       2.173   2.885  21.819  0.00  0.00    +0.000 Br
ATOM     17  C   UNL     1       1.399   5.524  21.039  0.00  0.00    +0.000 A 
ATOM     18  C   UNL     1       1.456   6.687  20.267  0.00  0.00    +0.000 A 
ATOM     19  C   UNL     1       2.429   6.768  19.282  0.00  0.00    +0.000 A 
ATOM     20  H   UNL     1       5.300   6.667  15.468  0.00  0.00    +0.000 HD
ATOM     21  H   UNL     1       6.930   2.955  16.311  0.00  0.00    +0.000 HD
ENDROOT
TORSDOF 0
ENDMDL
MODEL 3
REMARK VINA RESULT:      -6.3      3.927      5.064
REMARK  Name = 
REMARK  1 active torsions:
REMARK  status: ('A' for Active; 'I' for Inactive)
REMARK    1  A    between atoms: C_1  and  N_2
REMARK                            x       y       z     vdW  Elec       q    Type
REMARK                         _______ _______ _______ _____ _____    ______ ____
ROOT
ATOM      1  C   UNL     1       2.240   3.561  21.369  0.00  0.00    +0.000 C 
ATOM      2  N   UNL     1       2.523   4.604  20.418  0.00  0.00    +0.000 N 
ATOM      3  C   UNL     1       1.986   5.890  20.466  0.00  0.00    +0.000 C 
ATOM      4  O   UNL     1       1.238   6.375  21.293  0.00  0.00    +0.000 OA
ATOM      5  C   UNL     1       2.520   6.582  19.235  0.00  0.00    +0.000 C 
ATOM      6  C   UNL     1       2.160   7.830  18.920  0.00  0.00    +0.000 C 
ATOM      7  N   UNL     1       1.164   8.554  19.535  0.00  0.00    +0.000 N 
ATOM      8  C   UNL     1       0.851   9.661  18.769  0.00  0.00    +0.000 C 
ATOM      9  S   UNL     1      -0.373  10.728  19.049  0.00  0.00    +0.000 S 
ATOM     10  N   UNL     1       1.713   9.703  17.708  0.00  0.00    +0.000 N 
ATOM     11  C   UNL     1       2.626   8.689  17.779  0.00  0.00    +0.000 C 
ATOM     12  O   UNL     1       3.647   8.603  17.130  0.00  0.00    +0.000 OA
ATOM     13  C   UNL     1       3.336   5.601  18.507  0.00  0.00    +0.000 A 
ATOM     14  C   UNL     1       3.955   5.611  17.267  0.00  0.00    +0.000 A 
ATOM     15  C   UNL     1       4.560   4.440  16.812  0.00  0.00    +0.000 A 
ATOM     16 BR   UNL     1       5.379   4.431  15.106  0.00  0.00    +0.000 Br
ATOM     17  C   UNL     1       4.539   3.267  17.579  0.00  0.00    +0.000 A 
ATOM     18  C   UNL     1       3.897   3.250  18.819  0.00  0.00    +0.000 A 
ATOM     19  C   UNL     1       3.295   4.419  19.258  0.00  0.00    +0.000 A 
ATOM     20  H   UNL     1       0.643   8.236  20.350  0.00  0.00    +0.000 HD
ATOM     21  H   UNL     1       1.762  10.446  17.031  0.00  0.00    +0.000 HD
ENDROOT
TORSDOF 0
ENDMDL
MODEL 4
REMARK VINA RESULT:      -5.9      3.884      6.171
REMARK  Name = 
REMARK  1 active torsions:
REMARK  status: ('A' for Active; 'I' for Inactive)
REMARK    1  A    between atoms: C_1  and  N_2
REMARK                            x       y       z     vdW  Elec       q    Type
REMARK                         _______ _______ _______ _____ _____    ______ ____
ROOT
ATOM      1  C   UNL     1       1.935   1.864  19.453  0.00  0.00    +0.000 C 
ATOM      2  N   UNL     1       2.372   3.119  18.898  0.00  0.00    +0.000 N 
ATOM      3  C   UNL     1       3.261   3.249  17.832  0.00  0.00    +0.000 C 
ATOM      4  O   UNL     1       3.792   2.378  17.169  0.00  0.00    +0.000 OA
ATOM      5  C   UNL     1       3.458   4.736  17.667  0.00  0.00    +0.000 C 
ATOM      6  C   UNL     1       4.306   5.236  16.763  0.00  0.00    +0.000 C 
ATOM      7  N   UNL     1       5.208   4.506  16.023  0.00  0.00    +0.000 N 
ATOM      8  C   UNL     1       6.124   5.355  15.432  0.00  0.00    +0.000 C 
ATOM      9  S   UNL     1       7.458   4.909  14.574  0.00  0.00    +0.000 S 
ATOM     10  N   UNL     1       5.754   6.642  15.711  0.00  0.00    +0.000 N 
ATOM     11  C   UNL     1       4.587   6.672  16.421  0.00  0.00    +0.000 C 
ATOM     12  O   UNL     1       3.892   7.648  16.608  0.00  0.00    +0.000 OA
ATOM     13  C   UNL     1       2.665   5.397  18.713  0.00  0.00    +0.000 A 
ATOM     14  C   UNL     1       2.559   6.711  19.140  0.00  0.00    +0.000 A 
ATOM     15  C   UNL     1       1.792   6.987  20.271  0.00  0.00    +0.000 A 
ATOM     16 BR   UNL     1       1.667   8.772  20.885  0.00  0.00    +0.000 Br
ATOM     17  C   UNL     1       1.145   5.963  20.977  0.00  0.00    +0.000 A 
ATOM     18  C   UNL     1       1.268   4.635  20.559  0.00  0.00    +0.000 A 
ATOM     19  C   UNL     1       2.039   4.374  19.437  0.00  0.00    +0.000 A 
ATOM     20  H   UNL     1       5.272   3.489  16.036  0.00  0.00    +0.000 HD
ATOM     21  H   UNL     1       6.199   7.465  15.342  0.00  0.00    +0.000 HD
ENDROOT
TORSDOF 0
ENDMDL
MODEL 5
REMARK VINA RESULT:      -5.8      4.720      5.678
REMARK  Name = 
REMARK  1 active torsions:
REMARK  status: ('A' for Active; 'I' for Inactive)
REMARK    1  A    between atoms: C_1  and  N_2
REMARK                            x       y       z     vdW  Elec       q    Type
REMARK                         _______ _______ _______ _____ _____    ______ ____
ROOT
ATOM      1  C   UNL     1       2.103   4.473  21.340  0.00  0.00    +0.000 C 
ATOM      2  N   UNL     1       2.292   5.588  20.447  0.00  0.00    +0.000 N 
ATOM      3  C   UNL     1       1.593   6.792  20.522  0.00  0.00    +0.000 C 
ATOM      4  O   UNL     1       0.754   7.139  21.330  0.00  0.00    +0.000 OA
ATOM      5  C   UNL     1       2.087   7.603  19.348  0.00  0.00    +0.000 C 
ATOM      6  C   UNL     1       1.584   8.809  19.067  0.00  0.00    +0.000 C 
ATOM      7  N   UNL     1       0.478   9.373  19.662  0.00  0.00    +0.000 N 
ATOM      8  C   UNL     1       0.060  10.466  18.928  0.00  0.00    +0.000 C 
ATOM      9  S   UNL     1      -1.302  11.356  19.191  0.00  0.00    +0.000 S 
ATOM     10  N   UNL     1       0.955  10.667  17.913  0.00  0.00    +0.000 N 
ATOM     11  C   UNL     1       1.986   9.774  17.987  0.00  0.00    +0.000 C 
ATOM     12  O   UNL     1       3.037   9.847  17.386  0.00  0.00    +0.000 OA
ATOM     13  C   UNL     1       3.053   6.769  18.621  0.00  0.00    +0.000 A 
ATOM     14  C   UNL     1       3.719   6.915  17.415  0.00  0.00    +0.000 A 
ATOM     15  C   UNL     1       4.488   5.852  16.941  0.00  0.00    +0.000 A 
ATOM     16 BR   UNL     1       5.375   6.026  15.279  0.00  0.00    +0.000 Br
ATOM     17  C   UNL     1       4.584   4.651  17.657  0.00  0.00    +0.000 A 
ATOM     18  C   UNL     1       3.896   4.494  18.863  0.00  0.00    +0.000 A 
ATOM     19  C   UNL     1       3.131   5.557  19.320  0.00  0.00    +0.000 A 
ATOM     20  H   UNL     1      -0.033   8.954  20.437  0.00  0.00    +0.000 HD
ATOM     21  H   UNL     1       0.937  11.440  17.271  0.00  0.00    +0.000 HD
ENDROOT
TORSDOF 0
ENDMDL
MODEL 6
REMARK VINA RESULT:      -5.7     10.078     11.318
REMARK  Name = 
REMARK  1 active torsions:
REMARK  status: ('A' for Active; 'I' for Inactive)
REMARK    1  A    between atoms: C_1  and  N_2
REMARK                            x       y       z     vdW  Elec       q    Type
REMARK                         _______ _______ _______ _____ _____    ______ ____
ROOT
ATOM      1  C   UNL     1      -2.808  10.076  15.472  0.00  0.00    +0.000 C 
ATOM      2  N   UNL     1      -2.708  10.633  16.797  0.00  0.00    +0.000 N 
ATOM      3  C   UNL     1      -1.656  10.396  17.680  0.00  0.00    +0.000 C 
ATOM      4  O   UNL     1      -0.648   9.737  17.510  0.00  0.00    +0.000 OA
ATOM      5  C   UNL     1      -2.034  11.131  18.943  0.00  0.00    +0.000 C 
ATOM      6  C   UNL     1      -1.275  11.075  20.042  0.00  0.00    +0.000 C 
ATOM      7  N   UNL     1      -0.197  10.239  20.228  0.00  0.00    +0.000 N 
ATOM      8  C   UNL     1       0.153  10.220  21.564  0.00  0.00    +0.000 C 
ATOM      9  S   UNL     1       1.293   9.255  22.262  0.00  0.00    +0.000 S 
ATOM     10  N   UNL     1      -0.637  11.120  22.226  0.00  0.00    +0.000 N 
ATOM     11  C   UNL     1      -1.461  11.778  21.357  0.00  0.00    +0.000 C 
ATOM     12  O   UNL     1      -2.094  12.783  21.599  0.00  0.00    +0.000 OA
ATOM     13  C   UNL     1      -3.351  11.740  18.712  0.00  0.00    +0.000 A 
ATOM     14  C   UNL     1      -4.249  12.405  19.531  0.00  0.00    +0.000 A 
ATOM     15  C   UNL     1      -5.497  12.753  19.013  0.00  0.00    +0.000 A 
ATOM     16 BR   UNL     1      -6.745  13.630  20.131  0.00  0.00    +0.000 Br
ATOM     17  C   UNL     1      -5.850  12.432  17.695  0.00  0.00    +0.000 A 
ATOM     18  C   UNL     1      -4.953  11.743  16.875  0.00  0.00    +0.000 A 
ATOM     19  C   UNL     1      -3.718  11.398  17.404  0.00  0.00    +0.000 A 
ATOM     20  H   UNL     1       0.180   9.621  19.512  0.00  0.00    +0.000 HD
ATOM     21  H   UNL     1      -0.544  11.367  23.197  0.00  0.00    +0.000 HD
ENDROOT
TORSDOF 0
ENDMDL
MODEL 7
REMARK VINA RESULT:      -5.7     10.562     12.124
REMARK  Name = 
REMARK  1 active torsions:
REMARK  status: ('A' for Active; 'I' for Inactive)
REMARK    1  A    between atoms: C_1  and  N_2
REMARK                            x       y       z     vdW  Elec       q    Type
REMARK                         _______ _______ _______ _____ _____    ______ ____
ROOT
ATOM      1  C   UNL     1      -5.733  11.732  17.455  0.00  0.00    +0.000 C 
ATOM      2  N   UNL     1      -4.543  11.876  18.254  0.00  0.00    +0.000 N 
ATOM      3  C   UNL     1      -3.269  11.470  17.860  0.00  0.00    +0.000 C 
ATOM      4  O   UNL     1      -2.916  10.971  16.809  0.00  0.00    +0.000 OA
ATOM      5  C   UNL     1      -2.382  11.764  19.046  0.00  0.00    +0.000 C 
ATOM      6  C   UNL     1      -1.084  11.444  19.049  0.00  0.00    +0.000 C 
ATOM      7  N   UNL     1      -0.447  10.677  18.099  0.00  0.00    +0.000 N 
ATOM      8  C   UNL     1       0.793  10.290  18.567  0.00  0.00    +0.000 C 
ATOM      9  S   UNL     1       1.837   9.252  17.826  0.00  0.00    +0.000 S 
ATOM     10  N   UNL     1       0.998  10.888  19.780  0.00  0.00    +0.000 N 
ATOM     11  C   UNL     1      -0.047  11.708  20.103  0.00  0.00    +0.000 C 
ATOM     12  O   UNL     1      -0.051  12.544  20.982  0.00  0.00    +0.000 OA
ATOM     13  C   UNL     1      -3.241  12.311  20.105  0.00  0.00    +0.000 A 
ATOM     14  C   UNL     1      -3.026  12.631  21.436  0.00  0.00    +0.000 A 
ATOM     15  C   UNL     1      -4.115  13.018  22.216  0.00  0.00    +0.000 A 
ATOM     16 BR   UNL     1      -3.840  13.425  24.043  0.00  0.00    +0.000 Br
ATOM     17  C   UNL     1      -5.408  13.077  21.678  0.00  0.00    +0.000 A 
ATOM     18  C   UNL     1      -5.630  12.735  20.342  0.00  0.00    +0.000 A 
ATOM     19  C   UNL     1      -4.540  12.345  19.579  0.00  0.00    +0.000 A 
ATOM     20  H   UNL     1      -0.890  10.331  17.250  0.00  0.00    +0.000 HD
ATOM     21  H   UNL     1       1.850  10.842  20.312  0.00  0.00    +0.000 HD
ENDROOT
TORSDOF 0
ENDMDL
MODEL 8
REMARK VINA RESULT:      -5.7      9.807     10.603
REMARK  Name = 
REMARK  1 active torsions:
REMARK  status: ('A' for Active; 'I' for Inactive)
REMARK    1  A    between atoms: C_1  and  N_2
REMARK                            x       y       z     vdW  Elec       q    Type
REMARK                         _______ _______ _______ _____ _____    ______ ____
ROOT
ATOM      1  C   UNL     1      -1.289  12.383  23.138  0.00  0.00    +0.000 C 
ATOM      2  N   UNL     1      -1.488  12.095  21.741  0.00  0.00    +0.000 N 
ATOM      3  C   UNL     1      -2.621  12.449  21.011  0.00  0.00    +0.000 C 
ATOM      4  O   UNL     1      -3.602  13.068  21.376  0.00  0.00    +0.000 OA
ATOM      5  C   UNL     1      -2.392  11.877  19.633  0.00  0.00    +0.000 C 
ATOM      6  C   UNL     1      -3.315  11.973  18.671  0.00  0.00    +0.000 C 
ATOM      7  N   UNL     1      -4.606  12.419  18.843  0.00  0.00    +0.000 N 
ATOM      8  C   UNL     1      -5.363  12.097  17.733  0.00  0.00    +0.000 C 
ATOM      9  S   UNL     1      -6.988  12.312  17.562  0.00  0.00    +0.000 S 
ATOM     10  N   UNL     1      -4.536  11.529  16.802  0.00  0.00    +0.000 N 
ATOM     11  C   UNL     1      -3.242  11.519  17.241  0.00  0.00    +0.000 C 
ATOM     12  O   UNL     1      -2.261  11.307  16.560  0.00  0.00    +0.000 OA
ATOM     13  C   UNL     1      -1.105  11.170  19.666  0.00  0.00    +0.000 A 
ATOM     14  C   UNL     1      -0.445  10.351  18.764  0.00  0.00    +0.000 A 
ATOM     15  C   UNL     1       0.732   9.722  19.168  0.00  0.00    +0.000 A 
ATOM     16 BR   UNL     1       1.625   8.575  17.956  0.00  0.00    +0.000 Br
ATOM     17  C   UNL     1       1.242   9.898  20.461  0.00  0.00    +0.000 A 
ATOM     18  C   UNL     1       0.567  10.707  21.379  0.00  0.00    +0.000 A 
ATOM     19  C   UNL     1      -0.606  11.322  20.967  0.00  0.00    +0.000 A 
ATOM     20  H   UNL     1      -4.973  12.793  19.716  0.00  0.00    +0.000 HD
ATOM     21  H   UNL     1      -4.806  11.269  15.870  0.00  0.00    +0.000 HD
ENDROOT
TORSDOF 0
ENDMDL
MODEL 9
REMARK VINA RESULT:      -5.6      5.525      6.450
REMARK  Name = 
REMARK  1 active torsions:
REMARK  status: ('A' for Active; 'I' for Inactive)
REMARK    1  A    between atoms: C_1  and  N_2
REMARK                            x       y       z     vdW  Elec       q    Type
REMARK                         _______ _______ _______ _____ _____    ______ ____
ROOT
ATOM      1  C   UNL     1       4.228   7.339  16.538  0.00  0.00    +0.000 C 
ATOM      2  N   UNL     1       3.296   7.371  17.636  0.00  0.00    +0.000 N 
ATOM      3  C   UNL     1       2.611   8.507  18.063  0.00  0.00    +0.000 C 
ATOM      4  O   UNL     1       2.633   9.632  17.601  0.00  0.00    +0.000 OA
ATOM      5  C   UNL     1       1.821   8.056  19.268  0.00  0.00    +0.000 C 
ATOM      6  C   UNL     1       1.081   8.910  19.982  0.00  0.00    +0.000 C 
ATOM      7  N   UNL     1       1.081  10.279  19.841  0.00  0.00    +0.000 N 
ATOM      8  C   UNL     1       0.453  10.860  20.926  0.00  0.00    +0.000 C 
ATOM      9  S   UNL     1       0.345  12.474  21.244  0.00  0.00    +0.000 S 
ATOM     10  N   UNL     1      -0.038   9.860  21.720  0.00  0.00    +0.000 N 
ATOM     11  C   UNL     1       0.195   8.635  21.163  0.00  0.00    +0.000 C 
ATOM     12  O   UNL     1      -0.320   7.590  21.500  0.00  0.00    +0.000 OA
ATOM     13  C   UNL     1       2.141   6.640  19.489  0.00  0.00    +0.000 A 
ATOM     14  C   UNL     1       1.836   5.742  20.500  0.00  0.00    +0.000 A 
ATOM     15  C   UNL     1       2.417   4.474  20.467  0.00  0.00    +0.000 A 
ATOM     16 BR   UNL     1       2.036   3.251  21.859  0.00  0.00    +0.000 Br
ATOM     17  C   UNL     1       3.302   4.108  19.444  0.00  0.00    +0.000 A 
ATOM     18  C   UNL     1       3.626   5.019  18.436  0.00  0.00    +0.000 A 
ATOM     19  C   UNL     1       3.046   6.278  18.483  0.00  0.00    +0.000 A 
ATOM     20  H   UNL     1       1.596  10.782  19.121  0.00  0.00    +0.000 HD
ATOM     21  H   UNL     1      -0.607   9.998  22.538  0.00  0.00    +0.000 HD
ENDROOT
TORSDOF 0
ENDMDL
