MODEL 1
REMARK VINA RESULT:      -6.8      0.000      0.000
REMARK  Name = 
REMARK  4 active torsions:
REMARK  status: ('A' for Active; 'I' for Inactive)
REMARK    1  A    between atoms: C_2  and  C_4
REMARK    2  A    between atoms: C_4  and  C_5
REMARK    3  A    between atoms: C_5  and  C_6
REMARK    4  A    between atoms: C_11  and  N_12
REMARK                            x       y       z     vdW  Elec       q    Type
REMARK                         _______ _______ _______ _____ _____    ______ ____
ROOT
ATOM      1  C   UNL     1       4.527   5.446  17.827  0.00  0.00    +0.000 A 
ATOM      2  C   UNL     1       3.175   5.109  17.617  0.00  0.00    +0.000 A 
ATOM      3  C   UNL     1       2.633   4.035  18.284  0.00  0.00    +0.000 A 
ATOM      4  C   UNL     1       3.377   3.242  19.122  0.00  0.00    +0.000 A 
ATOM      5  C   UNL     1       4.715   3.482  19.335  0.00  0.00    +0.000 A 
ATOM      6  C   UNL     1       5.283   4.591  18.676  0.00  0.00    +0.000 A 
ATOM      7  O   UNL     1       2.637   2.247  19.674  0.00  0.00    +0.000 OA
ATOM      8  C   UNL     1       1.331   2.539  19.130  0.00  0.00    +0.000 C 
ATOM      9  O   UNL     1       1.333   3.646  18.208  0.00  0.00    +0.000 OA
ENDROOT
BRANCH   6  10
ATOM     10  N   UNL     1       6.699   4.826  18.916  0.00  0.00    +0.000 N 
ATOM     11  O   UNL     1       7.498   4.364  18.094  0.00  0.00    +0.000 OA
ATOM     12  O   UNL     1       6.997   5.445  19.948  0.00  0.00    +0.000 OA
ENDBRANCH   6  10
BRANCH   1  13
ATOM     13  C   UNL     1       5.111   6.669  17.132  0.00  0.00    +0.000 C 
BRANCH  13  14
ATOM     14  C   UNL     1       5.161   6.529  15.605  0.00  0.00    +0.000 C 
BRANCH  14  16
ATOM     15  N   UNL     1       7.287   5.450  15.312  0.00  0.00    +0.000 N 
ATOM     16  C   UNL     1       5.937   5.331  15.128  0.00  0.00    +0.000 C 
ATOM     17  O   UNL     1       5.447   4.341  14.603  0.00  0.00    +0.000 OA
ATOM     18  H   UNL     1       7.878   4.693  14.994  0.00  0.00    +0.000 HD
ATOM     19  H   UNL     1       7.719   6.255  15.742  0.00  0.00    +0.000 HD
ENDBRANCH  14  16
ENDBRANCH  13  14
ENDBRANCH   1  13
TORSDOF 4
ENDMDL
MODEL 2
REMARK VINA RESULT:      -6.8      0.903      1.180
REMARK  Name = 
REMARK  4 active torsions:
REMARK  status: ('A' for Active; 'I' for Inactive)
REMARK    1  A    between atoms: C_2  and  C_4
REMARK    2  A    between atoms: C_4  and  C_5
REMARK    3  A    between atoms: C_5  and  C_6
REMARK    4  A    between atoms: C_11  and  N_12
REMARK                            x       y       z     vdW  Elec       q    Type
REMARK                         _______ _______ _______ _____ _____    ______ ____
ROOT
ATOM      1  C   UNL     1       4.530   5.061  17.489  0.00  0.00    +0.000 A 
ATOM      2  C   UNL     1       3.211   4.639  17.227  0.00  0.00    +0.000 A 
ATOM      3  C   UNL     1       2.636   3.678  18.027  0.00  0.00    +0.000 A 
ATOM      4  C   UNL     1       3.318   3.076  19.054  0.00  0.00    +0.000 A 
ATOM      5  C   UNL     1       4.625   3.402  19.335  0.00  0.00    +0.000 A 
ATOM      6  C   UNL     1       5.224   4.399  18.540  0.00  0.00    +0.000 A 
ATOM      7  O   UNL     1       2.555   2.165  19.709  0.00  0.00    +0.000 OA
ATOM      8  C   UNL     1       1.297   2.304  19.012  0.00  0.00    +0.000 C 
ATOM      9  O   UNL     1       1.358   3.230  17.910  0.00  0.00    +0.000 OA
ENDROOT
BRANCH   6  10
ATOM     10  N   UNL     1       6.606   4.730  18.855  0.00  0.00    +0.000 N 
ATOM     11  O   UNL     1       6.809   5.430  19.854  0.00  0.00    +0.000 OA
ATOM     12  O   UNL     1       7.474   4.311  18.075  0.00  0.00    +0.000 OA
ENDBRANCH   6  10
BRANCH   1  13
ATOM     13  C   UNL     1       5.145   6.165  16.640  0.00  0.00    +0.000 C 
BRANCH  13  14
ATOM     14  C   UNL     1       5.358   5.753  15.177  0.00  0.00    +0.000 C 
BRANCH  14  16
ATOM     15  N   UNL     1       6.383   3.587  15.007  0.00  0.00    +0.000 N 
ATOM     16  C   UNL     1       6.601   4.936  14.948  0.00  0.00    +0.000 C 
ATOM     17  O   UNL     1       7.717   5.397  14.748  0.00  0.00    +0.000 OA
ATOM     18  H   UNL     1       7.178   2.972  14.887  0.00  0.00    +0.000 HD
ATOM     19  H   UNL     1       5.474   3.179  15.171  0.00  0.00    +0.000 HD
ENDBRANCH  14  16
ENDBRANCH  13  14
ENDBRANCH   1  13
TORSDOF 4
ENDMDL
MODEL 3
REMARK VINA RESULT:      -6.5      1.687      2.074
REMARK  Name = 
REMARK  4 active torsions:
REMARK  status: ('A' for Active; 'I' for Inactive)
REMARK    1  A    between atoms: C_2  and  C_4
REMARK    2  A    between atoms: C_4  and  C_5
REMARK    3  A    between atoms: C_5  and  C_6
REMARK    4  A    between atoms: C_11  and  N_12
REMARK                            x       y       z     vdW  Elec       q    Type
REMARK                         _______ _______ _______ _____ _____    ______ ____
ROOT
ATOM      1  C   UNL     1       5.129   4.071  16.873  0.00  0.00    +0.000 A 
ATOM      2  C   UNL     1       3.779   3.777  17.154  0.00  0.00    +0.000 A 
ATOM      3  C   UNL     1       3.203   4.270  18.302  0.00  0.00    +0.000 A 
ATOM      4  C   UNL     1       3.910   5.008  19.218  0.00  0.00    +0.000 A 
ATOM      5  C   UNL     1       5.244   5.290  19.034  0.00  0.00    +0.000 A 
ATOM      6  C   UNL     1       5.846   4.812  17.854  0.00  0.00    +0.000 A 
ATOM      7  O   UNL     1       3.141   5.391  20.268  0.00  0.00    +0.000 OA
ATOM      8  C   UNL     1       1.855   4.858  19.879  0.00  0.00    +0.000 C 
ATOM      9  O   UNL     1       1.901   4.103  18.654  0.00  0.00    +0.000 OA
ENDROOT
BRANCH   6  10
ATOM     10  N   UNL     1       7.257   5.122  17.680  0.00  0.00    +0.000 N 
ATOM     11  O   UNL     1       8.076   4.358  18.204  0.00  0.00    +0.000 OA
ATOM     12  O   UNL     1       7.531   6.152  17.046  0.00  0.00    +0.000 OA
ENDBRANCH   6  10
BRANCH   1  13
ATOM     13  C   UNL     1       5.750   3.574  15.575  0.00  0.00    +0.000 C 
BRANCH  13  14
ATOM     14  C   UNL     1       5.631   4.583  14.425  0.00  0.00    +0.000 C 
BRANCH  14  16
ATOM     15  N   UNL     1       7.843   5.471  14.129  0.00  0.00    +0.000 N 
ATOM     16  C   UNL     1       6.869   4.687  13.576  0.00  0.00    +0.000 C 
ATOM     17  O   UNL     1       7.018   4.156  12.484  0.00  0.00    +0.000 OA
ATOM     18  H   UNL     1       8.697   5.608  13.605  0.00  0.00    +0.000 HD
ATOM     19  H   UNL     1       7.748   5.922  15.028  0.00  0.00    +0.000 HD
ENDBRANCH  14  16
ENDBRANCH  13  14
ENDBRANCH   1  13
TORSDOF 4
ENDMDL
MODEL 4
REMARK VINA RESULT:      -6.5      1.476      1.816
REMARK  Name = 
REMARK  4 active torsions:
REMARK  status: ('A' for Active; 'I' for Inactive)
REMARK    1  A    between atoms: C_2  and  C_4
REMARK    2  A    between atoms: C_4  and  C_5
REMARK    3  A    between atoms: C_5  and  C_6
REMARK    4  A    between atoms: C_11  and  N_12
REMARK                            x       y       z     vdW  Elec       q    Type
REMARK                         _______ _______ _______ _____ _____    ______ ____
ROOT
ATOM      1  C   UNL     1       4.949   4.477  16.706  0.00  0.00    +0.000 A 
ATOM      2  C   UNL     1       3.689   3.878  16.905  0.00  0.00    +0.000 A 
ATOM      3  C   UNL     1       3.357   3.394  18.150  0.00  0.00    +0.000 A 
ATOM      4  C   UNL     1       4.232   3.432  19.207  0.00  0.00    +0.000 A 
ATOM      5  C   UNL     1       5.497   3.957  19.073  0.00  0.00    +0.000 A 
ATOM      6  C   UNL     1       5.846   4.476  17.810  0.00  0.00    +0.000 A 
ATOM      7  O   UNL     1       3.692   2.905  20.336  0.00  0.00    +0.000 OA
ATOM      8  C   UNL     1       2.358   2.584  19.881  0.00  0.00    +0.000 C 
ATOM      9  O   UNL     1       2.157   2.848  18.479  0.00  0.00    +0.000 OA
ENDROOT
BRANCH   6  10
ATOM     10  N   UNL     1       7.188   5.026  17.691  0.00  0.00    +0.000 N 
ATOM     11  O   UNL     1       7.341   6.220  17.975  0.00  0.00    +0.000 OA
ATOM     12  O   UNL     1       8.073   4.262  17.277  0.00  0.00    +0.000 OA
ENDBRANCH   6  10
BRANCH   1  13
ATOM     13  C   UNL     1       5.293   5.063  15.344  0.00  0.00    +0.000 C 
BRANCH  13  14
ATOM     14  C   UNL     1       5.999   4.063  14.418  0.00  0.00    +0.000 C 
BRANCH  14  16
ATOM     15  N   UNL     1       7.942   5.472  14.331  0.00  0.00    +0.000 N 
ATOM     16  C   UNL     1       7.111   4.667  13.603  0.00  0.00    +0.000 C 
ATOM     17  O   UNL     1       7.274   4.495  12.403  0.00  0.00    +0.000 OA
ATOM     18  H   UNL     1       8.700   5.933  13.846  0.00  0.00    +0.000 HD
ATOM     19  H   UNL     1       7.831   5.632  15.322  0.00  0.00    +0.000 HD
ENDBRANCH  14  16
ENDBRANCH  13  14
ENDBRANCH   1  13
TORSDOF 4
ENDMDL
MODEL 5
REMARK VINA RESULT:      -6.5      2.322      5.054
REMARK  Name = 
REMARK  4 active torsions:
REMARK  status: ('A' for Active; 'I' for Inactive)
REMARK    1  A    between atoms: C_2  and  C_4
REMARK    2  A    between atoms: C_4  and  C_5
REMARK    3  A    between atoms: C_5  and  C_6
REMARK    4  A    between atoms: C_11  and  N_12
REMARK                            x       y       z     vdW  Elec       q    Type
REMARK                         _______ _______ _______ _____ _____    ______ ____
ROOT
ATOM      1  C   UNL     1       4.026   4.254  17.743  0.00  0.00    +0.000 A 
ATOM      2  C   UNL     1       4.494   5.292  16.911  0.00  0.00    +0.000 A 
ATOM      3  C   UNL     1       5.641   5.969  17.254  0.00  0.00    +0.000 A 
ATOM      4  C   UNL     1       6.332   5.702  18.409  0.00  0.00    +0.000 A 
ATOM      5  C   UNL     1       5.906   4.738  19.293  0.00  0.00    +0.000 A 
ATOM      6  C   UNL     1       4.744   4.019  18.948  0.00  0.00    +0.000 A 
ATOM      7  O   UNL     1       7.432   6.487  18.539  0.00  0.00    +0.000 OA
ATOM      8  C   UNL     1       7.384   7.238  17.305  0.00  0.00    +0.000 C 
ATOM      9  O   UNL     1       6.221   6.947  16.508  0.00  0.00    +0.000 OA
ENDROOT
BRANCH   6  10
ATOM     10  N   UNL     1       4.311   3.004  19.897  0.00  0.00    +0.000 N 
ATOM     11  O   UNL     1       3.441   3.324  20.715  0.00  0.00    +0.000 OA
ATOM     12  O   UNL     1       4.874   1.901  19.834  0.00  0.00    +0.000 OA
ENDBRANCH   6  10
BRANCH   1  13
ATOM     13  C   UNL     1       2.789   3.467  17.334  0.00  0.00    +0.000 C 
BRANCH  13  14
ATOM     14  C   UNL     1       1.489   4.043  17.912  0.00  0.00    +0.000 C 
BRANCH  14  16
ATOM     15  N   UNL     1       0.627   3.508  20.089  0.00  0.00    +0.000 N 
ATOM     16  C   UNL     1       0.736   3.084  18.794  0.00  0.00    +0.000 C 
ATOM     17  O   UNL     1       0.272   2.012  18.429  0.00  0.00    +0.000 OA
ATOM     18  H   UNL     1       0.154   2.904  20.748  0.00  0.00    +0.000 HD
ATOM     19  H   UNL     1       1.000   4.387  20.417  0.00  0.00    +0.000 HD
ENDBRANCH  14  16
ENDBRANCH  13  14
ENDBRANCH   1  13
TORSDOF 4
ENDMDL
MODEL 6
REMARK VINA RESULT:      -6.4      2.639      5.544
REMARK  Name = 
REMARK  4 active torsions:
REMARK  status: ('A' for Active; 'I' for Inactive)
REMARK    1  A    between atoms: C_2  and  C_4
REMARK    2  A    between atoms: C_4  and  C_5
REMARK    3  A    between atoms: C_5  and  C_6
REMARK    4  A    between atoms: C_11  and  N_12
REMARK                            x       y       z     vdW  Elec       q    Type
REMARK                         _______ _______ _______ _____ _____    ______ ____
ROOT
ATOM      1  C   UNL     1       3.325   4.989  18.993  0.00  0.00    +0.000 A 
ATOM      2  C   UNL     1       4.566   5.619  19.213  0.00  0.00    +0.000 A 
ATOM      3  C   UNL     1       5.631   5.322  18.395  0.00  0.00    +0.000 A 
ATOM      4  C   UNL     1       5.545   4.393  17.388  0.00  0.00    +0.000 A 
ATOM      5  C   UNL     1       4.379   3.703  17.148  0.00  0.00    +0.000 A 
ATOM      6  C   UNL     1       3.271   4.009  17.963  0.00  0.00    +0.000 A 
ATOM      7  O   UNL     1       6.713   4.267  16.708  0.00  0.00    +0.000 OA
ATOM      8  C   UNL     1       7.526   5.263  17.366  0.00  0.00    +0.000 C 
ATOM      9  O   UNL     1       6.858   5.902  18.471  0.00  0.00    +0.000 OA
ENDROOT
BRANCH   6  10
ATOM     10  N   UNL     1       2.048   3.268  17.691  0.00  0.00    +0.000 N 
ATOM     11  O   UNL     1       2.068   2.048  17.889  0.00  0.00    +0.000 OA
ATOM     12  O   UNL     1       1.087   3.914  17.249  0.00  0.00    +0.000 OA
ENDBRANCH   6  10
BRANCH   1  13
ATOM     13  C   UNL     1       2.132   5.361  19.863  0.00  0.00    +0.000 C 
BRANCH  13  14
ATOM     14  C   UNL     1       2.222   4.792  21.285  0.00  0.00    +0.000 C 
BRANCH  14  16
ATOM     15  N   UNL     1       0.775   2.984  20.647  0.00  0.00    +0.000 N 
ATOM     16  C   UNL     1       1.876   3.330  21.380  0.00  0.00    +0.000 C 
ATOM     17  O   UNL     1       2.482   2.508  22.054  0.00  0.00    +0.000 OA
ATOM     18  H   UNL     1       0.467   2.021  20.680  0.00  0.00    +0.000 HD
ATOM     19  H   UNL     1       0.256   3.641  20.082  0.00  0.00    +0.000 HD
ENDBRANCH  14  16
ENDBRANCH  13  14
ENDBRANCH   1  13
TORSDOF 4
ENDMDL
MODEL 7
REMARK VINA RESULT:      -6.4      2.330      3.176
REMARK  Name = 
REMARK  4 active torsions:
REMARK  status: ('A' for Active; 'I' for Inactive)
REMARK    1  A    between atoms: C_2  and  C_4
REMARK    2  A    between atoms: C_4  and  C_5
REMARK    3  A    between atoms: C_5  and  C_6
REMARK    4  A    between atoms: C_11  and  N_12
REMARK                            x       y       z     vdW  Elec       q    Type
REMARK                         _______ _______ _______ _____ _____    ______ ____
ROOT
ATOM      1  C   UNL     1       4.096   4.544  17.957  0.00  0.00    +0.000 A 
ATOM      2  C   UNL     1       3.691   5.883  17.785  0.00  0.00    +0.000 A 
ATOM      3  C   UNL     1       2.920   6.487  18.752  0.00  0.00    +0.000 A 
ATOM      4  C   UNL     1       2.489   5.817  19.869  0.00  0.00    +0.000 A 
ATOM      5  C   UNL     1       2.804   4.494  20.077  0.00  0.00    +0.000 A 
ATOM      6  C   UNL     1       3.610   3.864  19.108  0.00  0.00    +0.000 A 
ATOM      7  O   UNL     1       1.749   6.609  20.686  0.00  0.00    +0.000 OA
ATOM      8  C   UNL     1       1.812   7.869  19.982  0.00  0.00    +0.000 C 
ATOM      9  O   UNL     1       2.515   7.784  18.727  0.00  0.00    +0.000 OA
ENDROOT
BRANCH   6  10
ATOM     10  N   UNL     1       3.931   2.465  19.348  0.00  0.00    +0.000 N 
ATOM     11  O   UNL     1       3.220   1.616  18.797  0.00  0.00    +0.000 OA
ATOM     12  O   UNL     1       4.875   2.231  20.117  0.00  0.00    +0.000 OA
ENDBRANCH   6  10
BRANCH   1  13
ATOM     13  C   UNL     1       4.996   3.894  16.914  0.00  0.00    +0.000 C 
BRANCH  13  14
ATOM     14  C   UNL     1       5.554   4.894  15.892  0.00  0.00    +0.000 C 
BRANCH  14  16
ATOM     15  N   UNL     1       7.512   5.353  14.580  0.00  0.00    +0.000 N 
ATOM     16  C   UNL     1       7.054   4.873  15.774  0.00  0.00    +0.000 C 
ATOM     17  O   UNL     1       7.819   4.455  16.633  0.00  0.00    +0.000 OA
ATOM     18  H   UNL     1       8.511   5.348  14.417  0.00  0.00    +0.000 HD
ATOM     19  H   UNL     1       6.904   5.704  13.853  0.00  0.00    +0.000 HD
ENDBRANCH  14  16
ENDBRANCH  13  14
ENDBRANCH   1  13
TORSDOF 4
ENDMDL
MODEL 8
REMARK VINA RESULT:      -6.4      2.413      3.202
REMARK  Name = 
REMARK  4 active torsions:
REMARK  status: ('A' for Active; 'I' for Inactive)
REMARK    1  A    between atoms: C_2  and  C_4
REMARK    2  A    between atoms: C_4  and  C_5
REMARK    3  A    between atoms: C_5  and  C_6
REMARK    4  A    between atoms: C_11  and  N_12
REMARK                            x       y       z     vdW  Elec       q    Type
REMARK                         _______ _______ _______ _____ _____    ______ ____
ROOT
ATOM      1  C   UNL     1       4.085   4.577  17.892  0.00  0.00    +0.000 A 
ATOM      2  C   UNL     1       3.668   5.910  17.704  0.00  0.00    +0.000 A 
ATOM      3  C   UNL     1       2.912   6.526  18.674  0.00  0.00    +0.000 A 
ATOM      4  C   UNL     1       2.505   5.874  19.811  0.00  0.00    +0.000 A 
ATOM      5  C   UNL     1       2.833   4.556  20.037  0.00  0.00    +0.000 A 
ATOM      6  C   UNL     1       3.624   3.915  19.064  0.00  0.00    +0.000 A 
ATOM      7  O   UNL     1       1.776   6.676  20.627  0.00  0.00    +0.000 OA
ATOM      8  C   UNL     1       1.818   7.924  19.899  0.00  0.00    +0.000 C 
ATOM      9  O   UNL     1       2.498   7.820  18.634  0.00  0.00    +0.000 OA
ENDROOT
BRANCH   6  10
ATOM     10  N   UNL     1       3.959   2.522  19.323  0.00  0.00    +0.000 N 
ATOM     11  O   UNL     1       4.933   2.298  20.052  0.00  0.00    +0.000 OA
ATOM     12  O   UNL     1       3.261   1.664  18.764  0.00  0.00    +0.000 OA
ENDBRANCH   6  10
BRANCH   1  13
ATOM     13  C   UNL     1       4.969   3.913  16.844  0.00  0.00    +0.000 C 
BRANCH  13  14
ATOM     14  C   UNL     1       5.531   4.903  15.815  0.00  0.00    +0.000 C 
BRANCH  14  16
ATOM     15  N   UNL     1       7.645   4.310  16.788  0.00  0.00    +0.000 N 
ATOM     16  C   UNL     1       7.032   4.891  15.713  0.00  0.00    +0.000 C 
ATOM     17  O   UNL     1       7.676   5.362  14.786  0.00  0.00    +0.000 OA
ATOM     18  H   UNL     1       8.656   4.286  16.803  0.00  0.00    +0.000 HD
ATOM     19  H   UNL     1       7.139   3.913  17.567  0.00  0.00    +0.000 HD
ENDBRANCH  14  16
ENDBRANCH  13  14
ENDBRANCH   1  13
TORSDOF 4
ENDMDL
MODEL 9
REMARK VINA RESULT:      -6.4      2.759      3.335
REMARK  Name = 
REMARK  4 active torsions:
REMARK  status: ('A' for Active; 'I' for Inactive)
REMARK    1  A    between atoms: C_2  and  C_4
REMARK    2  A    between atoms: C_4  and  C_5
REMARK    3  A    between atoms: C_5  and  C_6
REMARK    4  A    between atoms: C_11  and  N_12
REMARK                            x       y       z     vdW  Elec       q    Type
REMARK                         _______ _______ _______ _____ _____    ______ ____
ROOT
ATOM      1  C   UNL     1       3.848   5.856  17.849  0.00  0.00    +0.000 A 
ATOM      2  C   UNL     1       3.224   7.118  17.910  0.00  0.00    +0.000 A 
ATOM      3  C   UNL     1       2.440   7.434  18.995  0.00  0.00    +0.000 A 
ATOM      4  C   UNL     1       2.203   6.543  20.012  0.00  0.00    +0.000 A 
ATOM      5  C   UNL     1       2.739   5.276  19.994  0.00  0.00    +0.000 A 
ATOM      6  C   UNL     1       3.562   4.941  18.900  0.00  0.00    +0.000 A 
ATOM      7  O   UNL     1       1.408   7.069  20.978  0.00  0.00    +0.000 OA
ATOM      8  C   UNL     1       1.219   8.413  20.480  0.00  0.00    +0.000 C 
ATOM      9  O   UNL     1       1.833   8.634  19.195  0.00  0.00    +0.000 OA
ENDROOT
BRANCH   6  10
ATOM     10  N   UNL     1       4.118   3.596  18.901  0.00  0.00    +0.000 N 
ATOM     11  O   UNL     1       3.478   2.716  18.315  0.00  0.00    +0.000 OA
ATOM     12  O   UNL     1       5.178   3.429  19.522  0.00  0.00    +0.000 OA
ENDBRANCH   6  10
BRANCH   1  13
ATOM     13  C   UNL     1       4.761   5.528  16.675  0.00  0.00    +0.000 C 
BRANCH  13  14
ATOM     14  C   UNL     1       6.202   6.018  16.876  0.00  0.00    +0.000 C 
BRANCH  14  16
ATOM     15  N   UNL     1       7.497   4.347  18.015  0.00  0.00    +0.000 N 
ATOM     16  C   UNL     1       7.233   4.925  16.805  0.00  0.00    +0.000 C 
ATOM     17  O   UNL     1       7.815   4.574  15.787  0.00  0.00    +0.000 OA
ATOM     18  H   UNL     1       8.198   3.619  18.052  0.00  0.00    +0.000 HD
ATOM     19  H   UNL     1       7.032   4.616  18.871  0.00  0.00    +0.000 HD
ENDBRANCH  14  16
ENDBRANCH  13  14
ENDBRANCH   1  13
TORSDOF 4
ENDMDL
