MODEL 1
REMARK VINA RESULT:      -7.9      0.000      0.000
REMARK  Name = 
REMARK  10 active torsions:
REMARK  status: ('A' for Active; 'I' for Inactive)
REMARK    1  A    between atoms: C_1  and  O_2
REMARK    2  A    between atoms: O_2  and  C_3
REMARK    3  A    between atoms: C_6  and  C_7
REMARK    4  A    between atoms: C_12  and  C_13
REMARK    5  A    between atoms: C_13  and  C_14
REMARK    6  A    between atoms: C_14  and  N_15
REMARK    7  A    between atoms: N_15  and  S_16
REMARK    8  A    between atoms: S_16  and  C_19
REMARK    9  A    between atoms: C_22  and  N_23
REMARK   10  A    between atoms: C_24  and  C_25
REMARK                            x       y       z     vdW  Elec       q    Type
REMARK                         _______ _______ _______ _____ _____    ______ ____
ROOT
ATOM      1  C   UNL     1       1.770   5.859  21.086  0.00  0.00    +0.000 C 
ENDROOT
BRANCH   1   7
ATOM      2  C   UNL     1       3.966   4.409  17.403  0.00  0.00    +0.000 A 
ATOM      3  N   UNL     1       3.126   3.317  17.262  0.00  0.00    +0.000 NA
ATOM      4  C   UNL     1       2.330   3.454  18.271  0.00  0.00    +0.000 A 
ATOM      5  S   UNL     1       0.991   2.547  18.871  0.00  0.00    +0.000 S 
ATOM      6  C   UNL     1       0.838   3.731  20.162  0.00  0.00    +0.000 A 
ATOM      7  C   UNL     1       1.749   4.728  20.106  0.00  0.00    +0.000 A 
ATOM      8  N   UNL     1       2.612   4.564  19.019  0.00  0.00    +0.000 N 
ATOM      9  N   UNL     1       3.686   5.200  18.473  0.00  0.00    +0.000 NA
BRANCH   2  13
ATOM     10  C   UNL     1       7.174   5.087  14.613  0.00  0.00    +0.000 A 
ATOM     11  C   UNL     1       7.187   5.638  15.888  0.00  0.00    +0.000 A 
ATOM     12  C   UNL     1       6.146   5.379  16.779  0.00  0.00    +0.000 A 
ATOM     13  C   UNL     1       5.046   4.576  16.418  0.00  0.00    +0.000 A 
ATOM     14  C   UNL     1       5.039   4.022  15.132  0.00  0.00    +0.000 A 
ATOM     15  C   UNL     1       6.100   4.277  14.232  0.00  0.00    +0.000 A 
BRANCH  10  17
ATOM     16  C   UNL     1       8.012   5.498  12.431  0.00  0.00    +0.000 C 
ATOM     17  O   UNL     1       8.230   5.462  13.833  0.00  0.00    +0.000 OA
ENDBRANCH  10  17
ENDBRANCH   2  13
ENDBRANCH   1   7
BRANCH   1  18
ATOM     18  C   UNL     1       1.460   7.255  20.543  0.00  0.00    +0.000 C 
BRANCH  18  19
ATOM     19  N   UNL     1       1.689   8.249  21.609  0.00  0.00    +0.000 NA
ATOM     20  H   UNL     1       2.568   8.769  21.604  0.00  0.00    +0.000 HD
BRANCH  19  21
ATOM     21  S   UNL     1       0.410   9.280  21.984  0.00  0.00    +0.000 S 
ATOM     22  O   UNL     1      -0.781   8.576  21.565  0.00  0.00    +0.000 OA
ATOM     23  O   UNL     1       0.576   9.740  23.346  0.00  0.00    +0.000 OA
BRANCH  21  24
ATOM     24  C   UNL     1       0.645  10.656  20.887  0.00  0.00    +0.000 A 
ATOM     25  C   UNL     1       0.536  11.954  21.381  0.00  0.00    +0.000 A 
ATOM     26  C   UNL     1       0.893  13.037  20.570  0.00  0.00    +0.000 A 
ATOM     27  C   UNL     1       1.368  12.840  19.269  0.00  0.00    +0.000 A 
ATOM     28  C   UNL     1       1.432  11.532  18.769  0.00  0.00    +0.000 A 
ATOM     29  C   UNL     1       1.082  10.439  19.577  0.00  0.00    +0.000 A 
BRANCH  27  30
ATOM     30  N   UNL     1       1.833  13.892  18.441  0.00  0.00    +0.000 N 
ATOM     31  C   UNL     1       3.041  14.553  18.547  0.00  0.00    +0.000 C 
ATOM     32  C   UNL     1       3.290  15.559  17.453  0.00  0.00    +0.000 C 
ATOM     33  O   UNL     1       3.885  14.404  19.431  0.00  0.00    +0.000 OA
ATOM     34  H   UNL     1       1.239  14.143  17.662  0.00  0.00    +0.000 HD
ENDBRANCH  27  30
ENDBRANCH  21  24
ENDBRANCH  19  21
ENDBRANCH  18  19
ENDBRANCH   1  18
TORSDOF 8
ENDMDL
MODEL 2
REMARK VINA RESULT:      -7.7      3.546      7.748
REMARK  Name = 
REMARK  10 active torsions:
REMARK  status: ('A' for Active; 'I' for Inactive)
REMARK    1  A    between atoms: C_1  and  O_2
REMARK    2  A    between atoms: O_2  and  C_3
REMARK    3  A    between atoms: C_6  and  C_7
REMARK    4  A    between atoms: C_12  and  C_13
REMARK    5  A    between atoms: C_13  and  C_14
REMARK    6  A    between atoms: C_14  and  N_15
REMARK    7  A    between atoms: N_15  and  S_16
REMARK    8  A    between atoms: S_16  and  C_19
REMARK    9  A    between atoms: C_22  and  N_23
REMARK   10  A    between atoms: C_24  and  C_25
REMARK                            x       y       z     vdW  Elec       q    Type
REMARK                         _______ _______ _______ _____ _____    ______ ____
ROOT
ATOM      1  C   UNL     1       3.473   3.836  16.795  0.00  0.00    +0.000 C 
ENDROOT
BRANCH   1   7
ATOM      2  C   UNL     1       1.992   6.742  19.934  0.00  0.00    +0.000 A 
ATOM      3  N   UNL     1       1.975   5.764  20.914  0.00  0.00    +0.000 NA
ATOM      4  C   UNL     1       2.364   4.718  20.261  0.00  0.00    +0.000 A 
ATOM      5  S   UNL     1       2.621   3.067  20.690  0.00  0.00    +0.000 S 
ATOM      6  C   UNL     1       3.104   2.767  19.026  0.00  0.00    +0.000 A 
ATOM      7  C   UNL     1       3.065   3.864  18.235  0.00  0.00    +0.000 A 
ATOM      8  N   UNL     1       2.632   4.986  18.947  0.00  0.00    +0.000 N 
ATOM      9  N   UNL     1       2.386   6.305  18.709  0.00  0.00    +0.000 NA
BRANCH   2  13
ATOM     10  C   UNL     1       0.675  10.635  21.214  0.00  0.00    +0.000 A 
ATOM     11  C   UNL     1       0.884   9.601  22.119  0.00  0.00    +0.000 A 
ATOM     12  C   UNL     1       1.336   8.359  21.677  0.00  0.00    +0.000 A 
ATOM     13  C   UNL     1       1.575   8.101  20.313  0.00  0.00    +0.000 A 
ATOM     14  C   UNL     1       1.365   9.148  19.406  0.00  0.00    +0.000 A 
ATOM     15  C   UNL     1       0.915  10.411  19.856  0.00  0.00    +0.000 A 
BRANCH  10  17
ATOM     16  C   UNL     1      -1.097  12.209  21.354  0.00  0.00    +0.000 C 
ATOM     17  O   UNL     1       0.188  11.780  21.779  0.00  0.00    +0.000 OA
ENDBRANCH  10  17
ENDBRANCH   2  13
ENDBRANCH   1   7
BRANCH   1  18
ATOM     18  C   UNL     1       4.953   3.598  16.498  0.00  0.00    +0.000 C 
BRANCH  18  19
ATOM     19  N   UNL     1       5.696   4.856  16.707  0.00  0.00    +0.000 NA
ATOM     20  H   UNL     1       5.163   5.717  16.831  0.00  0.00    +0.000 HD
BRANCH  19  21
ATOM     21  S   UNL     1       6.985   4.813  17.792  0.00  0.00    +0.000 S 
ATOM     22  O   UNL     1       6.429   4.301  19.024  0.00  0.00    +0.000 OA
ATOM     23  O   UNL     1       8.108   4.169  17.145  0.00  0.00    +0.000 OA
BRANCH  21  24
ATOM     24  C   UNL     1       7.379   6.526  18.043  0.00  0.00    +0.000 A 
ATOM     25  C   UNL     1       8.346   6.878  18.982  0.00  0.00    +0.000 A 
ATOM     26  C   UNL     1       8.789   8.203  19.060  0.00  0.00    +0.000 A 
ATOM     27  C   UNL     1       8.282   9.185  18.202  0.00  0.00    +0.000 A 
ATOM     28  C   UNL     1       7.278   8.827  17.291  0.00  0.00    +0.000 A 
ATOM     29  C   UNL     1       6.833   7.499  17.202  0.00  0.00    +0.000 A 
BRANCH  27  30
ATOM     30  N   UNL     1       8.762  10.517  18.173  0.00  0.00    +0.000 N 
ATOM     31  C   UNL     1       9.417  11.182  19.192  0.00  0.00    +0.000 C 
ATOM     32  C   UNL     1       9.895  12.561  18.820  0.00  0.00    +0.000 C 
ATOM     33  O   UNL     1       9.618  10.762  20.331  0.00  0.00    +0.000 OA
ATOM     34  H   UNL     1       8.661  11.010  17.295  0.00  0.00    +0.000 HD
ENDBRANCH  27  30
ENDBRANCH  21  24
ENDBRANCH  19  21
ENDBRANCH  18  19
ENDBRANCH   1  18
TORSDOF 8
ENDMDL
MODEL 3
REMARK VINA RESULT:      -7.7      3.320     10.096
REMARK  Name = 
REMARK  10 active torsions:
REMARK  status: ('A' for Active; 'I' for Inactive)
REMARK    1  A    between atoms: C_1  and  O_2
REMARK    2  A    between atoms: O_2  and  C_3
REMARK    3  A    between atoms: C_6  and  C_7
REMARK    4  A    between atoms: C_12  and  C_13
REMARK    5  A    between atoms: C_13  and  C_14
REMARK    6  A    between atoms: C_14  and  N_15
REMARK    7  A    between atoms: N_15  and  S_16
REMARK    8  A    between atoms: S_16  and  C_19
REMARK    9  A    between atoms: C_22  and  N_23
REMARK   10  A    between atoms: C_24  and  C_25
REMARK                            x       y       z     vdW  Elec       q    Type
REMARK                         _______ _______ _______ _____ _____    ______ ____
ROOT
ATOM      1  C   UNL     1       1.795   6.762  20.949  0.00  0.00    +0.000 C 
ENDROOT
BRANCH   1   7
ATOM      2  C   UNL     1      -0.468  10.675  20.699  0.00  0.00    +0.000 A 
ATOM      3  N   UNL     1       0.042  10.955  19.443  0.00  0.00    +0.000 NA
ATOM      4  C   UNL     1       0.811   9.939  19.228  0.00  0.00    +0.000 A 
ATOM      5  S   UNL     1       1.838   9.469  17.923  0.00  0.00    +0.000 S 
ATOM      6  C   UNL     1       2.242   8.022  18.835  0.00  0.00    +0.000 A 
ATOM      7  C   UNL     1       1.621   7.933  20.033  0.00  0.00    +0.000 A 
ATOM      8  N   UNL     1       0.801   9.042  20.260  0.00  0.00    +0.000 N 
ATOM      9  N   UNL     1      -0.024   9.509  21.239  0.00  0.00    +0.000 NA
BRANCH   2  13
ATOM     10  C   UNL     1      -3.207  13.388  22.613  0.00  0.00    +0.000 A 
ATOM     11  C   UNL     1      -2.476  12.456  23.339  0.00  0.00    +0.000 A 
ATOM     12  C   UNL     1      -1.577  11.608  22.694  0.00  0.00    +0.000 A 
ATOM     13  C   UNL     1      -1.393  11.650  21.298  0.00  0.00    +0.000 A 
ATOM     14  C   UNL     1      -2.131  12.592  20.572  0.00  0.00    +0.000 A 
ATOM     15  C   UNL     1      -3.036  13.458  21.228  0.00  0.00    +0.000 A 
BRANCH  10  17
ATOM     16  C   UNL     1      -5.316  13.499  23.697  0.00  0.00    +0.000 C 
ATOM     17  O   UNL     1      -4.082  14.119  23.366  0.00  0.00    +0.000 OA
ENDBRANCH  10  17
ENDBRANCH   2  13
ENDBRANCH   1   7
BRANCH   1  18
ATOM     18  C   UNL     1       1.715   5.371  20.320  0.00  0.00    +0.000 C 
BRANCH  18  19
ATOM     19  N   UNL     1       2.185   4.372  21.299  0.00  0.00    +0.000 NA
ATOM     20  H   UNL     1       1.668   4.271  22.173  0.00  0.00    +0.000 HD
BRANCH  19  21
ATOM     21  S   UNL     1       2.611   2.855  20.701  0.00  0.00    +0.000 S 
ATOM     22  O   UNL     1       3.479   2.280  21.705  0.00  0.00    +0.000 OA
ATOM     23  O   UNL     1       1.407   2.179  20.267  0.00  0.00    +0.000 OA
BRANCH  21  24
ATOM     24  C   UNL     1       3.600   3.228  19.275  0.00  0.00    +0.000 A 
ATOM     25  C   UNL     1       3.263   2.673  18.042  0.00  0.00    +0.000 A 
ATOM     26  C   UNL     1       3.925   3.100  16.885  0.00  0.00    +0.000 A 
ATOM     27  C   UNL     1       4.917   4.085  16.942  0.00  0.00    +0.000 A 
ATOM     28  C   UNL     1       5.276   4.604  18.194  0.00  0.00    +0.000 A 
ATOM     29  C   UNL     1       4.614   4.186  19.358  0.00  0.00    +0.000 A 
BRANCH  27  30
ATOM     30  N   UNL     1       5.549   4.621  15.794  0.00  0.00    +0.000 N 
ATOM     31  C   UNL     1       6.906   4.649  15.536  0.00  0.00    +0.000 C 
ATOM     32  C   UNL     1       7.264   5.197  14.178  0.00  0.00    +0.000 C 
ATOM     33  O   UNL     1       7.806   4.293  16.297  0.00  0.00    +0.000 OA
ATOM     34  H   UNL     1       4.937   4.969  15.067  0.00  0.00    +0.000 HD
ENDBRANCH  27  30
ENDBRANCH  21  24
ENDBRANCH  19  21
ENDBRANCH  18  19
ENDBRANCH   1  18
TORSDOF 8
ENDMDL
MODEL 4
REMARK VINA RESULT:      -7.6      3.180      7.486
REMARK  Name = 
REMARK  10 active torsions:
REMARK  status: ('A' for Active; 'I' for Inactive)
REMARK    1  A    between atoms: C_1  and  O_2
REMARK    2  A    between atoms: O_2  and  C_3
REMARK    3  A    between atoms: C_6  and  C_7
REMARK    4  A    between atoms: C_12  and  C_13
REMARK    5  A    between atoms: C_13  and  C_14
REMARK    6  A    between atoms: C_14  and  N_15
REMARK    7  A    between atoms: N_15  and  S_16
REMARK    8  A    between atoms: S_16  and  C_19
REMARK    9  A    between atoms: C_22  and  N_23
REMARK   10  A    between atoms: C_24  and  C_25
REMARK                            x       y       z     vdW  Elec       q    Type
REMARK                         _______ _______ _______ _____ _____    ______ ____
ROOT
ATOM      1  C   UNL     1       3.057   2.665  17.765  0.00  0.00    +0.000 C 
ENDROOT
BRANCH   1   7
ATOM      2  C   UNL     1       1.838   6.587  19.666  0.00  0.00    +0.000 A 
ATOM      3  N   UNL     1       1.543   5.977  20.873  0.00  0.00    +0.000 NA
ATOM      4  C   UNL     1       1.794   4.734  20.618  0.00  0.00    +0.000 A 
ATOM      5  S   UNL     1       1.697   3.279  21.540  0.00  0.00    +0.000 S 
ATOM      6  C   UNL     1       2.277   2.409  20.127  0.00  0.00    +0.000 A 
ATOM      7  C   UNL     1       2.521   3.199  19.056  0.00  0.00    +0.000 A 
ATOM      8  N   UNL     1       2.235   4.537  19.339  0.00  0.00    +0.000 N 
ATOM      9  N   UNL     1       2.264   5.737  18.694  0.00  0.00    +0.000 NA
BRANCH   2  13
ATOM     10  C   UNL     1       1.134  10.832  19.539  0.00  0.00    +0.000 A 
ATOM     11  C   UNL     1       0.975  10.101  20.710  0.00  0.00    +0.000 A 
ATOM     12  C   UNL     1       1.236   8.731  20.726  0.00  0.00    +0.000 A 
ATOM     13  C   UNL     1       1.645   8.043  19.567  0.00  0.00    +0.000 A 
ATOM     14  C   UNL     1       1.805   8.785  18.391  0.00  0.00    +0.000 A 
ATOM     15  C   UNL     1       1.549  10.176  18.377  0.00  0.00    +0.000 A 
BRANCH  10  17
ATOM     16  C   UNL     1       1.037  12.977  18.526  0.00  0.00    +0.000 C 
ATOM     17  O   UNL     1       0.799  12.151  19.657  0.00  0.00    +0.000 OA
ENDBRANCH  10  17
ENDBRANCH   2  13
ENDBRANCH   1   7
BRANCH   1  18
ATOM     18  C   UNL     1       4.539   2.289  17.730  0.00  0.00    +0.000 C 
BRANCH  18  19
ATOM     19  N   UNL     1       5.349   3.496  17.985  0.00  0.00    +0.000 NA
ATOM     20  H   UNL     1       6.206   3.397  18.530  0.00  0.00    +0.000 HD
BRANCH  19  21
ATOM     21  S   UNL     1       5.608   4.535  16.685  0.00  0.00    +0.000 S 
ATOM     22  O   UNL     1       6.298   3.739  15.694  0.00  0.00    +0.000 OA
ATOM     23  O   UNL     1       4.363   5.208  16.380  0.00  0.00    +0.000 OA
BRANCH  21  24
ATOM     24  C   UNL     1       6.757   5.728  17.323  0.00  0.00    +0.000 A 
ATOM     25  C   UNL     1       6.883   6.965  16.695  0.00  0.00    +0.000 A 
ATOM     26  C   UNL     1       7.650   7.972  17.291  0.00  0.00    +0.000 A 
ATOM     27  C   UNL     1       8.290   7.762  18.517  0.00  0.00    +0.000 A 
ATOM     28  C   UNL     1       8.191   6.498  19.117  0.00  0.00    +0.000 A 
ATOM     29  C   UNL     1       7.419   5.485  18.529  0.00  0.00    +0.000 A 
BRANCH  27  30
ATOM     30  N   UNL     1       8.998   8.774  19.210  0.00  0.00    +0.000 N 
ATOM     31  C   UNL     1       9.019  10.122  18.908  0.00  0.00    +0.000 C 
ATOM     32  C   UNL     1       9.786  10.962  19.896  0.00  0.00    +0.000 C 
ATOM     33  O   UNL     1       8.498  10.664  17.933  0.00  0.00    +0.000 OA
ATOM     34  H   UNL     1       9.494   8.483  20.043  0.00  0.00    +0.000 HD
ENDBRANCH  27  30
ENDBRANCH  21  24
ENDBRANCH  19  21
ENDBRANCH  18  19
ENDBRANCH   1  18
TORSDOF 8
ENDMDL
MODEL 5
REMARK VINA RESULT:      -7.6      3.253      4.047
REMARK  Name = 
REMARK  10 active torsions:
REMARK  status: ('A' for Active; 'I' for Inactive)
REMARK    1  A    between atoms: C_1  and  O_2
REMARK    2  A    between atoms: O_2  and  C_3
REMARK    3  A    between atoms: C_6  and  C_7
REMARK    4  A    between atoms: C_12  and  C_13
REMARK    5  A    between atoms: C_13  and  C_14
REMARK    6  A    between atoms: C_14  and  N_15
REMARK    7  A    between atoms: N_15  and  S_16
REMARK    8  A    between atoms: S_16  and  C_19
REMARK    9  A    between atoms: C_22  and  N_23
REMARK   10  A    between atoms: C_24  and  C_25
REMARK                            x       y       z     vdW  Elec       q    Type
REMARK                         _______ _______ _______ _____ _____    ______ ____
ROOT
ATOM      1  C   UNL     1       1.720   6.497  20.989  0.00  0.00    +0.000 C 
ENDROOT
BRANCH   1   7
ATOM      2  C   UNL     1       4.427   4.568  17.917  0.00  0.00    +0.000 A 
ATOM      3  N   UNL     1       4.267   3.313  18.479  0.00  0.00    +0.000 NA
ATOM      4  C   UNL     1       3.491   3.562  19.483  0.00  0.00    +0.000 A 
ATOM      5  S   UNL     1       2.792   2.590  20.725  0.00  0.00    +0.000 S 
ATOM      6  C   UNL     1       2.027   4.042  21.355  0.00  0.00    +0.000 A 
ATOM      7  C   UNL     1       2.301   5.161  20.646  0.00  0.00    +0.000 A 
ATOM      8  N   UNL     1       3.150   4.883  19.571  0.00  0.00    +0.000 N 
ATOM      9  N   UNL     1       3.759   5.562  18.559  0.00  0.00    +0.000 NA
BRANCH   2  13
ATOM     10  C   UNL     1       6.818   4.778  14.343  0.00  0.00    +0.000 A 
ATOM     11  C   UNL     1       5.449   4.544  14.293  0.00  0.00    +0.000 A 
ATOM     12  C   UNL     1       4.697   4.508  15.466  0.00  0.00    +0.000 A 
ATOM     13  C   UNL     1       5.291   4.684  16.731  0.00  0.00    +0.000 A 
ATOM     14  C   UNL     1       6.670   4.921  16.775  0.00  0.00    +0.000 A 
ATOM     15  C   UNL     1       7.431   4.967  15.585  0.00  0.00    +0.000 A 
BRANCH  10  17
ATOM     16  C   UNL     1       6.966   3.771  12.199  0.00  0.00    +0.000 C 
ATOM     17  O   UNL     1       7.434   4.740  13.125  0.00  0.00    +0.000 OA
ENDBRANCH  10  17
ENDBRANCH   2  13
ENDBRANCH   1   7
BRANCH   1  18
ATOM     18  C   UNL     1       1.718   7.557  19.887  0.00  0.00    +0.000 C 
BRANCH  18  19
ATOM     19  N   UNL     1       0.822   8.661  20.280  0.00  0.00    +0.000 NA
ATOM     20  H   UNL     1       0.685   8.842  21.275  0.00  0.00    +0.000 HD
BRANCH  19  21
ATOM     21  S   UNL     1       0.984  10.115  19.445  0.00  0.00    +0.000 S 
ATOM     22  O   UNL     1       1.459  11.066  20.426  0.00  0.00    +0.000 OA
ATOM     23  O   UNL     1       1.716   9.863  18.222  0.00  0.00    +0.000 OA
BRANCH  21  24
ATOM     24  C   UNL     1      -0.686  10.550  19.030  0.00  0.00    +0.000 A 
ATOM     25  C   UNL     1      -1.344  11.530  19.769  0.00  0.00    +0.000 A 
ATOM     26  C   UNL     1      -2.590  12.004  19.341  0.00  0.00    +0.000 A 
ATOM     27  C   UNL     1      -3.186  11.515  18.174  0.00  0.00    +0.000 A 
ATOM     28  C   UNL     1      -2.533  10.497  17.463  0.00  0.00    +0.000 A 
ATOM     29  C   UNL     1      -1.281  10.021  17.882  0.00  0.00    +0.000 A 
BRANCH  27  30
ATOM     30  N   UNL     1      -4.396  12.025  17.643  0.00  0.00    +0.000 N 
ATOM     31  C   UNL     1      -5.676  11.616  17.965  0.00  0.00    +0.000 C 
ATOM     32  C   UNL     1      -6.764  12.424  17.306  0.00  0.00    +0.000 C 
ATOM     33  O   UNL     1      -5.983  10.680  18.703  0.00  0.00    +0.000 OA
ATOM     34  H   UNL     1      -4.310  12.804  17.004  0.00  0.00    +0.000 HD
ENDBRANCH  27  30
ENDBRANCH  21  24
ENDBRANCH  19  21
ENDBRANCH  18  19
ENDBRANCH   1  18
TORSDOF 8
ENDMDL
MODEL 6
REMARK VINA RESULT:      -7.6      1.632      1.669
REMARK  Name = 
REMARK  10 active torsions:
REMARK  status: ('A' for Active; 'I' for Inactive)
REMARK    1  A    between atoms: C_1  and  O_2
REMARK    2  A    between atoms: O_2  and  C_3
REMARK    3  A    between atoms: C_6  and  C_7
REMARK    4  A    between atoms: C_12  and  C_13
REMARK    5  A    between atoms: C_13  and  C_14
REMARK    6  A    between atoms: C_14  and  N_15
REMARK    7  A    between atoms: N_15  and  S_16
REMARK    8  A    between atoms: S_16  and  C_19
REMARK    9  A    between atoms: C_22  and  N_23
REMARK   10  A    between atoms: C_24  and  C_25
REMARK                            x       y       z     vdW  Elec       q    Type
REMARK                         _______ _______ _______ _____ _____    ______ ____
ROOT
ATOM      1  C   UNL     1       1.178   6.133  20.790  0.00  0.00    +0.000 C 
ENDROOT
BRANCH   1   7
ATOM      2  C   UNL     1       4.355   4.406  18.068  0.00  0.00    +0.000 A 
ATOM      3  N   UNL     1       4.365   3.200  18.749  0.00  0.00    +0.000 NA
ATOM      4  C   UNL     1       3.496   3.409  19.683  0.00  0.00    +0.000 A 
ATOM      5  S   UNL     1       2.885   2.455  20.985  0.00  0.00    +0.000 S 
ATOM      6  C   UNL     1       1.856   3.811  21.423  0.00  0.00    +0.000 A 
ATOM      7  C   UNL     1       1.989   4.888  20.616  0.00  0.00    +0.000 A 
ATOM      8  N   UNL     1       2.940   4.656  19.618  0.00  0.00    +0.000 N 
ATOM      9  N   UNL     1       3.495   5.330  18.571  0.00  0.00    +0.000 NA
BRANCH   2  13
ATOM     10  C   UNL     1       7.085   5.018  14.796  0.00  0.00    +0.000 A 
ATOM     11  C   UNL     1       7.347   5.513  16.068  0.00  0.00    +0.000 A 
ATOM     12  C   UNL     1       6.456   5.275  17.114  0.00  0.00    +0.000 A 
ATOM     13  C   UNL     1       5.263   4.553  16.919  0.00  0.00    +0.000 A 
ATOM     14  C   UNL     1       5.005   4.055  15.636  0.00  0.00    +0.000 A 
ATOM     15  C   UNL     1       5.913   4.288  14.578  0.00  0.00    +0.000 A 
BRANCH  10  17
ATOM     16  C   UNL     1       7.676   5.142  12.500  0.00  0.00    +0.000 C 
ATOM     17  O   UNL     1       8.018   5.365  13.861  0.00  0.00    +0.000 OA
ENDBRANCH  10  17
ENDBRANCH   2  13
ENDBRANCH   1   7
BRANCH   1  18
ATOM     18  C   UNL     1       1.941   7.458  20.838  0.00  0.00    +0.000 C 
BRANCH  18  19
ATOM     19  N   UNL     1       1.017   8.559  20.505  0.00  0.00    +0.000 NA
ATOM     20  H   UNL     1       0.277   8.380  19.824  0.00  0.00    +0.000 HD
BRANCH  19  21
ATOM     21  S   UNL     1       0.414   9.470  21.788  0.00  0.00    +0.000 S 
ATOM     22  O   UNL     1      -0.731   8.731  22.273  0.00  0.00    +0.000 OA
ATOM     23  O   UNL     1       1.515   9.817  22.661  0.00  0.00    +0.000 OA
BRANCH  21  24
ATOM     24  C   UNL     1      -0.182  10.949  21.008  0.00  0.00    +0.000 A 
ATOM     25  C   UNL     1      -0.781  11.940  21.784  0.00  0.00    +0.000 A 
ATOM     26  C   UNL     1      -1.091  13.178  21.210  0.00  0.00    +0.000 A 
ATOM     27  C   UNL     1      -0.801  13.444  19.867  0.00  0.00    +0.000 A 
ATOM     28  C   UNL     1      -0.238  12.424  19.087  0.00  0.00    +0.000 A 
ATOM     29  C   UNL     1       0.081  11.182  19.656  0.00  0.00    +0.000 A 
BRANCH  27  30
ATOM     30  N   UNL     1      -1.005  14.708  19.262  0.00  0.00    +0.000 N 
ATOM     31  C   UNL     1      -0.037  15.651  18.973  0.00  0.00    +0.000 C 
ATOM     32  C   UNL     1      -0.554  16.858  18.234  0.00  0.00    +0.000 C 
ATOM     33  O   UNL     1       1.156  15.593  19.270  0.00  0.00    +0.000 OA
ATOM     34  H   UNL     1      -1.949  14.915  18.965  0.00  0.00    +0.000 HD
ENDBRANCH  27  30
ENDBRANCH  21  24
ENDBRANCH  19  21
ENDBRANCH  18  19
ENDBRANCH   1  18
TORSDOF 8
ENDMDL
MODEL 7
REMARK VINA RESULT:      -7.4      6.349     11.171
REMARK  Name = 
REMARK  10 active torsions:
REMARK  status: ('A' for Active; 'I' for Inactive)
REMARK    1  A    between atoms: C_1  and  O_2
REMARK    2  A    between atoms: O_2  and  C_3
REMARK    3  A    between atoms: C_6  and  C_7
REMARK    4  A    between atoms: C_12  and  C_13
REMARK    5  A    between atoms: C_13  and  C_14
REMARK    6  A    between atoms: C_14  and  N_15
REMARK    7  A    between atoms: N_15  and  S_16
REMARK    8  A    between atoms: S_16  and  C_19
REMARK    9  A    between atoms: C_22  and  N_23
REMARK   10  A    between atoms: C_24  and  C_25
REMARK                            x       y       z     vdW  Elec       q    Type
REMARK                         _______ _______ _______ _____ _____    ______ ____
ROOT
ATOM      1  C   UNL     1       8.139   9.999  17.896  0.00  0.00    +0.000 C 
ENDROOT
BRANCH   1   7
ATOM      2  C   UNL     1       9.245  12.382  21.581  0.00  0.00    +0.000 A 
ATOM      3  N   UNL     1      10.471  12.744  21.050  0.00  0.00    +0.000 NA
ATOM      4  C   UNL     1      10.459  12.144  19.904  0.00  0.00    +0.000 A 
ATOM      5  S   UNL     1      11.578  12.039  18.596  0.00  0.00    +0.000 S 
ATOM      6  C   UNL     1      10.416  11.022  17.756  0.00  0.00    +0.000 A 
ATOM      7  C   UNL     1       9.274  10.805  18.446  0.00  0.00    +0.000 A 
ATOM      8  N   UNL     1       9.303  11.447  19.687  0.00  0.00    +0.000 N 
ATOM      9  N   UNL     1       8.496  11.582  20.777  0.00  0.00    +0.000 NA
BRANCH   2  13
ATOM     10  C   UNL     1       8.127  13.654  25.539  0.00  0.00    +0.000 A 
ATOM     11  C   UNL     1       8.107  12.315  25.170  0.00  0.00    +0.000 A 
ATOM     12  C   UNL     1       8.500  11.931  23.889  0.00  0.00    +0.000 A 
ATOM     13  C   UNL     1       8.907  12.875  22.926  0.00  0.00    +0.000 A 
ATOM     14  C   UNL     1       8.926  14.223  23.304  0.00  0.00    +0.000 A 
ATOM     15  C   UNL     1       8.537  14.611  24.607  0.00  0.00    +0.000 A 
BRANCH  10  17
ATOM     16  C   UNL     1       6.319  13.556  27.075  0.00  0.00    +0.000 C 
ATOM     17  O   UNL     1       7.673  13.890  26.806  0.00  0.00    +0.000 OA
ENDBRANCH  10  17
ENDBRANCH   2  13
ENDBRANCH   1   7
BRANCH   1  18
ATOM     18  C   UNL     1       8.191   8.486  18.115  0.00  0.00    +0.000 C 
BRANCH  18  19
ATOM     19  N   UNL     1       7.168   7.841  17.270  0.00  0.00    +0.000 NA
ATOM     20  H   UNL     1       6.895   8.304  16.402  0.00  0.00    +0.000 HD
BRANCH  19  21
ATOM     21  S   UNL     1       7.318   6.182  17.016  0.00  0.00    +0.000 S 
ATOM     22  O   UNL     1       7.715   6.043  15.633  0.00  0.00    +0.000 OA
ATOM     23  O   UNL     1       8.112   5.624  18.090  0.00  0.00    +0.000 OA
BRANCH  21  24
ATOM     24  C   UNL     1       5.654   5.582  17.168  0.00  0.00    +0.000 A 
ATOM     25  C   UNL     1       5.253   4.474  16.424  0.00  0.00    +0.000 A 
ATOM     26  C   UNL     1       4.006   3.889  16.669  0.00  0.00    +0.000 A 
ATOM     27  C   UNL     1       3.153   4.391  17.657  0.00  0.00    +0.000 A 
ATOM     28  C   UNL     1       3.550   5.533  18.368  0.00  0.00    +0.000 A 
ATOM     29  C   UNL     1       4.801   6.123  18.134  0.00  0.00    +0.000 A 
BRANCH  27  30
ATOM     30  N   UNL     1       1.925   3.781  18.011  0.00  0.00    +0.000 N 
ATOM     31  C   UNL     1       1.760   2.561  18.638  0.00  0.00    +0.000 C 
ATOM     32  C   UNL     1       0.328   2.230  18.973  0.00  0.00    +0.000 C 
ATOM     33  O   UNL     1       2.646   1.754  18.918  0.00  0.00    +0.000 OA
ATOM     34  H   UNL     1       1.089   4.322  17.833  0.00  0.00    +0.000 HD
ENDBRANCH  27  30
ENDBRANCH  21  24
ENDBRANCH  19  21
ENDBRANCH  18  19
ENDBRANCH   1  18
TORSDOF 8
ENDMDL
MODEL 8
REMARK VINA RESULT:      -7.4      3.194      4.066
REMARK  Name = 
REMARK  10 active torsions:
REMARK  status: ('A' for Active; 'I' for Inactive)
REMARK    1  A    between atoms: C_1  and  O_2
REMARK    2  A    between atoms: O_2  and  C_3
REMARK    3  A    between atoms: C_6  and  C_7
REMARK    4  A    between atoms: C_12  and  C_13
REMARK    5  A    between atoms: C_13  and  C_14
REMARK    6  A    between atoms: C_14  and  N_15
REMARK    7  A    between atoms: N_15  and  S_16
REMARK    8  A    between atoms: S_16  and  C_19
REMARK    9  A    between atoms: C_22  and  N_23
REMARK   10  A    between atoms: C_24  and  C_25
REMARK                            x       y       z     vdW  Elec       q    Type
REMARK                         _______ _______ _______ _____ _____    ______ ____
ROOT
ATOM      1  C   UNL     1       1.163   6.282  20.848  0.00  0.00    +0.000 C 
ENDROOT
BRANCH   1   7
ATOM      2  C   UNL     1       4.347   4.539  18.144  0.00  0.00    +0.000 A 
ATOM      3  N   UNL     1       4.377   3.349  18.851  0.00  0.00    +0.000 NA
ATOM      4  C   UNL     1       3.510   3.566  19.786  0.00  0.00    +0.000 A 
ATOM      5  S   UNL     1       2.920   2.632  21.110  0.00  0.00    +0.000 S 
ATOM      6  C   UNL     1       1.875   3.983  21.526  0.00  0.00    +0.000 A 
ATOM      7  C   UNL     1       1.989   5.044  20.696  0.00  0.00    +0.000 A 
ATOM      8  N   UNL     1       2.937   4.804  19.697  0.00  0.00    +0.000 N 
ATOM      9  N   UNL     1       3.477   5.463  18.633  0.00  0.00    +0.000 NA
BRANCH   2  13
ATOM     10  C   UNL     1       7.039   5.125  14.836  0.00  0.00    +0.000 A 
ATOM     11  C   UNL     1       7.259   5.723  16.071  0.00  0.00    +0.000 A 
ATOM     12  C   UNL     1       6.383   5.493  17.132  0.00  0.00    +0.000 A 
ATOM     13  C   UNL     1       5.247   4.674  16.988  0.00  0.00    +0.000 A 
ATOM     14  C   UNL     1       5.031   4.074  15.741  0.00  0.00    +0.000 A 
ATOM     15  C   UNL     1       5.924   4.299  14.669  0.00  0.00    +0.000 A 
BRANCH  10  17
ATOM     16  C   UNL     1       7.676   5.050  12.551  0.00  0.00    +0.000 C 
ATOM     17  O   UNL     1       7.947   5.475  13.879  0.00  0.00    +0.000 OA
ENDBRANCH  10  17
ENDBRANCH   2  13
ENDBRANCH   1   7
BRANCH   1  18
ATOM     18  C   UNL     1       1.746   7.580  20.289  0.00  0.00    +0.000 C 
BRANCH  18  19
ATOM     19  N   UNL     1       0.643   8.454  19.845  0.00  0.00    +0.000 NA
ATOM     20  H   UNL     1      -0.207   8.484  20.410  0.00  0.00    +0.000 HD
BRANCH  19  21
ATOM     21  S   UNL     1       1.052  10.006  19.334  0.00  0.00    +0.000 S 
ATOM     22  O   UNL     1       1.422  10.718  20.538  0.00  0.00    +0.000 OA
ATOM     23  O   UNL     1       1.960   9.896  18.213  0.00  0.00    +0.000 OA
BRANCH  21  24
ATOM     24  C   UNL     1      -0.487  10.677  18.756  0.00  0.00    +0.000 A 
ATOM     25  C   UNL     1      -1.138  10.073  17.681  0.00  0.00    +0.000 A 
ATOM     26  C   UNL     1      -2.430  10.483  17.335  0.00  0.00    +0.000 A 
ATOM     27  C   UNL     1      -3.088  11.485  18.055  0.00  0.00    +0.000 A 
ATOM     28  C   UNL     1      -2.406  12.113  19.107  0.00  0.00    +0.000 A 
ATOM     29  C   UNL     1      -1.112  11.705  19.465  0.00  0.00    +0.000 A 
BRANCH  27  30
ATOM     30  N   UNL     1      -4.429  11.870  17.809  0.00  0.00    +0.000 N 
ATOM     31  C   UNL     1      -5.567  11.179  18.178  0.00  0.00    +0.000 C 
ATOM     32  C   UNL     1      -6.853  11.898  17.861  0.00  0.00    +0.000 C 
ATOM     33  O   UNL     1      -5.613  10.069  18.707  0.00  0.00    +0.000 OA
ATOM     34  H   UNL     1      -4.562  12.769  17.364  0.00  0.00    +0.000 HD
ENDBRANCH  27  30
ENDBRANCH  21  24
ENDBRANCH  19  21
ENDBRANCH  18  19
ENDBRANCH   1  18
TORSDOF 8
ENDMDL
MODEL 9
REMARK VINA RESULT:      -7.4      3.417      5.532
REMARK  Name = 
REMARK  10 active torsions:
REMARK  status: ('A' for Active; 'I' for Inactive)
REMARK    1  A    between atoms: C_1  and  O_2
REMARK    2  A    between atoms: O_2  and  C_3
REMARK    3  A    between atoms: C_6  and  C_7
REMARK    4  A    between atoms: C_12  and  C_13
REMARK    5  A    between atoms: C_13  and  C_14
REMARK    6  A    between atoms: C_14  and  N_15
REMARK    7  A    between atoms: N_15  and  S_16
REMARK    8  A    between atoms: S_16  and  C_19
REMARK    9  A    between atoms: C_22  and  N_23
REMARK   10  A    between atoms: C_24  and  C_25
REMARK                            x       y       z     vdW  Elec       q    Type
REMARK                         _______ _______ _______ _____ _____    ______ ____
ROOT
ATOM      1  C   UNL     1       0.211  11.081  18.798  0.00  0.00    +0.000 C 
ENDROOT
BRANCH   1   7
ATOM      2  C   UNL     1       2.591   7.234  18.640  0.00  0.00    +0.000 A 
ATOM      3  N   UNL     1       2.322   6.946  19.967  0.00  0.00    +0.000 NA
ATOM      4  C   UNL     1       1.613   7.965  20.328  0.00  0.00    +0.000 A 
ATOM      5  S   UNL     1       0.863   8.436  21.809  0.00  0.00    +0.000 S 
ATOM      6  C   UNL     1       0.276   9.876  20.989  0.00  0.00    +0.000 A 
ATOM      7  C   UNL     1       0.638   9.956  19.688  0.00  0.00    +0.000 A 
ATOM      8  N   UNL     1       1.414   8.856  19.311  0.00  0.00    +0.000 N 
ATOM      9  N   UNL     1       2.053   8.402  18.197  0.00  0.00    +0.000 NA
BRANCH   2  13
ATOM     10  C   UNL     1       5.064   4.605  16.295  0.00  0.00    +0.000 A 
ATOM     11  C   UNL     1       5.318   5.969  16.372  0.00  0.00    +0.000 A 
ATOM     12  C   UNL     1       4.514   6.791  17.161  0.00  0.00    +0.000 A 
ATOM     13  C   UNL     1       3.418   6.281  17.883  0.00  0.00    +0.000 A 
ATOM     14  C   UNL     1       3.169   4.905  17.803  0.00  0.00    +0.000 A 
ATOM     15  C   UNL     1       3.989   4.070  17.010  0.00  0.00    +0.000 A 
BRANCH  10  17
ATOM     16  C   UNL     1       6.419   4.657  14.346  0.00  0.00    +0.000 C 
ATOM     17  O   UNL     1       5.900   3.930  15.450  0.00  0.00    +0.000 OA
ENDBRANCH  10  17
ENDBRANCH   2  13
ENDBRANCH   1   7
BRANCH   1  18
ATOM     18  C   UNL     1       1.067  12.348  18.822  0.00  0.00    +0.000 C 
BRANCH  18  19
ATOM     19  N   UNL     1       1.504  12.610  20.206  0.00  0.00    +0.000 NA
ATOM     20  H   UNL     1       2.467  12.383  20.460  0.00  0.00    +0.000 HD
BRANCH  19  21
ATOM     21  S   UNL     1       1.061  14.087  20.885  0.00  0.00    +0.000 S 
ATOM     22  O   UNL     1       1.926  14.254  22.031  0.00  0.00    +0.000 OA
ATOM     23  O   UNL     1       1.005  15.077  19.830  0.00  0.00    +0.000 OA
BRANCH  21  24
ATOM     24  C   UNL     1      -0.586  13.797  21.481  0.00  0.00    +0.000 A 
ATOM     25  C   UNL     1      -1.675  14.256  20.742  0.00  0.00    +0.000 A 
ATOM     26  C   UNL     1      -2.971  13.879  21.110  0.00  0.00    +0.000 A 
ATOM     27  C   UNL     1      -3.196  13.040  22.206  0.00  0.00    +0.000 A 
ATOM     28  C   UNL     1      -2.095  12.621  22.967  0.00  0.00    +0.000 A 
ATOM     29  C   UNL     1      -0.791  12.988  22.602  0.00  0.00    +0.000 A 
BRANCH  27  30
ATOM     30  N   UNL     1      -4.477  12.551  22.563  0.00  0.00    +0.000 N 
ATOM     31  C   UNL     1      -5.458  13.235  23.255  0.00  0.00    +0.000 C 
ATOM     32  C   UNL     1      -6.754  12.479  23.394  0.00  0.00    +0.000 C 
ATOM     33  O   UNL     1      -5.358  14.355  23.756  0.00  0.00    +0.000 OA
ATOM     34  H   UNL     1      -4.711  11.626  22.229  0.00  0.00    +0.000 HD
ENDBRANCH  27  30
ENDBRANCH  21  24
ENDBRANCH  19  21
ENDBRANCH  18  19
ENDBRANCH   1  18
TORSDOF 8
ENDMDL
