MODEL 1
REMARK VINA RESULT:      -8.2      0.000      0.000
REMARK  Name = 
REMARK  4 active torsions:
REMARK  status: ('A' for Active; 'I' for Inactive)
REMARK    1  A    between atoms: C_6  and  O_7
REMARK    2  A    between atoms: O_7  and  C_8
REMARK    3  A    between atoms: C_8  and  C_9
REMARK    4  A    between atoms: C_13  and  C_14
REMARK                            x       y       z     vdW  Elec       q    Type
REMARK                         _______ _______ _______ _____ _____    ______ ____
ROOT
ATOM      1  C   UNL     1       0.865   9.566  19.501  0.00  0.00    +0.000 A 
ATOM      2  C   UNL     1       0.516   9.316  20.827  0.00  0.00    +0.000 A 
ATOM      3  C   UNL     1       0.991   8.168  21.478  0.00  0.00    +0.000 A 
ATOM      4  C   UNL     1       1.811   7.246  20.811  0.00  0.00    +0.000 A 
ATOM      5  C   UNL     1       2.164   7.465  19.475  0.00  0.00    +0.000 A 
ATOM      6  C   UNL     1       1.666   8.625  18.843  0.00  0.00    +0.000 A 
ENDROOT
BRANCH   5   7
ATOM      7  C   UNL     1       3.028   6.597  18.648  0.00  0.00    +0.000 A 
ATOM      8  N   UNL     1       3.745   7.105  17.672  0.00  0.00    +0.000 NA
ATOM      9  C   UNL     1       4.406   6.135  16.972  0.00  0.00    +0.000 A 
ATOM     10  C   UNL     1       5.211   6.377  15.842  0.00  0.00    +0.000 A 
ATOM     11  C   UNL     1       5.814   5.309  15.184  0.00  0.00    +0.000 A 
ATOM     12  C   UNL     1       5.617   4.009  15.640  0.00  0.00    +0.000 A 
ATOM     13  C   UNL     1       4.834   3.746  16.776  0.00  0.00    +0.000 A 
ATOM     14  C   UNL     1       4.231   4.837  17.434  0.00  0.00    +0.000 A 
ATOM     15  S   UNL     1       3.205   4.895  18.835  0.00  0.00    +0.000 S 
ENDBRANCH   5   7
BRANCH   1  16
ATOM     16  C   UNL     1       0.436  10.821  18.777  0.00  0.00    +0.000 C 
BRANCH  16  17
ATOM     17  O   UNL     1      -0.899  11.161  19.137  0.00  0.00    +0.000 OA
BRANCH  17  23
ATOM     18 CL   UNL     1      -5.693  12.254  17.683  0.00  0.00    +0.000 Cl
ATOM     19  C   UNL     1      -4.163  11.466  17.494  0.00  0.00    +0.000 A 
ATOM     20  C   UNL     1      -4.000  10.655  16.367  0.00  0.00    +0.000 A 
ATOM     21  C   UNL     1      -2.794   9.991  16.158  0.00  0.00    +0.000 A 
ATOM     22  C   UNL     1      -1.746  10.137  17.071  0.00  0.00    +0.000 A 
ATOM     23  C   UNL     1      -1.888  10.953  18.203  0.00  0.00    +0.000 A 
ATOM     24  C   UNL     1      -3.114  11.618  18.414  0.00  0.00    +0.000 A 
ATOM     25 CL   UNL     1      -3.306  12.629  19.814  0.00  0.00    +0.000 Cl
ENDBRANCH  17  23
ENDBRANCH  16  17
ENDBRANCH   1  16
TORSDOF 4
ENDMDL
MODEL 2
REMARK VINA RESULT:      -7.9      1.169      1.747
REMARK  Name = 
REMARK  4 active torsions:
REMARK  status: ('A' for Active; 'I' for Inactive)
REMARK    1  A    between atoms: C_6  and  O_7
REMARK    2  A    between atoms: O_7  and  C_8
REMARK    3  A    between atoms: C_8  and  C_9
REMARK    4  A    between atoms: C_13  and  C_14
REMARK                            x       y       z     vdW  Elec       q    Type
REMARK                         _______ _______ _______ _____ _____    ______ ____
ROOT
ATOM      1  C   UNL     1       0.706   9.975  19.572  0.00  0.00    +0.000 A 
ATOM      2  C   UNL     1       0.368   9.769  20.909  0.00  0.00    +0.000 A 
ATOM      3  C   UNL     1       0.813   8.620  21.580  0.00  0.00    +0.000 A 
ATOM      4  C   UNL     1       1.589   7.654  20.922  0.00  0.00    +0.000 A 
ATOM      5  C   UNL     1       1.927   7.828  19.577  0.00  0.00    +0.000 A 
ATOM      6  C   UNL     1       1.461   8.990  18.925  0.00  0.00    +0.000 A 
ENDROOT
BRANCH   5   7
ATOM      7  C   UNL     1       2.746   6.910  18.758  0.00  0.00    +0.000 A 
ATOM      8  N   UNL     1       3.577   7.382  17.856  0.00  0.00    +0.000 NA
ATOM      9  C   UNL     1       4.175   6.379  17.146  0.00  0.00    +0.000 A 
ATOM     10  C   UNL     1       5.075   6.583  16.082  0.00  0.00    +0.000 A 
ATOM     11  C   UNL     1       5.602   5.488  15.405  0.00  0.00    +0.000 A 
ATOM     12  C   UNL     1       5.237   4.198  15.777  0.00  0.00    +0.000 A 
ATOM     13  C   UNL     1       4.357   3.969  16.847  0.00  0.00    +0.000 A 
ATOM     14  C   UNL     1       3.832   5.087  17.526  0.00  0.00    +0.000 A 
ATOM     15  S   UNL     1       2.728   5.192  18.863  0.00  0.00    +0.000 S 
ENDBRANCH   5   7
BRANCH   1  16
ATOM     16  C   UNL     1       0.310  11.227  18.825  0.00  0.00    +0.000 C 
BRANCH  16  17
ATOM     17  O   UNL     1      -0.905  11.011  18.114  0.00  0.00    +0.000 OA
BRANCH  17  23
ATOM     18 CL   UNL     1      -6.025  11.142  17.875  0.00  0.00    +0.000 Cl
ATOM     19  C   UNL     1      -4.498  11.588  18.560  0.00  0.00    +0.000 A 
ATOM     20  C   UNL     1      -4.522  12.443  19.665  0.00  0.00    +0.000 A 
ATOM     21  C   UNL     1      -3.329  12.841  20.261  0.00  0.00    +0.000 A 
ATOM     22  C   UNL     1      -2.107  12.384  19.759  0.00  0.00    +0.000 A 
ATOM     23  C   UNL     1      -2.064  11.518  18.656  0.00  0.00    +0.000 A 
ATOM     24  C   UNL     1      -3.276  11.124  18.051  0.00  0.00    +0.000 A 
ATOM     25 CL   UNL     1      -3.237  10.054  16.682  0.00  0.00    +0.000 Cl
ENDBRANCH  17  23
ENDBRANCH  16  17
ENDBRANCH   1  16
TORSDOF 4
ENDMDL
MODEL 3
REMARK VINA RESULT:      -7.8      4.948      8.507
REMARK  Name = 
REMARK  4 active torsions:
REMARK  status: ('A' for Active; 'I' for Inactive)
REMARK    1  A    between atoms: C_6  and  O_7
REMARK    2  A    between atoms: O_7  and  C_8
REMARK    3  A    between atoms: C_8  and  C_9
REMARK    4  A    between atoms: C_13  and  C_14
REMARK                            x       y       z     vdW  Elec       q    Type
REMARK                         _______ _______ _______ _____ _____    ______ ____
ROOT
ATOM      1  C   UNL     1       2.484   4.055  18.541  0.00  0.00    +0.000 A 
ATOM      2  C   UNL     1       2.214   3.313  19.690  0.00  0.00    +0.000 A 
ATOM      3  C   UNL     1       1.763   3.953  20.854  0.00  0.00    +0.000 A 
ATOM      4  C   UNL     1       1.588   5.345  20.891  0.00  0.00    +0.000 A 
ATOM      5  C   UNL     1       1.867   6.114  19.757  0.00  0.00    +0.000 A 
ATOM      6  C   UNL     1       2.325   5.444  18.603  0.00  0.00    +0.000 A 
ENDROOT
BRANCH   5   7
ATOM      7  C   UNL     1       1.718   7.580  19.640  0.00  0.00    +0.000 A 
ATOM      8  N   UNL     1       1.289   8.289  20.660  0.00  0.00    +0.000 NA
ATOM      9  C   UNL     1       1.136   9.607  20.328  0.00  0.00    +0.000 A 
ATOM     10  C   UNL     1       0.644  10.595  21.203  0.00  0.00    +0.000 A 
ATOM     11  C   UNL     1       0.497  11.903  20.752  0.00  0.00    +0.000 A 
ATOM     12  C   UNL     1       0.831  12.230  19.441  0.00  0.00    +0.000 A 
ATOM     13  C   UNL     1       1.341  11.264  18.557  0.00  0.00    +0.000 A 
ATOM     14  C   UNL     1       1.487   9.944  19.028  0.00  0.00    +0.000 A 
ATOM     15  S   UNL     1       2.062   8.510  18.233  0.00  0.00    +0.000 S 
ENDBRANCH   5   7
BRANCH   1  16
ATOM     16  C   UNL     1       2.906   3.406  17.243  0.00  0.00    +0.000 C 
BRANCH  16  17
ATOM     17  O   UNL     1       4.292   3.083  17.284  0.00  0.00    +0.000 OA
BRANCH  17  23
ATOM     18 CL   UNL     1       7.819   6.731  18.022  0.00  0.00    +0.000 Cl
ATOM     19  C   UNL     1       6.855   5.692  17.027  0.00  0.00    +0.000 A 
ATOM     20  C   UNL     1       7.039   5.787  15.645  0.00  0.00    +0.000 A 
ATOM     21  C   UNL     1       6.293   4.981  14.789  0.00  0.00    +0.000 A 
ATOM     22  C   UNL     1       5.364   4.075  15.309  0.00  0.00    +0.000 A 
ATOM     23  C   UNL     1       5.173   3.961  16.694  0.00  0.00    +0.000 A 
ATOM     24  C   UNL     1       5.925   4.784  17.556  0.00  0.00    +0.000 A 
ATOM     25 CL   UNL     1       5.696   4.656  19.275  0.00  0.00    +0.000 Cl
ENDBRANCH  17  23
ENDBRANCH  16  17
ENDBRANCH   1  16
TORSDOF 4
ENDMDL
MODEL 4
REMARK VINA RESULT:      -7.8      8.226      9.341
REMARK  Name = 
REMARK  4 active torsions:
REMARK  status: ('A' for Active; 'I' for Inactive)
REMARK    1  A    between atoms: C_6  and  O_7
REMARK    2  A    between atoms: O_7  and  C_8
REMARK    3  A    between atoms: C_8  and  C_9
REMARK    4  A    between atoms: C_13  and  C_14
REMARK                            x       y       z     vdW  Elec       q    Type
REMARK                         _______ _______ _______ _____ _____    ______ ____
ROOT
ATOM      1  C   UNL     1       8.034   7.825  18.162  0.00  0.00    +0.000 A 
ATOM      2  C   UNL     1       8.283   7.153  19.357  0.00  0.00    +0.000 A 
ATOM      3  C   UNL     1       8.079   5.768  19.443  0.00  0.00    +0.000 A 
ATOM      4  C   UNL     1       7.612   5.036  18.342  0.00  0.00    +0.000 A 
ATOM      5  C   UNL     1       7.338   5.689  17.136  0.00  0.00    +0.000 A 
ATOM      6  C   UNL     1       7.546   7.084  17.079  0.00  0.00    +0.000 A 
ENDROOT
BRANCH   5   7
ATOM      7  C   UNL     1       6.857   5.054  15.891  0.00  0.00    +0.000 A 
ATOM      8  N   UNL     1       7.590   5.084  14.801  0.00  0.00    +0.000 NA
ATOM      9  C   UNL     1       6.938   4.523  13.739  0.00  0.00    +0.000 A 
ATOM     10  C   UNL     1       7.457   4.457  12.430  0.00  0.00    +0.000 A 
ATOM     11  C   UNL     1       6.694   3.892  11.414  0.00  0.00    +0.000 A 
ATOM     12  C   UNL     1       5.422   3.398  11.690  0.00  0.00    +0.000 A 
ATOM     13  C   UNL     1       4.892   3.436  12.990  0.00  0.00    +0.000 A 
ATOM     14  C   UNL     1       5.677   4.009  14.011  0.00  0.00    +0.000 A 
ATOM     15  S   UNL     1       5.354   4.236  15.702  0.00  0.00    +0.000 S 
ENDBRANCH   5   7
BRANCH   1  16
ATOM     16  C   UNL     1       8.302   9.303  17.998  0.00  0.00    +0.000 C 
BRANCH  16  17
ATOM     17  O   UNL     1       9.103   9.779  19.074  0.00  0.00    +0.000 OA
BRANCH  17  23
ATOM     18 CL   UNL     1      10.398  14.247  21.230  0.00  0.00    +0.000 Cl
ATOM     19  C   UNL     1      10.375  13.112  19.922  0.00  0.00    +0.000 A 
ATOM     20  C   UNL     1      11.040  13.478  18.749  0.00  0.00    +0.000 A 
ATOM     21  C   UNL     1      11.056  12.610  17.661  0.00  0.00    +0.000 A 
ATOM     22  C   UNL     1      10.411  11.373  17.739  0.00  0.00    +0.000 A 
ATOM     23  C   UNL     1       9.746  10.985  18.912  0.00  0.00    +0.000 A 
ATOM     24  C   UNL     1       9.726  11.870  20.009  0.00  0.00    +0.000 A 
ATOM     25 CL   UNL     1       8.901  11.403  21.467  0.00  0.00    +0.000 Cl
ENDBRANCH  17  23
ENDBRANCH  16  17
ENDBRANCH   1  16
TORSDOF 4
ENDMDL
MODEL 5
REMARK VINA RESULT:      -7.8      5.003      8.309
REMARK  Name = 
REMARK  4 active torsions:
REMARK  status: ('A' for Active; 'I' for Inactive)
REMARK    1  A    between atoms: C_6  and  O_7
REMARK    2  A    between atoms: O_7  and  C_8
REMARK    3  A    between atoms: C_8  and  C_9
REMARK    4  A    between atoms: C_13  and  C_14
REMARK                            x       y       z     vdW  Elec       q    Type
REMARK                         _______ _______ _______ _____ _____    ______ ____
ROOT
ATOM      1  C   UNL     1       3.301   3.357  19.704  0.00  0.00    +0.000 A 
ATOM      2  C   UNL     1       2.415   2.672  20.534  0.00  0.00    +0.000 A 
ATOM      3  C   UNL     1       1.337   3.346  21.125  0.00  0.00    +0.000 A 
ATOM      4  C   UNL     1       1.133   4.716  20.906  0.00  0.00    +0.000 A 
ATOM      5  C   UNL     1       2.016   5.431  20.090  0.00  0.00    +0.000 A 
ATOM      6  C   UNL     1       3.096   4.729  19.514  0.00  0.00    +0.000 A 
ENDROOT
BRANCH   5   7
ATOM      7  C   UNL     1       1.924   6.868  19.756  0.00  0.00    +0.000 A 
ATOM      8  N   UNL     1       1.413   7.721  20.615  0.00  0.00    +0.000 NA
ATOM      9  C   UNL     1       1.335   8.980  20.089  0.00  0.00    +0.000 A 
ATOM     10  C   UNL     1       0.785  10.090  20.761  0.00  0.00    +0.000 A 
ATOM     11  C   UNL     1       0.726  11.323  20.119  0.00  0.00    +0.000 A 
ATOM     12  C   UNL     1       1.205  11.456  18.819  0.00  0.00    +0.000 A 
ATOM     13  C   UNL     1       1.775  10.368  18.138  0.00  0.00    +0.000 A 
ATOM     14  C   UNL     1       1.831   9.125  18.800  0.00  0.00    +0.000 A 
ATOM     15  S   UNL     1       2.442   7.585  18.279  0.00  0.00    +0.000 S 
ENDBRANCH   5   7
BRANCH   1  16
ATOM     16  C   UNL     1       4.438   2.663  18.991  0.00  0.00    +0.000 C 
BRANCH  16  17
ATOM     17  O   UNL     1       5.598   3.490  18.996  0.00  0.00    +0.000 OA
BRANCH  17  23
ATOM     18 CL   UNL     1       7.797   7.849  17.434  0.00  0.00    +0.000 Cl
ATOM     19  C   UNL     1       6.789   6.460  17.207  0.00  0.00    +0.000 A 
ATOM     20  C   UNL     1       6.181   6.312  15.957  0.00  0.00    +0.000 A 
ATOM     21  C   UNL     1       5.357   5.217  15.712  0.00  0.00    +0.000 A 
ATOM     22  C   UNL     1       5.139   4.264  16.711  0.00  0.00    +0.000 A 
ATOM     23  C   UNL     1       5.747   4.392  17.968  0.00  0.00    +0.000 A 
ATOM     24  C   UNL     1       6.576   5.506  18.214  0.00  0.00    +0.000 A 
ATOM     25 CL   UNL     1       7.333   5.679  19.769  0.00  0.00    +0.000 Cl
ENDBRANCH  17  23
ENDBRANCH  16  17
ENDBRANCH   1  16
TORSDOF 4
ENDMDL
MODEL 6
REMARK VINA RESULT:      -7.6      5.008      8.379
REMARK  Name = 
REMARK  4 active torsions:
REMARK  status: ('A' for Active; 'I' for Inactive)
REMARK    1  A    between atoms: C_6  and  O_7
REMARK    2  A    between atoms: O_7  and  C_8
REMARK    3  A    between atoms: C_8  and  C_9
REMARK    4  A    between atoms: C_13  and  C_14
REMARK                            x       y       z     vdW  Elec       q    Type
REMARK                         _______ _______ _______ _____ _____    ______ ____
ROOT
ATOM      1  C   UNL     1       2.621   3.964  18.671  0.00  0.00    +0.000 A 
ATOM      2  C   UNL     1       2.528   3.152  19.801  0.00  0.00    +0.000 A 
ATOM      3  C   UNL     1       2.130   3.697  21.031  0.00  0.00    +0.000 A 
ATOM      4  C   UNL     1       1.832   5.062  21.153  0.00  0.00    +0.000 A 
ATOM      5  C   UNL     1       1.933   5.901  20.039  0.00  0.00    +0.000 A 
ATOM      6  C   UNL     1       2.342   5.327  18.817  0.00  0.00    +0.000 A 
ENDROOT
BRANCH   5   7
ATOM      7  C   UNL     1       1.640   7.350  20.010  0.00  0.00    +0.000 A 
ATOM      8  N   UNL     1       1.898   8.060  18.935  0.00  0.00    +0.000 NA
ATOM      9  C   UNL     1       1.640   9.388  19.134  0.00  0.00    +0.000 A 
ATOM     10  C   UNL     1       1.868  10.395  18.176  0.00  0.00    +0.000 A 
ATOM     11  C   UNL     1       1.600  11.723  18.495  0.00  0.00    +0.000 A 
ATOM     12  C   UNL     1       1.112  12.051  19.756  0.00  0.00    +0.000 A 
ATOM     13  C   UNL     1       0.858  11.061  20.720  0.00  0.00    +0.000 A 
ATOM     14  C   UNL     1       1.132   9.721  20.383  0.00  0.00    +0.000 A 
ATOM     15  S   UNL     1       0.960   8.258  21.304  0.00  0.00    +0.000 S 
ENDBRANCH   5   7
BRANCH   1  16
ATOM     16  C   UNL     1       2.979   3.413  17.311  0.00  0.00    +0.000 C 
BRANCH  16  17
ATOM     17  O   UNL     1       4.364   3.082  17.264  0.00  0.00    +0.000 OA
BRANCH  17  23
ATOM     18 CL   UNL     1       7.826   6.802  17.940  0.00  0.00    +0.000 Cl
ATOM     19  C   UNL     1       6.868   5.743  16.961  0.00  0.00    +0.000 A 
ATOM     20  C   UNL     1       7.028   5.838  15.576  0.00  0.00    +0.000 A 
ATOM     21  C   UNL     1       6.285   5.016  14.734  0.00  0.00    +0.000 A 
ATOM     22  C   UNL     1       5.383   4.092  15.270  0.00  0.00    +0.000 A 
ATOM     23  C   UNL     1       5.216   3.977  16.658  0.00  0.00    +0.000 A 
ATOM     24  C   UNL     1       5.966   4.817  17.507  0.00  0.00    +0.000 A 
ATOM     25 CL   UNL     1       5.766   4.687  19.229  0.00  0.00    +0.000 Cl
ENDBRANCH  17  23
ENDBRANCH  16  17
ENDBRANCH   1  16
TORSDOF 4
ENDMDL
MODEL 7
REMARK VINA RESULT:      -7.6      3.145      4.535
REMARK  Name = 
REMARK  4 active torsions:
REMARK  status: ('A' for Active; 'I' for Inactive)
REMARK    1  A    between atoms: C_6  and  O_7
REMARK    2  A    between atoms: O_7  and  C_8
REMARK    3  A    between atoms: C_8  and  C_9
REMARK    4  A    between atoms: C_13  and  C_14
REMARK                            x       y       z     vdW  Elec       q    Type
REMARK                         _______ _______ _______ _____ _____    ______ ____
ROOT
ATOM      1  C   UNL     1       2.073   5.140  20.693  0.00  0.00    +0.000 A 
ATOM      2  C   UNL     1       1.952   3.918  21.353  0.00  0.00    +0.000 A 
ATOM      3  C   UNL     1       2.705   2.812  20.934  0.00  0.00    +0.000 A 
ATOM      4  C   UNL     1       3.580   2.905  19.842  0.00  0.00    +0.000 A 
ATOM      5  C   UNL     1       3.708   4.115  19.152  0.00  0.00    +0.000 A 
ATOM      6  C   UNL     1       2.933   5.209  19.591  0.00  0.00    +0.000 A 
ENDROOT
BRANCH   5   7
ATOM      7  C   UNL     1       4.595   4.369  17.997  0.00  0.00    +0.000 A 
ATOM      8  N   UNL     1       4.231   4.014  16.786  0.00  0.00    +0.000 NA
ATOM      9  C   UNL     1       5.218   4.254  15.872  0.00  0.00    +0.000 A 
ATOM     10  C   UNL     1       5.132   3.930  14.503  0.00  0.00    +0.000 A 
ATOM     11  C   UNL     1       6.211   4.189  13.664  0.00  0.00    +0.000 A 
ATOM     12  C   UNL     1       7.371   4.761  14.178  0.00  0.00    +0.000 A 
ATOM     13  C   UNL     1       7.472   5.110  15.535  0.00  0.00    +0.000 A 
ATOM     14  C   UNL     1       6.371   4.845  16.373  0.00  0.00    +0.000 A 
ATOM     15  S   UNL     1       6.142   5.121  18.072  0.00  0.00    +0.000 S 
ENDBRANCH   5   7
BRANCH   1  16
ATOM     16  C   UNL     1       1.336   6.378  21.147  0.00  0.00    +0.000 C 
BRANCH  16  17
ATOM     17  O   UNL     1       1.678   7.485  20.318  0.00  0.00    +0.000 OA
BRANCH  17  23
ATOM     18 CL   UNL     1       0.491  12.179  18.634  0.00  0.00    +0.000 Cl
ATOM     19  C   UNL     1       0.565  10.946  19.847  0.00  0.00    +0.000 A 
ATOM     20  C   UNL     1       0.047  11.260  21.106  0.00  0.00    +0.000 A 
ATOM     21  C   UNL     1       0.078  10.313  22.126  0.00  0.00    +0.000 A 
ATOM     22  C   UNL     1       0.624   9.048  21.892  0.00  0.00    +0.000 A 
ATOM     23  C   UNL     1       1.141   8.712  20.632  0.00  0.00    +0.000 A 
ATOM     24  C   UNL     1       1.113   9.677  19.605  0.00  0.00    +0.000 A 
ATOM     25 CL   UNL     1       1.754   9.276  18.040  0.00  0.00    +0.000 Cl
ENDBRANCH  17  23
ENDBRANCH  16  17
ENDBRANCH   1  16
TORSDOF 4
ENDMDL
MODEL 8
REMARK VINA RESULT:      -7.5      1.306      1.804
REMARK  Name = 
REMARK  4 active torsions:
REMARK  status: ('A' for Active; 'I' for Inactive)
REMARK    1  A    between atoms: C_6  and  O_7
REMARK    2  A    between atoms: O_7  and  C_8
REMARK    3  A    between atoms: C_8  and  C_9
REMARK    4  A    between atoms: C_13  and  C_14
REMARK                            x       y       z     vdW  Elec       q    Type
REMARK                         _______ _______ _______ _____ _____    ______ ____
ROOT
ATOM      1  C   UNL     1       1.376   9.127  19.166  0.00  0.00    +0.000 A 
ATOM      2  C   UNL     1       0.940   8.781  20.445  0.00  0.00    +0.000 A 
ATOM      3  C   UNL     1       1.327   7.560  21.016  0.00  0.00    +0.000 A 
ATOM      4  C   UNL     1       2.144   6.661  20.315  0.00  0.00    +0.000 A 
ATOM      5  C   UNL     1       2.582   6.977  19.024  0.00  0.00    +0.000 A 
ATOM      6  C   UNL     1       2.172   8.209  18.472  0.00  0.00    +0.000 A 
ENDROOT
BRANCH   5   7
ATOM      7  C   UNL     1       3.454   6.142  18.172  0.00  0.00    +0.000 A 
ATOM      8  N   UNL     1       4.517   6.659  17.597  0.00  0.00    +0.000 NA
ATOM      9  C   UNL     1       5.140   5.755  16.783  0.00  0.00    +0.000 A 
ATOM     10  C   UNL     1       6.276   6.040  16.000  0.00  0.00    +0.000 A 
ATOM     11  C   UNL     1       6.813   5.053  15.180  0.00  0.00    +0.000 A 
ATOM     12  C   UNL     1       6.227   3.791  15.133  0.00  0.00    +0.000 A 
ATOM     13  C   UNL     1       5.107   3.479  15.921  0.00  0.00    +0.000 A 
ATOM     14  C   UNL     1       4.574   4.487  16.748  0.00  0.00    +0.000 A 
ATOM     15  S   UNL     1       3.215   4.472  17.829  0.00  0.00    +0.000 S 
ENDBRANCH   5   7
BRANCH   1  16
ATOM     16  C   UNL     1       1.043  10.458  18.534  0.00  0.00    +0.000 C 
BRANCH  16  17
ATOM     17  O   UNL     1      -0.190  10.371  17.826  0.00  0.00    +0.000 OA
BRANCH  17  23
ATOM     18 CL   UNL     1      -5.238  11.193  17.477  0.00  0.00    +0.000 Cl
ATOM     19  C   UNL     1      -3.688  11.395  18.222  0.00  0.00    +0.000 A 
ATOM     20  C   UNL     1      -3.632  12.186  19.372  0.00  0.00    +0.000 A 
ATOM     21  C   UNL     1      -2.415  12.389  20.017  0.00  0.00    +0.000 A 
ATOM     22  C   UNL     1      -1.250  11.801  19.518  0.00  0.00    +0.000 A 
ATOM     23  C   UNL     1      -1.287  10.998  18.369  0.00  0.00    +0.000 A 
ATOM     24  C   UNL     1      -2.522  10.800  17.715  0.00  0.00    +0.000 A 
ATOM     25 CL   UNL     1      -2.582   9.810  16.288  0.00  0.00    +0.000 Cl
ENDBRANCH  17  23
ENDBRANCH  16  17
ENDBRANCH   1  16
TORSDOF 4
ENDMDL
MODEL 9
REMARK VINA RESULT:      -7.5      4.828      9.249
REMARK  Name = 
REMARK  4 active torsions:
REMARK  status: ('A' for Active; 'I' for Inactive)
REMARK    1  A    between atoms: C_6  and  O_7
REMARK    2  A    between atoms: O_7  and  C_8
REMARK    3  A    between atoms: C_8  and  C_9
REMARK    4  A    between atoms: C_13  and  C_14
REMARK                            x       y       z     vdW  Elec       q    Type
REMARK                         _______ _______ _______ _____ _____    ______ ____
ROOT
ATOM      1  C   UNL     1       2.714   6.766  19.409  0.00  0.00    +0.000 A 
ATOM      2  C   UNL     1       3.070   7.093  18.101  0.00  0.00    +0.000 A 
ATOM      3  C   UNL     1       2.577   8.264  17.507  0.00  0.00    +0.000 A 
ATOM      4  C   UNL     1       1.712   9.119  18.205  0.00  0.00    +0.000 A 
ATOM      5  C   UNL     1       1.326   8.805  19.513  0.00  0.00    +0.000 A 
ATOM      6  C   UNL     1       1.832   7.618  20.082  0.00  0.00    +0.000 A 
ENDROOT
BRANCH   5   7
ATOM      7  C   UNL     1       0.437   9.611  20.376  0.00  0.00    +0.000 A 
ATOM      8  N   UNL     1      -0.309  10.562  19.860  0.00  0.00    +0.000 NA
ATOM      9  C   UNL     1      -0.992  11.247  20.826  0.00  0.00    +0.000 A 
ATOM     10  C   UNL     1      -1.831  12.351  20.577  0.00  0.00    +0.000 A 
ATOM     11  C   UNL     1      -2.454  12.997  21.640  0.00  0.00    +0.000 A 
ATOM     12  C   UNL     1      -2.244  12.556  22.943  0.00  0.00    +0.000 A 
ATOM     13  C   UNL     1      -1.427  11.445  23.213  0.00  0.00    +0.000 A 
ATOM     14  C   UNL     1      -0.804  10.799  22.127  0.00  0.00    +0.000 A 
ATOM     15  S   UNL     1       0.264   9.429  22.079  0.00  0.00    +0.000 S 
ENDBRANCH   5   7
BRANCH   1  16
ATOM     16  C   UNL     1       3.272   5.552  20.116  0.00  0.00    +0.000 C 
BRANCH  16  17
ATOM     17  O   UNL     1       3.711   4.589  19.164  0.00  0.00    +0.000 OA
BRANCH  17  23
ATOM     18 CL   UNL     1       6.694   4.061  15.028  0.00  0.00    +0.000 Cl
ATOM     19  C   UNL     1       6.404   4.499  16.678  0.00  0.00    +0.000 A 
ATOM     20  C   UNL     1       7.486   5.010  17.400  0.00  0.00    +0.000 A 
ATOM     21  C   UNL     1       7.319   5.379  18.732  0.00  0.00    +0.000 A 
ATOM     22  C   UNL     1       6.072   5.241  19.348  0.00  0.00    +0.000 A 
ATOM     23  C   UNL     1       4.973   4.738  18.636  0.00  0.00    +0.000 A 
ATOM     24  C   UNL     1       5.149   4.359  17.289  0.00  0.00    +0.000 A 
ATOM     25 CL   UNL     1       3.796   3.730  16.397  0.00  0.00    +0.000 Cl
ENDBRANCH  17  23
ENDBRANCH  16  17
ENDBRANCH   1  16
TORSDOF 4
ENDMDL
