MODEL 1
REMARK VINA RESULT:      -7.5      0.000      0.000
REMARK  Name = 
REMARK  9 active torsions:
REMARK  status: ('A' for Active; 'I' for Inactive)
REMARK    1  A    between atoms: C_1  and  C_2
REMARK    2  A    between atoms: C_2  and  C_3
REMARK    3  A    between atoms: C_8  and  C_10
REMARK    4  A    between atoms: C_10  and  S_11
REMARK    5  A    between atoms: S_11  and  C_12
REMARK    6  A    between atoms: C_15  and  C_16
REMARK    7  A    between atoms: C_19  and  N_20
REMARK    8  A    between atoms: N_25  and  C_26
REMARK    9  A    between atoms: C_29  and  C_30
REMARK                            x       y       z     vdW  Elec       q    Type
REMARK                         _______ _______ _______ _____ _____    ______ ____
ROOT
ATOM      1  C   UNL     1       0.273   9.907  21.525  0.00  0.00    +0.000 A 
ATOM      2  N   UNL     1      -0.059   9.218  22.591  0.00  0.00    +0.000 NA
ATOM      3  N   UNL     1      -0.814  10.037  23.402  0.00  0.00    +0.000 NA
ATOM      4  C   UNL     1      -0.963  11.217  22.818  0.00  0.00    +0.000 A 
ATOM      5  N   UNL     1      -0.222  11.204  21.625  0.00  0.00    +0.000 N 
ENDROOT
BRANCH   5   6
ATOM      6  C   UNL     1      -0.059  12.279  20.702  0.00  0.00    +0.000 A 
ATOM      7  C   UNL     1       1.036  13.147  20.820  0.00  0.00    +0.000 A 
ATOM      8  C   UNL     1       1.063  14.338  20.092  0.00  0.00    +0.000 A 
ATOM      9  C   UNL     1       0.035  14.643  19.195  0.00  0.00    +0.000 A 
ATOM     10  C   UNL     1       0.033  15.930  18.426  0.00  0.00    +0.000 C 
ATOM     11  C   UNL     1      -1.008  13.728  19.015  0.00  0.00    +0.000 A 
ATOM     12  C   UNL     1      -1.067  12.559  19.773  0.00  0.00    +0.000 A 
ENDBRANCH   5   6
BRANCH   4  13
ATOM     13  C   UNL     1      -1.799  12.332  23.333  0.00  0.00    +0.000 A 
ATOM     14  C   UNL     1      -1.247  13.611  23.534  0.00  0.00    +0.000 A 
ATOM     15  C   UNL     1      -2.069  14.714  23.843  0.00  0.00    +0.000 A 
ATOM     16  C   UNL     1      -3.452  14.542  23.941  0.00  0.00    +0.000 A 
ATOM     17  C   UNL     1      -4.011  13.271  23.820  0.00  0.00    +0.000 A 
ATOM     18  C   UNL     1      -3.172  12.175  23.586  0.00  0.00    +0.000 A 
BRANCH  16  19
ATOM     19  N   UNL     1      -4.340  15.697  24.152  0.00  0.00    +0.000 N 
ATOM     20  O   UNL     1      -5.294  15.838  23.373  0.00  0.00    +0.000 OA
ATOM     21  O   UNL     1      -4.090  16.451  25.101  0.00  0.00    +0.000 OA
ENDBRANCH  16  19
ENDBRANCH   4  13
BRANCH   1  22
ATOM     22  S   UNL     1       1.296   9.371  20.224  0.00  0.00    +0.000 S 
BRANCH  22  23
ATOM     23  C   UNL     1       1.538   7.601  20.503  0.00  0.00    +0.000 C 
BRANCH  23  29
ATOM     24  C   UNL     1       5.778   4.667  17.337  0.00  0.00    +0.000 A 
ATOM     25  N   UNL     1       5.955   4.085  18.506  0.00  0.00    +0.000 NA
ATOM     26  N   UNL     1       5.135   4.619  19.483  0.00  0.00    +0.000 NA
ATOM     27  C   UNL     1       4.343   5.561  19.013  0.00  0.00    +0.000 A 
ATOM     28  N   UNL     1       3.435   6.224  19.808  0.00  0.00    +0.000 N 
ATOM     29  C   UNL     1       2.432   7.073  19.375  0.00  0.00    +0.000 C 
ATOM     30  O   UNL     1       2.197   7.374  18.208  0.00  0.00    +0.000 OA
ATOM     31  S   UNL     1       4.582   5.902  17.358  0.00  0.00    +0.000 S 
ATOM     32  H   UNL     1       3.458   5.929  20.774  0.00  0.00    +0.000 HD
BRANCH  24  34
ATOM     33  C   UNL     1       5.669   4.359  14.850  0.00  0.00    +0.000 C 
ATOM     34  C   UNL     1       6.545   4.347  16.094  0.00  0.00    +0.000 C 
ENDBRANCH  24  34
ENDBRANCH  23  29
ENDBRANCH  22  23
ENDBRANCH   1  22
TORSDOF 7
ENDMDL
MODEL 2
REMARK VINA RESULT:      -7.4      2.722      3.868
REMARK  Name = 
REMARK  9 active torsions:
REMARK  status: ('A' for Active; 'I' for Inactive)
REMARK    1  A    between atoms: C_1  and  C_2
REMARK    2  A    between atoms: C_2  and  C_3
REMARK    3  A    between atoms: C_8  and  C_10
REMARK    4  A    between atoms: C_10  and  S_11
REMARK    5  A    between atoms: S_11  and  C_12
REMARK    6  A    between atoms: C_15  and  C_16
REMARK    7  A    between atoms: C_19  and  N_20
REMARK    8  A    between atoms: N_25  and  C_26
REMARK    9  A    between atoms: C_29  and  C_30
REMARK                            x       y       z     vdW  Elec       q    Type
REMARK                         _______ _______ _______ _____ _____    ______ ____
ROOT
ATOM      1  C   UNL     1       0.277  10.792  20.975  0.00  0.00    +0.000 A 
ATOM      2  N   UNL     1       1.332  11.326  21.543  0.00  0.00    +0.000 NA
ATOM      3  N   UNL     1       1.326  12.674  21.255  0.00  0.00    +0.000 NA
ATOM      4  C   UNL     1       0.253  12.964  20.533  0.00  0.00    +0.000 A 
ATOM      5  N   UNL     1      -0.428  11.764  20.271  0.00  0.00    +0.000 N 
ENDROOT
BRANCH   5   6
ATOM      6  C   UNL     1      -1.609  11.597  19.490  0.00  0.00    +0.000 A 
ATOM      7  C   UNL     1      -1.527  11.065  18.196  0.00  0.00    +0.000 A 
ATOM      8  C   UNL     1      -2.627  11.139  17.339  0.00  0.00    +0.000 A 
ATOM      9  C   UNL     1      -3.835  11.686  17.785  0.00  0.00    +0.000 A 
ATOM     10  C   UNL     1      -5.019  11.800  16.871  0.00  0.00    +0.000 C 
ATOM     11  C   UNL     1      -3.936  12.132  19.107  0.00  0.00    +0.000 A 
ATOM     12  C   UNL     1      -2.828  12.105  19.953  0.00  0.00    +0.000 A 
ENDBRANCH   5   6
BRANCH   4  13
ATOM     13  C   UNL     1      -0.158  14.329  20.115  0.00  0.00    +0.000 A 
ATOM     14  C   UNL     1       0.291  14.874  18.897  0.00  0.00    +0.000 A 
ATOM     15  C   UNL     1      -0.238  16.084  18.407  0.00  0.00    +0.000 A 
ATOM     16  C   UNL     1      -1.231  16.751  19.129  0.00  0.00    +0.000 A 
ATOM     17  C   UNL     1      -1.636  16.269  20.373  0.00  0.00    +0.000 A 
ATOM     18  C   UNL     1      -1.047  15.103  20.879  0.00  0.00    +0.000 A 
BRANCH  16  19
ATOM     19  N   UNL     1      -1.878  17.955  18.584  0.00  0.00    +0.000 N 
ATOM     20  O   UNL     1      -1.330  18.516  17.624  0.00  0.00    +0.000 OA
ATOM     21  O   UNL     1      -2.936  18.329  19.107  0.00  0.00    +0.000 OA
ENDBRANCH  16  19
ENDBRANCH   4  13
BRANCH   1  22
ATOM     22  S   UNL     1      -0.144   9.103  20.958  0.00  0.00    +0.000 S 
BRANCH  22  23
ATOM     23  C   UNL     1       1.358   8.230  21.456  0.00  0.00    +0.000 C 
BRANCH  23  29
ATOM     24  C   UNL     1       4.304   4.706  17.518  0.00  0.00    +0.000 A 
ATOM     25  N   UNL     1       4.296   3.892  18.555  0.00  0.00    +0.000 NA
ATOM     26  N   UNL     1       3.722   4.476  19.669  0.00  0.00    +0.000 NA
ATOM     27  C   UNL     1       3.284   5.695  19.427  0.00  0.00    +0.000 A 
ATOM     28  N   UNL     1       2.667   6.460  20.391  0.00  0.00    +0.000 N 
ATOM     29  C   UNL     1       2.001   7.655  20.188  0.00  0.00    +0.000 C 
ATOM     30  O   UNL     1       1.861   8.227  19.110  0.00  0.00    +0.000 OA
ATOM     31  S   UNL     1       3.595   6.238  17.840  0.00  0.00    +0.000 S 
ATOM     32  H   UNL     1       2.607   6.001  21.289  0.00  0.00    +0.000 HD
BRANCH  24  34
ATOM     33  C   UNL     1       5.450   5.620  15.482  0.00  0.00    +0.000 C 
ATOM     34  C   UNL     1       4.897   4.387  16.182  0.00  0.00    +0.000 C 
ENDBRANCH  24  34
ENDBRANCH  23  29
ENDBRANCH  22  23
ENDBRANCH   1  22
TORSDOF 7
ENDMDL
MODEL 3
REMARK VINA RESULT:      -7.4      4.345      7.807
REMARK  Name = 
REMARK  9 active torsions:
REMARK  status: ('A' for Active; 'I' for Inactive)
REMARK    1  A    between atoms: C_1  and  C_2
REMARK    2  A    between atoms: C_2  and  C_3
REMARK    3  A    between atoms: C_8  and  C_10
REMARK    4  A    between atoms: C_10  and  S_11
REMARK    5  A    between atoms: S_11  and  C_12
REMARK    6  A    between atoms: C_15  and  C_16
REMARK    7  A    between atoms: C_19  and  N_20
REMARK    8  A    between atoms: N_25  and  C_26
REMARK    9  A    between atoms: C_29  and  C_30
REMARK                            x       y       z     vdW  Elec       q    Type
REMARK                         _______ _______ _______ _____ _____    ______ ____
ROOT
ATOM      1  C   UNL     1       4.219   5.633  17.212  0.00  0.00    +0.000 A 
ATOM      2  N   UNL     1       4.505   6.631  16.410  0.00  0.00    +0.000 NA
ATOM      3  N   UNL     1       3.702   7.695  16.760  0.00  0.00    +0.000 NA
ATOM      4  C   UNL     1       2.946   7.353  17.793  0.00  0.00    +0.000 A 
ATOM      5  N   UNL     1       3.199   6.002  18.085  0.00  0.00    +0.000 N 
ENDROOT
BRANCH   5   6
ATOM      6  C   UNL     1       2.573   5.207  19.089  0.00  0.00    +0.000 A 
ATOM      7  C   UNL     1       3.071   5.208  20.399  0.00  0.00    +0.000 A 
ATOM      8  C   UNL     1       2.633   4.248  21.313  0.00  0.00    +0.000 A 
ATOM      9  C   UNL     1       1.650   3.323  20.950  0.00  0.00    +0.000 A 
ATOM     10  C   UNL     1       1.186   2.267  21.910  0.00  0.00    +0.000 C 
ATOM     11  C   UNL     1       1.091   3.386  19.669  0.00  0.00    +0.000 A 
ATOM     12  C   UNL     1       1.558   4.311  18.736  0.00  0.00    +0.000 A 
ENDBRANCH   5   6
BRANCH   4  13
ATOM     13  C   UNL     1       2.025   8.262  18.522  0.00  0.00    +0.000 A 
ATOM     14  C   UNL     1       1.818   8.117  19.908  0.00  0.00    +0.000 A 
ATOM     15  C   UNL     1       1.095   9.082  20.636  0.00  0.00    +0.000 A 
ATOM     16  C   UNL     1       0.585  10.207  19.982  0.00  0.00    +0.000 A 
ATOM     17  C   UNL     1       0.712  10.331  18.600  0.00  0.00    +0.000 A 
ATOM     18  C   UNL     1       1.370   9.326  17.881  0.00  0.00    +0.000 A 
BRANCH  16  19
ATOM     19  N   UNL     1      -0.076  11.282  20.740  0.00  0.00    +0.000 N 
ATOM     20  O   UNL     1      -1.279  11.484  20.520  0.00  0.00    +0.000 OA
ATOM     21  O   UNL     1       0.605  11.912  21.560  0.00  0.00    +0.000 OA
ENDBRANCH  16  19
ENDBRANCH   4  13
BRANCH   1  22
ATOM     22  S   UNL     1       4.887   4.028  17.145  0.00  0.00    +0.000 S 
BRANCH  22  23
ATOM     23  C   UNL     1       6.609   4.246  16.641  0.00  0.00    +0.000 C 
BRANCH  23  29
ATOM     24  C   UNL     1       8.735   9.446  18.887  0.00  0.00    +0.000 A 
ATOM     25  N   UNL     1       8.219   9.904  17.764  0.00  0.00    +0.000 NA
ATOM     26  N   UNL     1       7.697   8.890  16.981  0.00  0.00    +0.000 NA
ATOM     27  C   UNL     1       7.805   7.708  17.553  0.00  0.00    +0.000 A 
ATOM     28  N   UNL     1       7.342   6.557  16.956  0.00  0.00    +0.000 N 
ATOM     29  C   UNL     1       7.226   5.314  17.551  0.00  0.00    +0.000 C 
ATOM     30  O   UNL     1       7.525   5.040  18.711  0.00  0.00    +0.000 OA
ATOM     31  S   UNL     1       8.602   7.741  19.061  0.00  0.00    +0.000 S 
ATOM     32  H   UNL     1       6.939   6.714  16.042  0.00  0.00    +0.000 HD
BRANCH  24  34
ATOM     33  C   UNL     1       9.642  11.714  19.457  0.00  0.00    +0.000 C 
ATOM     34  C   UNL     1       9.415  10.284  19.922  0.00  0.00    +0.000 C 
ENDBRANCH  24  34
ENDBRANCH  23  29
ENDBRANCH  22  23
ENDBRANCH   1  22
TORSDOF 7
ENDMDL
MODEL 4
REMARK VINA RESULT:      -7.3      1.037      1.102
REMARK  Name = 
REMARK  9 active torsions:
REMARK  status: ('A' for Active; 'I' for Inactive)
REMARK    1  A    between atoms: C_1  and  C_2
REMARK    2  A    between atoms: C_2  and  C_3
REMARK    3  A    between atoms: C_8  and  C_10
REMARK    4  A    between atoms: C_10  and  S_11
REMARK    5  A    between atoms: S_11  and  C_12
REMARK    6  A    between atoms: C_15  and  C_16
REMARK    7  A    between atoms: C_19  and  N_20
REMARK    8  A    between atoms: N_25  and  C_26
REMARK    9  A    between atoms: C_29  and  C_30
REMARK                            x       y       z     vdW  Elec       q    Type
REMARK                         _______ _______ _______ _____ _____    ______ ____
ROOT
ATOM      1  C   UNL     1       0.350   9.732  20.618  0.00  0.00    +0.000 A 
ATOM      2  N   UNL     1      -0.051   8.911  21.560  0.00  0.00    +0.000 NA
ATOM      3  N   UNL     1      -0.700   9.658  22.519  0.00  0.00    +0.000 NA
ATOM      4  C   UNL     1      -0.718  10.929  22.147  0.00  0.00    +0.000 A 
ATOM      5  N   UNL     1       0.007  11.039  20.949  0.00  0.00    +0.000 N 
ENDROOT
BRANCH   5   6
ATOM      6  C   UNL     1       0.285  12.231  20.218  0.00  0.00    +0.000 A 
ATOM      7  C   UNL     1       1.488  12.920  20.425  0.00  0.00    +0.000 A 
ATOM      8  C   UNL     1       1.652  14.209  19.913  0.00  0.00    +0.000 A 
ATOM      9  C   UNL     1       0.647  14.794  19.136  0.00  0.00    +0.000 A 
ATOM     10  C   UNL     1       0.794  16.187  18.601  0.00  0.00    +0.000 C 
ATOM     11  C   UNL     1      -0.513  14.064  18.856  0.00  0.00    +0.000 A 
ATOM     12  C   UNL     1      -0.704  12.796  19.405  0.00  0.00    +0.000 A 
ENDBRANCH   5   6
BRANCH   4  13
ATOM     13  C   UNL     1      -1.416  12.026  22.867  0.00  0.00    +0.000 A 
ATOM     14  C   UNL     1      -0.775  13.258  23.097  0.00  0.00    +0.000 A 
ATOM     15  C   UNL     1      -1.488  14.360  23.610  0.00  0.00    +0.000 A 
ATOM     16  C   UNL     1      -2.852  14.237  23.886  0.00  0.00    +0.000 A 
ATOM     17  C   UNL     1      -3.488  13.006  23.738  0.00  0.00    +0.000 A 
ATOM     18  C   UNL     1      -2.748  11.902  23.296  0.00  0.00    +0.000 A 
BRANCH  16  19
ATOM     19  N   UNL     1      -3.641  15.402  24.316  0.00  0.00    +0.000 N 
ATOM     20  O   UNL     1      -4.870  15.352  24.163  0.00  0.00    +0.000 OA
ATOM     21  O   UNL     1      -3.032  16.357  24.818  0.00  0.00    +0.000 OA
ENDBRANCH  16  19
ENDBRANCH   4  13
BRANCH   1  22
ATOM     22  S   UNL     1       1.293   9.315  19.216  0.00  0.00    +0.000 S 
BRANCH  22  23
ATOM     23  C   UNL     1       1.947   7.664  19.551  0.00  0.00    +0.000 C 
BRANCH  23  29
ATOM     24  C   UNL     1       5.671   4.738  15.786  0.00  0.00    +0.000 A 
ATOM     25  N   UNL     1       5.224   3.707  16.475  0.00  0.00    +0.000 NA
ATOM     26  N   UNL     1       4.368   4.092  17.491  0.00  0.00    +0.000 NA
ATOM     27  C   UNL     1       4.171   5.394  17.514  0.00  0.00    +0.000 A 
ATOM     28  N   UNL     1       3.346   5.998  18.437  0.00  0.00    +0.000 N 
ATOM     29  C   UNL     1       2.920   7.313  18.420  0.00  0.00    +0.000 C 
ATOM     30  O   UNL     1       3.217   8.156  17.576  0.00  0.00    +0.000 OA
ATOM     31  S   UNL     1       5.060   6.248  16.335  0.00  0.00    +0.000 S 
ATOM     32  H   UNL     1       2.935   5.347  19.092  0.00  0.00    +0.000 HD
BRANCH  24  34
ATOM     33  C   UNL     1       6.104   3.864  13.475  0.00  0.00    +0.000 C 
ATOM     34  C   UNL     1       6.646   4.656  14.656  0.00  0.00    +0.000 C 
ENDBRANCH  24  34
ENDBRANCH  23  29
ENDBRANCH  22  23
ENDBRANCH   1  22
TORSDOF 7
ENDMDL
MODEL 5
REMARK VINA RESULT:      -7.3      2.081      2.627
REMARK  Name = 
REMARK  9 active torsions:
REMARK  status: ('A' for Active; 'I' for Inactive)
REMARK    1  A    between atoms: C_1  and  C_2
REMARK    2  A    between atoms: C_2  and  C_3
REMARK    3  A    between atoms: C_8  and  C_10
REMARK    4  A    between atoms: C_10  and  S_11
REMARK    5  A    between atoms: S_11  and  C_12
REMARK    6  A    between atoms: C_15  and  C_16
REMARK    7  A    between atoms: C_19  and  N_20
REMARK    8  A    between atoms: N_25  and  C_26
REMARK    9  A    between atoms: C_29  and  C_30
REMARK                            x       y       z     vdW  Elec       q    Type
REMARK                         _______ _______ _______ _____ _____    ______ ____
ROOT
ATOM      1  C   UNL     1       0.905   9.523  20.866  0.00  0.00    +0.000 A 
ATOM      2  N   UNL     1       1.259   9.669  22.121  0.00  0.00    +0.000 NA
ATOM      3  N   UNL     1       0.401  10.581  22.696  0.00  0.00    +0.000 NA
ATOM      4  C   UNL     1      -0.491  10.971  21.797  0.00  0.00    +0.000 A 
ATOM      5  N   UNL     1      -0.168  10.360  20.575  0.00  0.00    +0.000 N 
ENDROOT
BRANCH   5   6
ATOM      6  C   UNL     1      -0.831  10.533  19.324  0.00  0.00    +0.000 A 
ATOM      7  C   UNL     1      -0.619  11.696  18.571  0.00  0.00    +0.000 A 
ATOM      8  C   UNL     1      -1.450  11.987  17.487  0.00  0.00    +0.000 A 
ATOM      9  C   UNL     1      -2.456  11.092  17.108  0.00  0.00    +0.000 A 
ATOM     10  C   UNL     1      -3.376  11.401  15.964  0.00  0.00    +0.000 C 
ATOM     11  C   UNL     1      -2.602   9.890  17.808  0.00  0.00    +0.000 A 
ATOM     12  C   UNL     1      -1.807   9.616  18.921  0.00  0.00    +0.000 A 
ENDBRANCH   5   6
BRANCH   4  13
ATOM     13  C   UNL     1      -1.644  11.870  22.064  0.00  0.00    +0.000 A 
ATOM     14  C   UNL     1      -2.415  11.724  23.233  0.00  0.00    +0.000 A 
ATOM     15  C   UNL     1      -3.388  12.682  23.583  0.00  0.00    +0.000 A 
ATOM     16  C   UNL     1      -3.586  13.800  22.767  0.00  0.00    +0.000 A 
ATOM     17  C   UNL     1      -2.888  13.924  21.567  0.00  0.00    +0.000 A 
ATOM     18  C   UNL     1      -1.977  12.925  21.199  0.00  0.00    +0.000 A 
BRANCH  16  19
ATOM     19  N   UNL     1      -4.515  14.868  23.168  0.00  0.00    +0.000 N 
ATOM     20  O   UNL     1      -4.041  15.850  23.757  0.00  0.00    +0.000 OA
ATOM     21  O   UNL     1      -5.711  14.729  22.882  0.00  0.00    +0.000 OA
ENDBRANCH  16  19
ENDBRANCH   4  13
BRANCH   1  22
ATOM     22  S   UNL     1       1.712   8.550  19.671  0.00  0.00    +0.000 S 
BRANCH  22  23
ATOM     23  C   UNL     1       1.904   6.921  20.430  0.00  0.00    +0.000 C 
BRANCH  23  29
ATOM     24  C   UNL     1       5.535   5.086  15.952  0.00  0.00    +0.000 A 
ATOM     25  N   UNL     1       5.512   6.375  15.681  0.00  0.00    +0.000 NA
ATOM     26  N   UNL     1       4.675   7.070  16.535  0.00  0.00    +0.000 NA
ATOM     27  C   UNL     1       4.124   6.290  17.442  0.00  0.00    +0.000 A 
ATOM     28  N   UNL     1       3.263   6.772  18.403  0.00  0.00    +0.000 N 
ATOM     29  C   UNL     1       2.796   6.082  19.507  0.00  0.00    +0.000 C 
ATOM     30  O   UNL     1       3.074   4.922  19.801  0.00  0.00    +0.000 OA
ATOM     31  S   UNL     1       4.540   4.643  17.281  0.00  0.00    +0.000 S 
ATOM     32  H   UNL     1       3.090   7.765  18.323  0.00  0.00    +0.000 HD
BRANCH  24  34
ATOM     33  C   UNL     1       5.823   3.930  13.744  0.00  0.00    +0.000 C 
ATOM     34  C   UNL     1       6.305   4.061  15.181  0.00  0.00    +0.000 C 
ENDBRANCH  24  34
ENDBRANCH  23  29
ENDBRANCH  22  23
ENDBRANCH   1  22
TORSDOF 7
ENDMDL
MODEL 6
REMARK VINA RESULT:      -7.3      3.366      4.522
REMARK  Name = 
REMARK  9 active torsions:
REMARK  status: ('A' for Active; 'I' for Inactive)
REMARK    1  A    between atoms: C_1  and  C_2
REMARK    2  A    between atoms: C_2  and  C_3
REMARK    3  A    between atoms: C_8  and  C_10
REMARK    4  A    between atoms: C_10  and  S_11
REMARK    5  A    between atoms: S_11  and  C_12
REMARK    6  A    between atoms: C_15  and  C_16
REMARK    7  A    between atoms: C_19  and  N_20
REMARK    8  A    between atoms: N_25  and  C_26
REMARK    9  A    between atoms: C_29  and  C_30
REMARK                            x       y       z     vdW  Elec       q    Type
REMARK                         _______ _______ _______ _____ _____    ______ ____
ROOT
ATOM      1  C   UNL     1       0.349  10.485  20.987  0.00  0.00    +0.000 A 
ATOM      2  N   UNL     1       1.257  11.011  21.774  0.00  0.00    +0.000 NA
ATOM      3  N   UNL     1       1.505  12.293  21.332  0.00  0.00    +0.000 NA
ATOM      4  C   UNL     1       0.728  12.556  20.292  0.00  0.00    +0.000 A 
ATOM      5  N   UNL     1       0.003  11.392  19.988  0.00  0.00    +0.000 N 
ENDROOT
BRANCH   5   6
ATOM      6  C   UNL     1      -0.918  11.206  18.916  0.00  0.00    +0.000 A 
ATOM      7  C   UNL     1      -2.170  11.836  18.947  0.00  0.00    +0.000 A 
ATOM      8  C   UNL     1      -3.164  11.459  18.043  0.00  0.00    +0.000 A 
ATOM      9  C   UNL     1      -2.899  10.499  17.060  0.00  0.00    +0.000 A 
ATOM     10  C   UNL     1      -3.963  10.061  16.098  0.00  0.00    +0.000 C 
ATOM     11  C   UNL     1      -1.619   9.941  16.978  0.00  0.00    +0.000 A 
ATOM     12  C   UNL     1      -0.636  10.278  17.908  0.00  0.00    +0.000 A 
ENDBRANCH   5   6
BRANCH   4  13
ATOM     13  C   UNL     1       0.629  13.868  19.603  0.00  0.00    +0.000 A 
ATOM     14  C   UNL     1      -0.474  14.715  19.822  0.00  0.00    +0.000 A 
ATOM     15  C   UNL     1      -0.486  16.032  19.320  0.00  0.00    +0.000 A 
ATOM     16  C   UNL     1       0.614  16.513  18.605  0.00  0.00    +0.000 A 
ATOM     17  C   UNL     1       1.682  15.668  18.312  0.00  0.00    +0.000 A 
ATOM     18  C   UNL     1       1.646  14.340  18.756  0.00  0.00    +0.000 A 
BRANCH  16  19
ATOM     19  N   UNL     1       0.672  17.918  18.169  0.00  0.00    +0.000 N 
ATOM     20  O   UNL     1       1.578  18.625  18.631  0.00  0.00    +0.000 OA
ATOM     21  O   UNL     1      -0.179  18.304  17.357  0.00  0.00    +0.000 OA
ENDBRANCH  16  19
ENDBRANCH   4  13
BRANCH   1  22
ATOM     22  S   UNL     1      -0.261   8.857  21.054  0.00  0.00    +0.000 S 
BRANCH  22  23
ATOM     23  C   UNL     1       1.156   7.834  21.517  0.00  0.00    +0.000 C 
BRANCH  23  29
ATOM     24  C   UNL     1       4.510   5.065  17.311  0.00  0.00    +0.000 A 
ATOM     25  N   UNL     1       4.429   4.084  18.187  0.00  0.00    +0.000 NA
ATOM     26  N   UNL     1       3.747   4.462  19.329  0.00  0.00    +0.000 NA
ATOM     27  C   UNL     1       3.306   5.702  19.263  0.00  0.00    +0.000 A 
ATOM     28  N   UNL     1       2.590   6.284  20.285  0.00  0.00    +0.000 N 
ATOM     29  C   UNL     1       1.919   7.492  20.232  0.00  0.00    +0.000 C 
ATOM     30  O   UNL     1       1.861   8.242  19.260  0.00  0.00    +0.000 OA
ATOM     31  S   UNL     1       3.743   6.514  17.828  0.00  0.00    +0.000 S 
ATOM     32  H   UNL     1       2.463   5.675  21.082  0.00  0.00    +0.000 HD
BRANCH  24  34
ATOM     33  C   UNL     1       6.653   4.486  16.143  0.00  0.00    +0.000 C 
ATOM     34  C   UNL     1       5.223   4.987  15.999  0.00  0.00    +0.000 C 
ENDBRANCH  24  34
ENDBRANCH  23  29
ENDBRANCH  22  23
ENDBRANCH   1  22
TORSDOF 7
ENDMDL
MODEL 7
REMARK VINA RESULT:      -7.1      1.988      2.530
REMARK  Name = 
REMARK  9 active torsions:
REMARK  status: ('A' for Active; 'I' for Inactive)
REMARK    1  A    between atoms: C_1  and  C_2
REMARK    2  A    between atoms: C_2  and  C_3
REMARK    3  A    between atoms: C_8  and  C_10
REMARK    4  A    between atoms: C_10  and  S_11
REMARK    5  A    between atoms: S_11  and  C_12
REMARK    6  A    between atoms: C_15  and  C_16
REMARK    7  A    between atoms: C_19  and  N_20
REMARK    8  A    between atoms: N_25  and  C_26
REMARK    9  A    between atoms: C_29  and  C_30
REMARK                            x       y       z     vdW  Elec       q    Type
REMARK                         _______ _______ _______ _____ _____    ______ ____
ROOT
ATOM      1  C   UNL     1       0.875   9.350  21.001  0.00  0.00    +0.000 A 
ATOM      2  N   UNL     1       1.395   9.413  22.203  0.00  0.00    +0.000 NA
ATOM      3  N   UNL     1       0.746  10.417  22.889  0.00  0.00    +0.000 NA
ATOM      4  C   UNL     1      -0.187  10.946  22.112  0.00  0.00    +0.000 A 
ATOM      5  N   UNL     1      -0.101  10.330  20.852  0.00  0.00    +0.000 N 
ENDROOT
BRANCH   5   6
ATOM      6  C   UNL     1      -0.882  10.623  19.696  0.00  0.00    +0.000 A 
ATOM      7  C   UNL     1      -1.813   9.689  19.221  0.00  0.00    +0.000 A 
ATOM      8  C   UNL     1      -2.387   9.855  17.959  0.00  0.00    +0.000 A 
ATOM      9  C   UNL     1      -2.087  10.983  17.189  0.00  0.00    +0.000 A 
ATOM     10  C   UNL     1      -2.672  11.164  15.820  0.00  0.00    +0.000 C 
ATOM     11  C   UNL     1      -1.228  11.957  17.709  0.00  0.00    +0.000 A 
ATOM     12  C   UNL     1      -0.614  11.774  18.947  0.00  0.00    +0.000 A 
ENDBRANCH   5   6
BRANCH   4  13
ATOM     13  C   UNL     1      -1.165  11.985  22.528  0.00  0.00    +0.000 A 
ATOM     14  C   UNL     1      -0.921  13.348  22.273  0.00  0.00    +0.000 A 
ATOM     15  C   UNL     1      -1.920  14.316  22.495  0.00  0.00    +0.000 A 
ATOM     16  C   UNL     1      -3.176  13.922  22.964  0.00  0.00    +0.000 A 
ATOM     17  C   UNL     1      -3.414  12.590  23.295  0.00  0.00    +0.000 A 
ATOM     18  C   UNL     1      -2.387  11.652  23.137  0.00  0.00    +0.000 A 
BRANCH  16  19
ATOM     19  N   UNL     1      -4.269  14.899  23.098  0.00  0.00    +0.000 N 
ATOM     20  O   UNL     1      -4.731  15.093  24.232  0.00  0.00    +0.000 OA
ATOM     21  O   UNL     1      -4.652  15.479  22.074  0.00  0.00    +0.000 OA
ENDBRANCH  16  19
ENDBRANCH   4  13
BRANCH   1  22
ATOM     22  S   UNL     1       1.390   8.308  19.705  0.00  0.00    +0.000 S 
BRANCH  22  23
ATOM     23  C   UNL     1       1.711   6.706  20.477  0.00  0.00    +0.000 C 
BRANCH  23  29
ATOM     24  C   UNL     1       5.599   5.195  16.095  0.00  0.00    +0.000 A 
ATOM     25  N   UNL     1       5.451   6.472  15.806  0.00  0.00    +0.000 NA
ATOM     26  N   UNL     1       4.531   7.089  16.634  0.00  0.00    +0.000 NA
ATOM     27  C   UNL     1       4.043   6.268  17.541  0.00  0.00    +0.000 A 
ATOM     28  N   UNL     1       3.119   6.672  18.478  0.00  0.00    +0.000 N 
ATOM     29  C   UNL     1       2.701   5.951  19.583  0.00  0.00    +0.000 C 
ATOM     30  O   UNL     1       3.089   4.829  19.899  0.00  0.00    +0.000 OA
ATOM     31  S   UNL     1       4.626   4.670  17.411  0.00  0.00    +0.000 S 
ATOM     32  H   UNL     1       2.847   7.641  18.381  0.00  0.00    +0.000 HD
BRANCH  24  34
ATOM     33  C   UNL     1       6.034   4.032  13.915  0.00  0.00    +0.000 C 
ATOM     34  C   UNL     1       6.484   4.245  15.353  0.00  0.00    +0.000 C 
ENDBRANCH  24  34
ENDBRANCH  23  29
ENDBRANCH  22  23
ENDBRANCH   1  22
TORSDOF 7
ENDMDL
MODEL 8
REMARK VINA RESULT:      -7.1      3.596      8.453
REMARK  Name = 
REMARK  9 active torsions:
REMARK  status: ('A' for Active; 'I' for Inactive)
REMARK    1  A    between atoms: C_1  and  C_2
REMARK    2  A    between atoms: C_2  and  C_3
REMARK    3  A    between atoms: C_8  and  C_10
REMARK    4  A    between atoms: C_10  and  S_11
REMARK    5  A    between atoms: S_11  and  C_12
REMARK    6  A    between atoms: C_15  and  C_16
REMARK    7  A    between atoms: C_19  and  N_20
REMARK    8  A    between atoms: N_25  and  C_26
REMARK    9  A    between atoms: C_29  and  C_30
REMARK                            x       y       z     vdW  Elec       q    Type
REMARK                         _______ _______ _______ _____ _____    ______ ____
ROOT
ATOM      1  C   UNL     1      -0.908  11.650  21.314  0.00  0.00    +0.000 A 
ATOM      2  N   UNL     1      -0.106  11.387  22.318  0.00  0.00    +0.000 NA
ATOM      3  N   UNL     1       0.723  10.354  21.935  0.00  0.00    +0.000 NA
ATOM      4  C   UNL     1       0.442  10.007  20.687  0.00  0.00    +0.000 A 
ATOM      5  N   UNL     1      -0.653  10.776  20.261  0.00  0.00    +0.000 N 
ENDROOT
BRANCH   5   6
ATOM      6  C   UNL     1      -1.320  10.701  19.003  0.00  0.00    +0.000 A 
ATOM      7  C   UNL     1      -1.170  11.731  18.064  0.00  0.00    +0.000 A 
ATOM      8  C   UNL     1      -2.012  11.791  16.952  0.00  0.00    +0.000 A 
ATOM      9  C   UNL     1      -2.965  10.791  16.733  0.00  0.00    +0.000 A 
ATOM     10  C   UNL     1      -3.897  10.853  15.559  0.00  0.00    +0.000 C 
ATOM     11  C   UNL     1      -3.047   9.716  17.625  0.00  0.00    +0.000 A 
ATOM     12  C   UNL     1      -2.242   9.676  18.763  0.00  0.00    +0.000 A 
ENDBRANCH   5   6
BRANCH   4  13
ATOM     13  C   UNL     1       1.187   9.001  19.886  0.00  0.00    +0.000 A 
ATOM     14  C   UNL     1       1.647   9.310  18.591  0.00  0.00    +0.000 A 
ATOM     15  C   UNL     1       2.509   8.434  17.902  0.00  0.00    +0.000 A 
ATOM     16  C   UNL     1       2.926   7.248  18.511  0.00  0.00    +0.000 A 
ATOM     17  C   UNL     1       2.422   6.887  19.759  0.00  0.00    +0.000 A 
ATOM     18  C   UNL     1       1.509   7.734  20.399  0.00  0.00    +0.000 A 
BRANCH  16  19
ATOM     19  N   UNL     1       3.912   6.373  17.857  0.00  0.00    +0.000 N 
ATOM     20  O   UNL     1       4.144   5.275  18.384  0.00  0.00    +0.000 OA
ATOM     21  O   UNL     1       4.440   6.778  16.813  0.00  0.00    +0.000 OA
ENDBRANCH  16  19
ENDBRANCH   4  13
BRANCH   1  22
ATOM     22  S   UNL     1      -2.204  12.811  21.302  0.00  0.00    +0.000 S 
BRANCH  22  23
ATOM     23  C   UNL     1      -1.475  14.348  21.913  0.00  0.00    +0.000 C 
BRANCH  23  29
ATOM     24  C   UNL     1       4.319  14.947  20.280  0.00  0.00    +0.000 A 
ATOM     25  N   UNL     1       4.498  14.465  21.493  0.00  0.00    +0.000 NA
ATOM     26  N   UNL     1       3.300  14.283  22.161  0.00  0.00    +0.000 NA
ATOM     27  C   UNL     1       2.259  14.599  21.418  0.00  0.00    +0.000 A 
ATOM     28  N   UNL     1       0.966  14.485  21.877  0.00  0.00    +0.000 N 
ATOM     29  C   UNL     1      -0.187  14.596  21.120  0.00  0.00    +0.000 C 
ATOM     30  O   UNL     1      -0.236  14.821  19.913  0.00  0.00    +0.000 OA
ATOM     31  S   UNL     1       2.668  15.196  19.873  0.00  0.00    +0.000 S 
ATOM     32  H   UNL     1       0.907  14.160  22.833  0.00  0.00    +0.000 HD
BRANCH  24  34
ATOM     33  C   UNL     1       5.210  14.681  17.950  0.00  0.00    +0.000 C 
ATOM     34  C   UNL     1       5.417  15.296  19.326  0.00  0.00    +0.000 C 
ENDBRANCH  24  34
ENDBRANCH  23  29
ENDBRANCH  22  23
ENDBRANCH   1  22
TORSDOF 7
ENDMDL
MODEL 9
REMARK VINA RESULT:      -7.1      5.337      6.353
REMARK  Name = 
REMARK  9 active torsions:
REMARK  status: ('A' for Active; 'I' for Inactive)
REMARK    1  A    between atoms: C_1  and  C_2
REMARK    2  A    between atoms: C_2  and  C_3
REMARK    3  A    between atoms: C_8  and  C_10
REMARK    4  A    between atoms: C_10  and  S_11
REMARK    5  A    between atoms: S_11  and  C_12
REMARK    6  A    between atoms: C_15  and  C_16
REMARK    7  A    between atoms: C_19  and  N_20
REMARK    8  A    between atoms: N_25  and  C_26
REMARK    9  A    between atoms: C_29  and  C_30
REMARK                            x       y       z     vdW  Elec       q    Type
REMARK                         _______ _______ _______ _____ _____    ______ ____
ROOT
ATOM      1  C   UNL     1       2.382  14.187  20.125  0.00  0.00    +0.000 A 
ATOM      2  N   UNL     1       2.661  14.983  21.130  0.00  0.00    +0.000 NA
ATOM      3  N   UNL     1       1.612  14.919  22.020  0.00  0.00    +0.000 NA
ATOM      4  C   UNL     1       0.705  14.064  21.569  0.00  0.00    +0.000 A 
ATOM      5  N   UNL     1       1.129  13.610  20.310  0.00  0.00    +0.000 N 
ENDROOT
BRANCH   5   6
ATOM      6  C   UNL     1       0.439  12.715  19.441  0.00  0.00    +0.000 A 
ATOM      7  C   UNL     1      -0.660  13.165  18.697  0.00  0.00    +0.000 A 
ATOM      8  C   UNL     1      -1.490  12.246  18.052  0.00  0.00    +0.000 A 
ATOM      9  C   UNL     1      -1.195  10.879  18.089  0.00  0.00    +0.000 A 
ATOM     10  C   UNL     1      -2.090   9.875  17.425  0.00  0.00    +0.000 C 
ATOM     11  C   UNL     1      -0.045  10.446  18.757  0.00  0.00    +0.000 A 
ATOM     12  C   UNL     1       0.761  11.353  19.443  0.00  0.00    +0.000 A 
ENDBRANCH   5   6
BRANCH   4  13
ATOM     13  C   UNL     1      -0.521  13.647  22.298  0.00  0.00    +0.000 A 
ATOM     14  C   UNL     1      -1.493  14.594  22.672  0.00  0.00    +0.000 A 
ATOM     15  C   UNL     1      -2.736  14.187  23.195  0.00  0.00    +0.000 A 
ATOM     16  C   UNL     1      -3.018  12.826  23.335  0.00  0.00    +0.000 A 
ATOM     17  C   UNL     1      -2.043  11.875  23.042  0.00  0.00    +0.000 A 
ATOM     18  C   UNL     1      -0.786  12.300  22.593  0.00  0.00    +0.000 A 
BRANCH  16  19
ATOM     19  N   UNL     1      -4.349  12.374  23.772  0.00  0.00    +0.000 N 
ATOM     20  O   UNL     1      -4.450  11.910  24.917  0.00  0.00    +0.000 OA
ATOM     21  O   UNL     1      -5.290  12.498  22.977  0.00  0.00    +0.000 OA
ENDBRANCH  16  19
ENDBRANCH   4  13
BRANCH   1  22
ATOM     22  S   UNL     1       3.336  13.963  18.687  0.00  0.00    +0.000 S 
BRANCH  22  23
ATOM     23  C   UNL     1       4.387  15.429  18.576  0.00  0.00    +0.000 C 
BRANCH  23  29
ATOM     24  C   UNL     1      10.003  13.321  19.359  0.00  0.00    +0.000 A 
ATOM     25  N   UNL     1       9.871  13.075  18.072  0.00  0.00    +0.000 NA
ATOM     26  N   UNL     1       8.611  13.407  17.607  0.00  0.00    +0.000 NA
ATOM     27  C   UNL     1       7.849  13.923  18.549  0.00  0.00    +0.000 A 
ATOM     28  N   UNL     1       6.557  14.335  18.307  0.00  0.00    +0.000 N 
ATOM     29  C   UNL     1       5.754  15.065  19.165  0.00  0.00    +0.000 C 
ATOM     30  O   UNL     1       6.069  15.457  20.287  0.00  0.00    +0.000 OA
ATOM     31  S   UNL     1       8.593  13.987  20.082  0.00  0.00    +0.000 S 
ATOM     32  H   UNL     1       6.260  14.181  17.353  0.00  0.00    +0.000 HD
BRANCH  24  34
ATOM     33  C   UNL     1      12.266  12.238  19.384  0.00  0.00    +0.000 C 
ATOM     34  C   UNL     1      11.228  13.028  20.167  0.00  0.00    +0.000 C 
ENDBRANCH  24  34
ENDBRANCH  23  29
ENDBRANCH  22  23
ENDBRANCH   1  22
TORSDOF 7
ENDMDL
