MODEL 1
REMARK VINA RESULT:      -7.6      0.000      0.000
REMARK  Name = 
REMARK  7 active torsions:
REMARK  status: ('A' for Active; 'I' for Inactive)
REMARK    1  A    between atoms: C_1  and  O_2
REMARK    2  A    between atoms: O_2  and  C_3
REMARK    3  A    between atoms: C_8  and  S_9
REMARK    4  A    between atoms: S_9  and  C_10
REMARK    5  A    between atoms: N_17  and  C_18
REMARK    6  A    between atoms: C_18  and  C_19
REMARK    7  A    between atoms: C_18  and  C_20
REMARK                            x       y       z     vdW  Elec       q    Type
REMARK                         _______ _______ _______ _____ _____    ______ ____
ROOT
ATOM      1  C   UNL     1       0.275   9.986  19.629  0.00  0.00    +0.000 C 
ATOM      2  C   UNL     1       0.188  10.260  18.102  0.00  0.00    +0.000 C 
ATOM      3  C   UNL     1       1.368   9.292  17.992  0.00  0.00    +0.000 C 
ATOM      4  O   UNL     1       2.031   8.831  17.091  0.00  0.00    +0.000 OA
ATOM      5  N   UNL     1       1.495   9.207  19.345  0.00  0.00    +0.000 N 
ATOM      6  C   UNL     1       1.908   8.086  20.046  0.00  0.00    +0.000 C 
ATOM      7  O   UNL     1       1.636   7.905  21.231  0.00  0.00    +0.000 OA
ATOM      8  N   UNL     1       2.565   7.136  19.290  0.00  0.00    +0.000 N 
ATOM      9  H   UNL     1       2.857   7.412  18.358  0.00  0.00    +0.000 HD
ENDROOT
BRANCH   8  10
ATOM     10  C   UNL     1       3.151   5.941  19.882  0.00  0.00    +0.000 C 
ATOM     11  C   UNL     1       4.562   5.722  19.330  0.00  0.00    +0.000 C 
BRANCH  10  12
ATOM     12  C   UNL     1       2.334   4.670  19.671  0.00  0.00    +0.000 A 
ATOM     13  C   UNL     1       2.052   4.250  18.357  0.00  0.00    +0.000 A 
ATOM     14  C   UNL     1       1.196   3.172  18.108  0.00  0.00    +0.000 A 
ATOM     15  C   UNL     1       0.610   2.491  19.172  0.00  0.00    +0.000 A 
ATOM     16  C   UNL     1       0.889   2.882  20.480  0.00  0.00    +0.000 A 
ATOM     17  C   UNL     1       1.742   3.964  20.730  0.00  0.00    +0.000 A 
ENDBRANCH  10  12
ENDBRANCH   8  10
BRANCH   1  18
ATOM     18  S   UNL     1       0.522  11.582  20.479  0.00  0.00    +0.000 S 
BRANCH  18  24
ATOM     19  C   UNL     1      -1.376  11.620  22.612  0.00  0.00    +0.000 A 
ATOM     20  C   UNL     1      -2.608  12.057  23.121  0.00  0.00    +0.000 A 
ATOM     21  C   UNL     1      -3.569  12.621  22.283  0.00  0.00    +0.000 A 
ATOM     22  C   UNL     1      -3.312  12.741  20.924  0.00  0.00    +0.000 A 
ATOM     23  C   UNL     1      -2.058  12.386  20.426  0.00  0.00    +0.000 A 
ATOM     24  C   UNL     1      -1.051  11.885  21.272  0.00  0.00    +0.000 A 
BRANCH  19  26
ATOM     25  C   UNL     1      -0.526   9.521  23.287  0.00  0.00    +0.000 C 
ATOM     26  O   UNL     1      -0.467  10.941  23.385  0.00  0.00    +0.000 OA
ENDBRANCH  19  26
ENDBRANCH  18  24
ENDBRANCH   1  18
TORSDOF 5
ENDMDL
MODEL 2
REMARK VINA RESULT:      -7.5      2.890      8.283
REMARK  Name = 
REMARK  7 active torsions:
REMARK  status: ('A' for Active; 'I' for Inactive)
REMARK    1  A    between atoms: C_1  and  O_2
REMARK    2  A    between atoms: O_2  and  C_3
REMARK    3  A    between atoms: C_8  and  S_9
REMARK    4  A    between atoms: S_9  and  C_10
REMARK    5  A    between atoms: N_17  and  C_18
REMARK    6  A    between atoms: C_18  and  C_19
REMARK    7  A    between atoms: C_18  and  C_20
REMARK                            x       y       z     vdW  Elec       q    Type
REMARK                         _______ _______ _______ _____ _____    ______ ____
ROOT
ATOM      1  C   UNL     1       2.515   6.005  19.333  0.00  0.00    +0.000 C 
ATOM      2  C   UNL     1       1.819   5.612  20.667  0.00  0.00    +0.000 C 
ATOM      3  C   UNL     1       1.456   7.095  20.764  0.00  0.00    +0.000 C 
ATOM      4  O   UNL     1       0.837   7.787  21.539  0.00  0.00    +0.000 OA
ATOM      5  N   UNL     1       2.208   7.407  19.673  0.00  0.00    +0.000 N 
ATOM      6  C   UNL     1       1.922   8.406  18.756  0.00  0.00    +0.000 C 
ATOM      7  O   UNL     1       2.365   8.404  17.611  0.00  0.00    +0.000 OA
ATOM      8  N   UNL     1       1.020   9.355  19.193  0.00  0.00    +0.000 N 
ATOM      9  H   UNL     1       0.798   9.357  20.184  0.00  0.00    +0.000 HD
ENDROOT
BRANCH   8  10
ATOM     10  C   UNL     1       0.677  10.527  18.398  0.00  0.00    +0.000 C 
ATOM     11  C   UNL     1       1.202  11.794  19.079  0.00  0.00    +0.000 C 
BRANCH  10  12
ATOM     12  C   UNL     1      -0.816  10.690  18.131  0.00  0.00    +0.000 A 
ATOM     13  C   UNL     1      -1.537  11.658  18.855  0.00  0.00    +0.000 A 
ATOM     14  C   UNL     1      -2.928  11.757  18.748  0.00  0.00    +0.000 A 
ATOM     15  C   UNL     1      -3.623  10.891  17.909  0.00  0.00    +0.000 A 
ATOM     16  C   UNL     1      -2.926   9.935  17.171  0.00  0.00    +0.000 A 
ATOM     17  C   UNL     1      -1.533   9.834  17.282  0.00  0.00    +0.000 A 
ENDBRANCH  10  12
ENDBRANCH   8  10
BRANCH   1  18
ATOM     18  S   UNL     1       4.270   5.518  19.445  0.00  0.00    +0.000 S 
BRANCH  18  24
ATOM     19  C   UNL     1       4.629   4.049  17.023  0.00  0.00    +0.000 A 
ATOM     20  C   UNL     1       4.904   4.043  15.648  0.00  0.00    +0.000 A 
ATOM     21  C   UNL     1       5.424   5.172  15.016  0.00  0.00    +0.000 A 
ATOM     22  C   UNL     1       5.686   6.316  15.759  0.00  0.00    +0.000 A 
ATOM     23  C   UNL     1       5.337   6.357  17.109  0.00  0.00    +0.000 A 
ATOM     24  C   UNL     1       4.742   5.249  17.743  0.00  0.00    +0.000 A 
BRANCH  19  26
ATOM     25  C   UNL     1       2.864   2.581  17.581  0.00  0.00    +0.000 C 
ATOM     26  O   UNL     1       4.244   2.916  17.695  0.00  0.00    +0.000 OA
ENDBRANCH  19  26
ENDBRANCH  18  24
ENDBRANCH   1  18
TORSDOF 5
ENDMDL
MODEL 3
REMARK VINA RESULT:      -7.5      3.113      8.574
REMARK  Name = 
REMARK  7 active torsions:
REMARK  status: ('A' for Active; 'I' for Inactive)
REMARK    1  A    between atoms: C_1  and  O_2
REMARK    2  A    between atoms: O_2  and  C_3
REMARK    3  A    between atoms: C_8  and  S_9
REMARK    4  A    between atoms: S_9  and  C_10
REMARK    5  A    between atoms: N_17  and  C_18
REMARK    6  A    between atoms: C_18  and  C_19
REMARK    7  A    between atoms: C_18  and  C_20
REMARK                            x       y       z     vdW  Elec       q    Type
REMARK                         _______ _______ _______ _____ _____    ______ ____
ROOT
ATOM      1  C   UNL     1       3.097   5.397  19.137  0.00  0.00    +0.000 C 
ATOM      2  C   UNL     1       2.282   4.950  20.383  0.00  0.00    +0.000 C 
ATOM      3  C   UNL     1       1.832   6.411  20.451  0.00  0.00    +0.000 C 
ATOM      4  O   UNL     1       1.096   7.059  21.158  0.00  0.00    +0.000 OA
ATOM      5  N   UNL     1       2.681   6.776  19.451  0.00  0.00    +0.000 N 
ATOM      6  C   UNL     1       2.444   7.771  18.517  0.00  0.00    +0.000 C 
ATOM      7  O   UNL     1       3.009   7.808  17.427  0.00  0.00    +0.000 OA
ATOM      8  N   UNL     1       1.450   8.666  18.859  0.00  0.00    +0.000 N 
ATOM      9  H   UNL     1       1.122   8.643  19.819  0.00  0.00    +0.000 HD
ENDROOT
BRANCH   8  10
ATOM     10  C   UNL     1       1.135   9.829  18.040  0.00  0.00    +0.000 C 
ATOM     11  C   UNL     1       2.129  10.957  18.328  0.00  0.00    +0.000 C 
BRANCH  10  12
ATOM     12  C   UNL     1      -0.284  10.360  18.222  0.00  0.00    +0.000 A 
ATOM     13  C   UNL     1      -1.320   9.819  17.439  0.00  0.00    +0.000 A 
ATOM     14  C   UNL     1      -2.610  10.359  17.469  0.00  0.00    +0.000 A 
ATOM     15  C   UNL     1      -2.886  11.450  18.288  0.00  0.00    +0.000 A 
ATOM     16  C   UNL     1      -1.877  11.991  19.083  0.00  0.00    +0.000 A 
ATOM     17  C   UNL     1      -0.585  11.452  19.050  0.00  0.00    +0.000 A 
ENDBRANCH  10  12
ENDBRANCH   8  10
BRANCH   1  18
ATOM     18  S   UNL     1       4.853   5.000  19.437  0.00  0.00    +0.000 S 
BRANCH  18  24
ATOM     19  C   UNL     1       6.882   4.712  17.449  0.00  0.00    +0.000 A 
ATOM     20  C   UNL     1       7.242   4.385  16.133  0.00  0.00    +0.000 A 
ATOM     21  C   UNL     1       6.276   4.267  15.136  0.00  0.00    +0.000 A 
ATOM     22  C   UNL     1       4.940   4.490  15.442  0.00  0.00    +0.000 A 
ATOM     23  C   UNL     1       4.567   4.733  16.763  0.00  0.00    +0.000 A 
ATOM     24  C   UNL     1       5.523   4.781  17.795  0.00  0.00    +0.000 A 
BRANCH  19  26
ATOM     25  C   UNL     1       7.945   6.333  18.801  0.00  0.00    +0.000 C 
ATOM     26  O   UNL     1       7.819   4.965  18.420  0.00  0.00    +0.000 OA
ENDBRANCH  19  26
ENDBRANCH  18  24
ENDBRANCH   1  18
TORSDOF 5
ENDMDL
MODEL 4
REMARK VINA RESULT:      -7.4      3.144      8.381
REMARK  Name = 
REMARK  7 active torsions:
REMARK  status: ('A' for Active; 'I' for Inactive)
REMARK    1  A    between atoms: C_1  and  O_2
REMARK    2  A    between atoms: O_2  and  C_3
REMARK    3  A    between atoms: C_8  and  S_9
REMARK    4  A    between atoms: S_9  and  C_10
REMARK    5  A    between atoms: N_17  and  C_18
REMARK    6  A    between atoms: C_18  and  C_19
REMARK    7  A    between atoms: C_18  and  C_20
REMARK                            x       y       z     vdW  Elec       q    Type
REMARK                         _______ _______ _______ _____ _____    ______ ____
ROOT
ATOM      1  C   UNL     1       2.749   4.272  17.948  0.00  0.00    +0.000 C 
ATOM      2  C   UNL     1       1.624   3.309  18.422  0.00  0.00    +0.000 C 
ATOM      3  C   UNL     1       1.426   4.311  19.561  0.00  0.00    +0.000 C 
ATOM      4  O   UNL     1       0.678   4.411  20.507  0.00  0.00    +0.000 OA
ATOM      5  N   UNL     1       2.516   5.035  19.188  0.00  0.00    +0.000 N 
ATOM      6  C   UNL     1       2.655   6.407  19.319  0.00  0.00    +0.000 C 
ATOM      7  O   UNL     1       3.436   7.065  18.636  0.00  0.00    +0.000 OA
ATOM      8  N   UNL     1       1.779   6.999  20.207  0.00  0.00    +0.000 N 
ATOM      9  H   UNL     1       1.256   6.379  20.818  0.00  0.00    +0.000 HD
ENDROOT
BRANCH   8  10
ATOM     10  C   UNL     1       1.846   8.415  20.540  0.00  0.00    +0.000 C 
ATOM     11  C   UNL     1       1.602   8.614  22.038  0.00  0.00    +0.000 C 
BRANCH  10  12
ATOM     12  C   UNL     1       0.871   9.291  19.759  0.00  0.00    +0.000 A 
ATOM     13  C   UNL     1      -0.130   9.990  20.459  0.00  0.00    +0.000 A 
ATOM     14  C   UNL     1      -1.129  10.697  19.783  0.00  0.00    +0.000 A 
ATOM     15  C   UNL     1      -1.142  10.720  18.391  0.00  0.00    +0.000 A 
ATOM     16  C   UNL     1      -0.151  10.048  17.679  0.00  0.00    +0.000 A 
ATOM     17  C   UNL     1       0.848   9.336  18.357  0.00  0.00    +0.000 A 
ENDBRANCH  10  12
ENDBRANCH   8  10
BRANCH   1  18
ATOM     18  S   UNL     1       4.307   3.327  17.867  0.00  0.00    +0.000 S 
BRANCH  18  24
ATOM     19  C   UNL     1       5.959   5.319  16.658  0.00  0.00    +0.000 A 
ATOM     20  C   UNL     1       6.857   6.387  16.799  0.00  0.00    +0.000 A 
ATOM     21  C   UNL     1       7.472   6.648  18.022  0.00  0.00    +0.000 A 
ATOM     22  C   UNL     1       7.205   5.834  19.114  0.00  0.00    +0.000 A 
ATOM     23  C   UNL     1       6.251   4.822  19.003  0.00  0.00    +0.000 A 
ATOM     24  C   UNL     1       5.566   4.594  17.795  0.00  0.00    +0.000 A 
BRANCH  19  26
ATOM     25  C   UNL     1       6.399   4.523  14.477  0.00  0.00    +0.000 C 
ATOM     26  O   UNL     1       5.441   4.956  15.439  0.00  0.00    +0.000 OA
ENDBRANCH  19  26
ENDBRANCH  18  24
ENDBRANCH   1  18
TORSDOF 5
ENDMDL
MODEL 5
REMARK VINA RESULT:      -7.3      2.878      8.410
REMARK  Name = 
REMARK  7 active torsions:
REMARK  status: ('A' for Active; 'I' for Inactive)
REMARK    1  A    between atoms: C_1  and  O_2
REMARK    2  A    between atoms: O_2  and  C_3
REMARK    3  A    between atoms: C_8  and  S_9
REMARK    4  A    between atoms: S_9  and  C_10
REMARK    5  A    between atoms: N_17  and  C_18
REMARK    6  A    between atoms: C_18  and  C_19
REMARK    7  A    between atoms: C_18  and  C_20
REMARK                            x       y       z     vdW  Elec       q    Type
REMARK                         _______ _______ _______ _____ _____    ______ ____
ROOT
ATOM      1  C   UNL     1       2.821   5.852  19.176  0.00  0.00    +0.000 C 
ATOM      2  C   UNL     1       2.074   5.416  20.467  0.00  0.00    +0.000 C 
ATOM      3  C   UNL     1       1.658   6.885  20.568  0.00  0.00    +0.000 C 
ATOM      4  O   UNL     1       0.980   7.544  21.321  0.00  0.00    +0.000 OA
ATOM      5  N   UNL     1       2.452   7.238  19.519  0.00  0.00    +0.000 N 
ATOM      6  C   UNL     1       2.177   8.241  18.604  0.00  0.00    +0.000 C 
ATOM      7  O   UNL     1       2.676   8.272  17.482  0.00  0.00    +0.000 OA
ATOM      8  N   UNL     1       1.225   9.154  19.010  0.00  0.00    +0.000 N 
ATOM      9  H   UNL     1       0.955   9.133  19.988  0.00  0.00    +0.000 HD
ENDROOT
BRANCH   8  10
ATOM     10  C   UNL     1       0.883  10.327  18.215  0.00  0.00    +0.000 C 
ATOM     11  C   UNL     1       1.567  11.568  18.793  0.00  0.00    +0.000 C 
BRANCH  10  12
ATOM     12  C   UNL     1      -0.615  10.594  18.102  0.00  0.00    +0.000 A 
ATOM     13  C   UNL     1      -1.196  11.578  18.923  0.00  0.00    +0.000 A 
ATOM     14  C   UNL     1      -2.581  11.769  18.957  0.00  0.00    +0.000 A 
ATOM     15  C   UNL     1      -3.411  10.979  18.165  0.00  0.00    +0.000 A 
ATOM     16  C   UNL     1      -2.853  10.009  17.334  0.00  0.00    +0.000 A 
ATOM     17  C   UNL     1      -1.467   9.815  17.303  0.00  0.00    +0.000 A 
ENDBRANCH  10  12
ENDBRANCH   8  10
BRANCH   1  18
ATOM     18  S   UNL     1       4.583   5.420  19.366  0.00  0.00    +0.000 S 
BRANCH  18  24
ATOM     19  C   UNL     1       5.924   6.049  16.925  0.00  0.00    +0.000 A 
ATOM     20  C   UNL     1       6.404   5.635  15.673  0.00  0.00    +0.000 A 
ATOM     21  C   UNL     1       5.999   4.424  15.115  0.00  0.00    +0.000 A 
ATOM     22  C   UNL     1       5.097   3.620  15.799  0.00  0.00    +0.000 A 
ATOM     23  C   UNL     1       4.680   3.984  17.079  0.00  0.00    +0.000 A 
ATOM     24  C   UNL     1       5.140   5.168  17.687  0.00  0.00    +0.000 A 
BRANCH  19  26
ATOM     25  C   UNL     1       7.583   7.631  17.500  0.00  0.00    +0.000 C 
ATOM     26  O   UNL     1       6.200   7.291  17.438  0.00  0.00    +0.000 OA
ENDBRANCH  19  26
ENDBRANCH  18  24
ENDBRANCH   1  18
TORSDOF 5
ENDMDL
MODEL 6
REMARK VINA RESULT:      -7.2      3.402      8.559
REMARK  Name = 
REMARK  7 active torsions:
REMARK  status: ('A' for Active; 'I' for Inactive)
REMARK    1  A    between atoms: C_1  and  O_2
REMARK    2  A    between atoms: O_2  and  C_3
REMARK    3  A    between atoms: C_8  and  S_9
REMARK    4  A    between atoms: S_9  and  C_10
REMARK    5  A    between atoms: N_17  and  C_18
REMARK    6  A    between atoms: C_18  and  C_19
REMARK    7  A    between atoms: C_18  and  C_20
REMARK                            x       y       z     vdW  Elec       q    Type
REMARK                         _______ _______ _______ _____ _____    ______ ____
ROOT
ATOM      1  C   UNL     1       2.827   4.249  18.281  0.00  0.00    +0.000 C 
ATOM      2  C   UNL     1       1.654   3.311  18.682  0.00  0.00    +0.000 C 
ATOM      3  C   UNL     1       1.377   4.342  19.779  0.00  0.00    +0.000 C 
ATOM      4  O   UNL     1       0.555   4.473  20.657  0.00  0.00    +0.000 OA
ATOM      5  N   UNL     1       2.504   5.044  19.480  0.00  0.00    +0.000 N 
ATOM      6  C   UNL     1       2.651   6.417  19.592  0.00  0.00    +0.000 C 
ATOM      7  O   UNL     1       3.494   7.049  18.961  0.00  0.00    +0.000 OA
ATOM      8  N   UNL     1       1.713   7.039  20.391  0.00  0.00    +0.000 N 
ATOM      9  H   UNL     1       1.133   6.440  20.970  0.00  0.00    +0.000 HD
ENDROOT
BRANCH   8  10
ATOM     10  C   UNL     1       1.772   8.462  20.696  0.00  0.00    +0.000 C 
ATOM     11  C   UNL     1       1.459   8.694  22.176  0.00  0.00    +0.000 C 
BRANCH  10  12
ATOM     12  C   UNL     1       0.840   9.326  19.851  0.00  0.00    +0.000 A 
ATOM     13  C   UNL     1      -0.180  10.056  20.491  0.00  0.00    +0.000 A 
ATOM     14  C   UNL     1      -1.142  10.753  19.754  0.00  0.00    +0.000 A 
ATOM     15  C   UNL     1      -1.100  10.736  18.363  0.00  0.00    +0.000 A 
ATOM     16  C   UNL     1      -0.089  10.032  17.711  0.00  0.00    +0.000 A 
ATOM     17  C   UNL     1       0.873   9.330  18.448  0.00  0.00    +0.000 A 
ENDBRANCH  10  12
ENDBRANCH   8  10
BRANCH   1  18
ATOM     18  S   UNL     1       4.374   3.283  18.350  0.00  0.00    +0.000 S 
BRANCH  18  24
ATOM     19  C   UNL     1       6.719   4.449  17.210  0.00  0.00    +0.000 A 
ATOM     20  C   UNL     1       7.425   4.867  16.073  0.00  0.00    +0.000 A 
ATOM     21  C   UNL     1       6.786   4.997  14.841  0.00  0.00    +0.000 A 
ATOM     22  C   UNL     1       5.429   4.724  14.738  0.00  0.00    +0.000 A 
ATOM     23  C   UNL     1       4.739   4.228  15.844  0.00  0.00    +0.000 A 
ATOM     24  C   UNL     1       5.388   4.020  17.076  0.00  0.00    +0.000 A 
BRANCH  19  26
ATOM     25  C   UNL     1       7.285   5.693  19.138  0.00  0.00    +0.000 C 
ATOM     26  O   UNL     1       7.287   4.439  18.460  0.00  0.00    +0.000 OA
ENDBRANCH  19  26
ENDBRANCH  18  24
ENDBRANCH   1  18
TORSDOF 5
ENDMDL
MODEL 7
REMARK VINA RESULT:      -7.2      6.018      8.515
REMARK  Name = 
REMARK  7 active torsions:
REMARK  status: ('A' for Active; 'I' for Inactive)
REMARK    1  A    between atoms: C_1  and  O_2
REMARK    2  A    between atoms: O_2  and  C_3
REMARK    3  A    between atoms: C_8  and  S_9
REMARK    4  A    between atoms: S_9  and  C_10
REMARK    5  A    between atoms: N_17  and  C_18
REMARK    6  A    between atoms: C_18  and  C_19
REMARK    7  A    between atoms: C_18  and  C_20
REMARK                            x       y       z     vdW  Elec       q    Type
REMARK                         _______ _______ _______ _____ _____    ______ ____
ROOT
ATOM      1  C   UNL     1       4.425   4.992  17.409  0.00  0.00    +0.000 C 
ATOM      2  C   UNL     1       3.820   6.415  17.241  0.00  0.00    +0.000 C 
ATOM      3  C   UNL     1       4.902   6.608  16.176  0.00  0.00    +0.000 C 
ATOM      4  O   UNL     1       5.223   7.493  15.418  0.00  0.00    +0.000 OA
ATOM      5  N   UNL     1       5.483   5.413  16.472  0.00  0.00    +0.000 N 
ATOM      6  C   UNL     1       6.122   4.583  15.565  0.00  0.00    +0.000 C 
ATOM      7  O   UNL     1       6.272   3.378  15.757  0.00  0.00    +0.000 OA
ATOM      8  N   UNL     1       6.493   5.189  14.382  0.00  0.00    +0.000 N 
ATOM      9  H   UNL     1       6.447   6.203  14.351  0.00  0.00    +0.000 HD
ENDROOT
BRANCH   8  10
ATOM     10  C   UNL     1       7.258   4.492  13.357  0.00  0.00    +0.000 C 
ATOM     11  C   UNL     1       8.058   5.498  12.526  0.00  0.00    +0.000 C 
BRANCH  10  12
ATOM     12  C   UNL     1       6.416   3.633  12.419  0.00  0.00    +0.000 A 
ATOM     13  C   UNL     1       5.064   3.970  12.215  0.00  0.00    +0.000 A 
ATOM     14  C   UNL     1       4.214   3.142  11.475  0.00  0.00    +0.000 A 
ATOM     15  C   UNL     1       4.704   1.962  10.921  0.00  0.00    +0.000 A 
ATOM     16  C   UNL     1       6.043   1.619  11.098  0.00  0.00    +0.000 A 
ATOM     17  C   UNL     1       6.893   2.446  11.843  0.00  0.00    +0.000 A 
ENDBRANCH  10  12
ENDBRANCH   8  10
BRANCH   1  18
ATOM     18  S   UNL     1       4.929   4.793  19.151  0.00  0.00    +0.000 S 
BRANCH  18  24
ATOM     19  C   UNL     1       3.418   2.648  20.278  0.00  0.00    +0.000 A 
ATOM     20  C   UNL     1       2.298   2.214  21.003  0.00  0.00    +0.000 A 
ATOM     21  C   UNL     1       1.223   3.068  21.239  0.00  0.00    +0.000 A 
ATOM     22  C   UNL     1       1.250   4.363  20.739  0.00  0.00    +0.000 A 
ATOM     23  C   UNL     1       2.395   4.827  20.090  0.00  0.00    +0.000 A 
ATOM     24  C   UNL     1       3.519   3.999  19.910  0.00  0.00    +0.000 A 
BRANCH  19  26
ATOM     25  C   UNL     1       5.219   1.296  20.994  0.00  0.00    +0.000 C 
ATOM     26  O   UNL     1       4.429   1.793  19.917  0.00  0.00    +0.000 OA
ENDBRANCH  19  26
ENDBRANCH  18  24
ENDBRANCH   1  18
TORSDOF 5
ENDMDL
MODEL 8
REMARK VINA RESULT:      -7.2      5.977      8.507
REMARK  Name = 
REMARK  7 active torsions:
REMARK  status: ('A' for Active; 'I' for Inactive)
REMARK    1  A    between atoms: C_1  and  O_2
REMARK    2  A    between atoms: O_2  and  C_3
REMARK    3  A    between atoms: C_8  and  S_9
REMARK    4  A    between atoms: S_9  and  C_10
REMARK    5  A    between atoms: N_17  and  C_18
REMARK    6  A    between atoms: C_18  and  C_19
REMARK    7  A    between atoms: C_18  and  C_20
REMARK                            x       y       z     vdW  Elec       q    Type
REMARK                         _______ _______ _______ _____ _____    ______ ____
ROOT
ATOM      1  C   UNL     1       4.514   5.054  17.489  0.00  0.00    +0.000 C 
ATOM      2  C   UNL     1       4.121   6.558  17.461  0.00  0.00    +0.000 C 
ATOM      3  C   UNL     1       5.219   6.692  16.403  0.00  0.00    +0.000 C 
ATOM      4  O   UNL     1       5.665   7.588  15.725  0.00  0.00    +0.000 OA
ATOM      5  N   UNL     1       5.622   5.403  16.579  0.00  0.00    +0.000 N 
ATOM      6  C   UNL     1       6.134   4.578  15.592  0.00  0.00    +0.000 C 
ATOM      7  O   UNL     1       6.109   3.352  15.670  0.00  0.00    +0.000 OA
ATOM      8  N   UNL     1       6.587   5.232  14.464  0.00  0.00    +0.000 N 
ATOM      9  H   UNL     1       6.689   6.240  14.527  0.00  0.00    +0.000 HD
ENDROOT
BRANCH   8  10
ATOM     10  C   UNL     1       7.244   4.530  13.369  0.00  0.00    +0.000 C 
ATOM     11  C   UNL     1       7.899   5.537  12.420  0.00  0.00    +0.000 C 
BRANCH  10  12
ATOM     12  C   UNL     1       6.322   3.618  12.565  0.00  0.00    +0.000 A 
ATOM     13  C   UNL     1       6.859   2.464  11.964  0.00  0.00    +0.000 A 
ATOM     14  C   UNL     1       6.091   1.669  11.108  0.00  0.00    +0.000 A 
ATOM     15  C   UNL     1       4.769   2.012  10.840  0.00  0.00    +0.000 A 
ATOM     16  C   UNL     1       4.214   3.143  11.437  0.00  0.00    +0.000 A 
ATOM     17  C   UNL     1       4.984   3.942  12.292  0.00  0.00    +0.000 A 
ENDBRANCH  10  12
ENDBRANCH   8  10
BRANCH   1  18
ATOM     18  S   UNL     1       4.985   4.623  19.198  0.00  0.00    +0.000 S 
BRANCH  18  24
ATOM     19  C   UNL     1       3.156   2.601  20.047  0.00  0.00    +0.000 A 
ATOM     20  C   UNL     1       1.998   2.244  20.753  0.00  0.00    +0.000 A 
ATOM     21  C   UNL     1       1.093   3.214  21.182  0.00  0.00    +0.000 A 
ATOM     22  C   UNL     1       1.331   4.552  20.896  0.00  0.00    +0.000 A 
ATOM     23  C   UNL     1       2.521   4.921  20.268  0.00  0.00    +0.000 A 
ATOM     24  C   UNL     1       3.480   3.959  19.896  0.00  0.00    +0.000 A 
BRANCH  19  26
ATOM     25  C   UNL     1       3.704   1.303  18.150  0.00  0.00    +0.000 C 
ATOM     26  O   UNL     1       3.994   1.663  19.498  0.00  0.00    +0.000 OA
ENDBRANCH  19  26
ENDBRANCH  18  24
ENDBRANCH   1  18
TORSDOF 5
ENDMDL
MODEL 9
REMARK VINA RESULT:      -7.1      1.077      2.045
REMARK  Name = 
REMARK  7 active torsions:
REMARK  status: ('A' for Active; 'I' for Inactive)
REMARK    1  A    between atoms: C_1  and  O_2
REMARK    2  A    between atoms: O_2  and  C_3
REMARK    3  A    between atoms: C_8  and  S_9
REMARK    4  A    between atoms: S_9  and  C_10
REMARK    5  A    between atoms: N_17  and  C_18
REMARK    6  A    between atoms: C_18  and  C_19
REMARK    7  A    between atoms: C_18  and  C_20
REMARK                            x       y       z     vdW  Elec       q    Type
REMARK                         _______ _______ _______ _____ _____    ______ ____
ROOT
ATOM      1  C   UNL     1       0.189  10.145  19.855  0.00  0.00    +0.000 C 
ATOM      2  C   UNL     1       0.113  10.507  18.345  0.00  0.00    +0.000 C 
ATOM      3  C   UNL     1       1.270   9.519  18.182  0.00  0.00    +0.000 C 
ATOM      4  O   UNL     1       1.924   9.096  17.257  0.00  0.00    +0.000 OA
ATOM      5  N   UNL     1       1.392   9.356  19.528  0.00  0.00    +0.000 N 
ATOM      6  C   UNL     1       1.778   8.188  20.165  0.00  0.00    +0.000 C 
ATOM      7  O   UNL     1       1.499   7.947  21.337  0.00  0.00    +0.000 OA
ATOM      8  N   UNL     1       2.414   7.267  19.358  0.00  0.00    +0.000 N 
ATOM      9  H   UNL     1       2.715   7.589  18.443  0.00  0.00    +0.000 HD
ENDROOT
BRANCH   8  10
ATOM     10  C   UNL     1       2.972   6.027  19.881  0.00  0.00    +0.000 C 
ATOM     11  C   UNL     1       4.356   5.779  19.276  0.00  0.00    +0.000 C 
BRANCH  10  12
ATOM     12  C   UNL     1       2.100   4.798  19.646  0.00  0.00    +0.000 A 
ATOM     13  C   UNL     1       1.606   4.089  20.757  0.00  0.00    +0.000 A 
ATOM     14  C   UNL     1       0.916   2.883  20.599  0.00  0.00    +0.000 A 
ATOM     15  C   UNL     1       0.706   2.364  19.325  0.00  0.00    +0.000 A 
ATOM     16  C   UNL     1       1.175   3.058  18.210  0.00  0.00    +0.000 A 
ATOM     17  C   UNL     1       1.868   4.265  18.368  0.00  0.00    +0.000 A 
ENDBRANCH  10  12
ENDBRANCH   8  10
BRANCH   1  18
ATOM     18  S   UNL     1       0.470  11.684  20.793  0.00  0.00    +0.000 S 
BRANCH  18  24
ATOM     19  C   UNL     1      -2.296  12.391  20.721  0.00  0.00    +0.000 A 
ATOM     20  C   UNL     1      -3.523  12.524  21.387  0.00  0.00    +0.000 A 
ATOM     21  C   UNL     1      -3.589  12.487  22.779  0.00  0.00    +0.000 A 
ATOM     22  C   UNL     1      -2.425  12.331  23.520  0.00  0.00    +0.000 A 
ATOM     23  C   UNL     1      -1.214  12.115  22.863  0.00  0.00    +0.000 A 
ATOM     24  C   UNL     1      -1.143  12.074  21.457  0.00  0.00    +0.000 A 
BRANCH  19  26
ATOM     25  C   UNL     1      -3.176  11.897  18.584  0.00  0.00    +0.000 C 
ATOM     26  O   UNL     1      -2.181  12.556  19.363  0.00  0.00    +0.000 OA
ENDBRANCH  19  26
ENDBRANCH  18  24
ENDBRANCH   1  18
TORSDOF 5
ENDMDL
