MODEL 1
REMARK VINA RESULT:      -6.4      0.000      0.000
REMARK  Name = 
REMARK  5 active torsions:
REMARK  status: ('A' for Active; 'I' for Inactive)
REMARK    1  A    between atoms: C_1  and  O_2
REMARK    2  A    between atoms: O_2  and  C_3
REMARK    3  A    between atoms: C_15  and  O_16
REMARK    4  A    between atoms: N_19  and  C_20
REMARK    5  A    between atoms: C_20  and  C_21
REMARK                            x       y       z     vdW  Elec       q    Type
REMARK                         _______ _______ _______ _____ _____    ______ ____
ROOT
ATOM      1  C   UNL     1       2.214   3.275  19.239  0.00  0.00    +0.000 A 
ATOM      2  C   UNL     1       2.532   2.117  18.470  0.00  0.00    +0.000 A 
ATOM      3  C   UNL     1       3.560   2.155  17.497  0.00  0.00    +0.000 A 
ATOM      4  C   UNL     1       4.007   3.408  17.152  0.00  0.00    +0.000 A 
ATOM      5  C   UNL     1       3.258   4.452  17.569  0.00  0.00    +0.000 A 
ATOM      6  C   UNL     1       2.759   4.462  18.801  0.00  0.00    +0.000 A 
ATOM      7  O   UNL     1       3.354   5.570  19.418  0.00  0.00    +0.000 OA
ATOM      8  C   UNL     1       4.617   6.179  18.503  0.00  0.00    +0.000 C 
ATOM      9  C   UNL     1       5.418   6.265  16.551  0.00  0.00    +0.000 C 
ATOM     10  O   UNL     1       4.929   6.699  15.484  0.00  0.00    +0.000 OA
ATOM     11  C   UNL     1       7.167   5.471  16.195  0.00  0.00    +0.000 C 
ATOM     12  C   UNL     1       7.450   4.371  17.659  0.00  0.00    +0.000 C 
ATOM     13  C   UNL     1       5.663   4.610  18.466  0.00  0.00    +0.000 C 
ATOM     14  C   UNL     1       6.528   5.629  18.056  0.00  0.00    +0.000 C 
ATOM     15  C   UNL     1       5.598   4.045  16.965  0.00  0.00    +0.000 C 
ATOM     16  N   UNL     1       6.370   7.477  18.039  0.00  0.00    +0.000 NA
ATOM     17  C   UNL     1       4.910   8.257  17.598  0.00  0.00    +0.000 C 
ATOM     18  C   UNL     1       3.533   7.195  17.372  0.00  0.00    +0.000 C 
ATOM     19  C   UNL     1       4.149   5.523  17.454  0.00  0.00    +0.000 C 
ENDROOT
BRANCH   1  21
ATOM     20  C   UNL     1       2.174   2.944  21.566  0.00  0.00    +0.000 C 
ATOM     21  O   UNL     1       1.457   3.042  20.343  0.00  0.00    +0.000 OA
ENDBRANCH   1  21
BRANCH  13  22
ATOM     22  O   UNL     1       5.655   4.396  19.866  0.00  0.00    +0.000 OA
ATOM     23  H   UNL     1       5.364   5.198  20.342  0.00  0.00    +0.000 HD
ENDBRANCH  13  22
BRANCH  16  24
ATOM     24  C   UNL     1       7.429   8.157  17.222  0.00  0.00    +0.000 C 
BRANCH  24  25
ATOM     25  C   UNL     1       8.645   8.658  17.960  0.00  0.00    +0.000 C 
ATOM     26  C   UNL     1       8.977  10.134  17.842  0.00  0.00    +0.000 C 
ATOM     27  C   UNL     1       8.542   9.586  19.164  0.00  0.00    +0.000 C 
ENDBRANCH  24  25
ENDBRANCH  16  24
TORSDOF 4
ENDMDL
MODEL 2
REMARK VINA RESULT:      -6.3      1.414      1.827
REMARK  Name = 
REMARK  5 active torsions:
REMARK  status: ('A' for Active; 'I' for Inactive)
REMARK    1  A    between atoms: C_1  and  O_2
REMARK    2  A    between atoms: O_2  and  C_3
REMARK    3  A    between atoms: C_15  and  O_16
REMARK    4  A    between atoms: N_19  and  C_20
REMARK    5  A    between atoms: C_20  and  C_21
REMARK                            x       y       z     vdW  Elec       q    Type
REMARK                         _______ _______ _______ _____ _____    ______ ____
ROOT
ATOM      1  C   UNL     1       2.208   2.915  18.105  0.00  0.00    +0.000 A 
ATOM      2  C   UNL     1       2.861   1.851  18.793  0.00  0.00    +0.000 A 
ATOM      3  C   UNL     1       4.257   1.891  19.028  0.00  0.00    +0.000 A 
ATOM      4  C   UNL     1       4.953   2.840  18.318  0.00  0.00    +0.000 A 
ATOM      5  C   UNL     1       4.292   3.440  17.303  0.00  0.00    +0.000 A 
ATOM      6  C   UNL     1       3.028   3.817  17.464  0.00  0.00    +0.000 A 
ATOM      7  O   UNL     1       3.051   5.210  17.318  0.00  0.00    +0.000 OA
ATOM      8  C   UNL     1       4.616   5.805  17.332  0.00  0.00    +0.000 C 
ATOM      9  C   UNL     1       6.637   5.284  17.013  0.00  0.00    +0.000 C 
ATOM     10  O   UNL     1       7.216   4.832  16.000  0.00  0.00    +0.000 OA
ATOM     11  C   UNL     1       7.899   5.379  18.502  0.00  0.00    +0.000 C 
ATOM     12  C   UNL     1       6.803   5.448  19.995  0.00  0.00    +0.000 C 
ATOM     13  C   UNL     1       5.100   5.159  19.036  0.00  0.00    +0.000 C 
ATOM     14  C   UNL     1       6.077   6.108  18.719  0.00  0.00    +0.000 C 
ATOM     15  C   UNL     1       6.159   3.975  18.798  0.00  0.00    +0.000 C 
ATOM     16  N   UNL     1       6.216   7.357  17.355  0.00  0.00    +0.000 NA
ATOM     17  C   UNL     1       5.751   6.997  15.747  0.00  0.00    +0.000 C 
ATOM     18  C   UNL     1       4.947   5.454  15.528  0.00  0.00    +0.000 C 
ATOM     19  C   UNL     1       5.062   4.585  17.082  0.00  0.00    +0.000 C 
ENDROOT
BRANCH   1  21
ATOM     20  C   UNL     1       0.355   2.880  19.551  0.00  0.00    +0.000 C 
ATOM     21  O   UNL     1       0.854   2.929  18.222  0.00  0.00    +0.000 OA
ENDBRANCH   1  21
BRANCH  13  22
ATOM     22  O   UNL     1       3.982   5.695  19.719  0.00  0.00    +0.000 OA
ATOM     23  H   UNL     1       4.189   6.571  20.098  0.00  0.00    +0.000 HD
ENDBRANCH  13  22
BRANCH  16  24
ATOM     24  C   UNL     1       7.588   7.954  17.232  0.00  0.00    +0.000 C 
BRANCH  24  25
ATOM     25  C   UNL     1       7.835   9.252  17.958  0.00  0.00    +0.000 C 
ATOM     26  C   UNL     1       8.966   9.285  18.970  0.00  0.00    +0.000 C 
ATOM     27  C   UNL     1       9.082  10.095  17.717  0.00  0.00    +0.000 C 
ENDBRANCH  24  25
ENDBRANCH  16  24
TORSDOF 4
ENDMDL
MODEL 3
REMARK VINA RESULT:      -6.1      7.973     10.095
REMARK  Name = 
REMARK  5 active torsions:
REMARK  status: ('A' for Active; 'I' for Inactive)
REMARK    1  A    between atoms: C_1  and  O_2
REMARK    2  A    between atoms: O_2  and  C_3
REMARK    3  A    between atoms: C_15  and  O_16
REMARK    4  A    between atoms: N_19  and  C_20
REMARK    5  A    between atoms: C_20  and  C_21
REMARK                            x       y       z     vdW  Elec       q    Type
REMARK                         _______ _______ _______ _____ _____    ______ ____
ROOT
ATOM      1  C   UNL     1       0.960  10.174  18.815  0.00  0.00    +0.000 A 
ATOM      2  C   UNL     1       0.107   9.859  19.913  0.00  0.00    +0.000 A 
ATOM      3  C   UNL     1      -0.343  10.873  20.793  0.00  0.00    +0.000 A 
ATOM      4  C   UNL     1       0.311  12.078  20.696  0.00  0.00    +0.000 A 
ATOM      5  C   UNL     1       1.455  12.089  19.978  0.00  0.00    +0.000 A 
ATOM      6  C   UNL     1       1.522  11.432  18.825  0.00  0.00    +0.000 A 
ATOM      7  O   UNL     1       1.756  12.423  17.863  0.00  0.00    +0.000 OA
ATOM      8  C   UNL     1       1.534  13.958  18.495  0.00  0.00    +0.000 C 
ATOM      9  C   UNL     1       1.493  15.070  20.290  0.00  0.00    +0.000 C 
ATOM     10  O   UNL     1       2.369  15.241  21.167  0.00  0.00    +0.000 OA
ATOM     11  C   UNL     1      -0.167  15.939  20.843  0.00  0.00    +0.000 C 
ATOM     12  C   UNL     1      -1.460  15.099  19.814  0.00  0.00    +0.000 C 
ATOM     13  C   UNL     1      -0.265  13.742  19.019  0.00  0.00    +0.000 C 
ATOM     14  C   UNL     1      -0.044  15.123  19.050  0.00  0.00    +0.000 C 
ATOM     15  C   UNL     1      -0.278  13.698  20.623  0.00  0.00    +0.000 C 
ATOM     16  N   UNL     1       1.362  16.181  18.463  0.00  0.00    +0.000 NA
ATOM     17  C   UNL     1       2.996  15.707  18.660  0.00  0.00    +0.000 C 
ATOM     18  C   UNL     1       3.236  14.075  19.256  0.00  0.00    +0.000 C 
ATOM     19  C   UNL     1       1.628  13.450  19.713  0.00  0.00    +0.000 C 
ENDROOT
BRANCH   1  21
ATOM     20  C   UNL     1       2.266   8.455  17.885  0.00  0.00    +0.000 C 
ATOM     21  O   UNL     1       1.060   9.205  17.867  0.00  0.00    +0.000 OA
ENDBRANCH   1  21
BRANCH  13  22
ATOM     22  O   UNL     1      -0.725  13.265  17.768  0.00  0.00    +0.000 OA
ATOM     23  H   UNL     1      -0.939  12.313  17.812  0.00  0.00    +0.000 HD
ENDBRANCH  13  22
BRANCH  16  24
ATOM     24  C   UNL     1       1.306  17.587  18.984  0.00  0.00    +0.000 C 
BRANCH  24  25
ATOM     25  C   UNL     1       0.713  18.631  18.072  0.00  0.00    +0.000 C 
ATOM     26  C   UNL     1       0.707  18.337  16.583  0.00  0.00    +0.000 C 
ATOM     27  C   UNL     1      -0.594  18.407  17.319  0.00  0.00    +0.000 C 
ENDBRANCH  24  25
ENDBRANCH  16  24
TORSDOF 4
ENDMDL
MODEL 4
REMARK VINA RESULT:      -6.1      8.013     11.064
REMARK  Name = 
REMARK  5 active torsions:
REMARK  status: ('A' for Active; 'I' for Inactive)
REMARK    1  A    between atoms: C_1  and  O_2
REMARK    2  A    between atoms: O_2  and  C_3
REMARK    3  A    between atoms: C_15  and  O_16
REMARK    4  A    between atoms: N_19  and  C_20
REMARK    5  A    between atoms: C_20  and  C_21
REMARK                            x       y       z     vdW  Elec       q    Type
REMARK                         _______ _______ _______ _____ _____    ______ ____
ROOT
ATOM      1  C   UNL     1       3.240  16.832  19.721  0.00  0.00    +0.000 A 
ATOM      2  C   UNL     1       2.214  17.784  19.995  0.00  0.00    +0.000 A 
ATOM      3  C   UNL     1       0.874  17.366  20.192  0.00  0.00    +0.000 A 
ATOM      4  C   UNL     1       0.594  16.072  19.823  0.00  0.00    +0.000 A 
ATOM      5  C   UNL     1       1.532  15.437  19.087  0.00  0.00    +0.000 A 
ATOM      6  C   UNL     1       2.818  15.561  19.398  0.00  0.00    +0.000 A 
ATOM      7  O   UNL     1       3.231  14.264  19.728  0.00  0.00    +0.000 OA
ATOM      8  C   UNL     1       1.927  13.227  19.899  0.00  0.00    +0.000 C 
ATOM      9  C   UNL     1      -0.097  12.937  19.370  0.00  0.00    +0.000 C 
ATOM     10  O   UNL     1      -0.644  12.839  18.249  0.00  0.00    +0.000 OA
ATOM     11  C   UNL     1      -1.459  12.903  20.769  0.00  0.00    +0.000 C 
ATOM     12  C   UNL     1      -0.602  13.659  22.228  0.00  0.00    +0.000 C 
ATOM     13  C   UNL     1       1.050  14.174  21.274  0.00  0.00    +0.000 C 
ATOM     14  C   UNL     1       0.451  12.910  21.268  0.00  0.00    +0.000 C 
ATOM     15  C   UNL     1      -0.272  14.814  20.624  0.00  0.00    +0.000 C 
ATOM     16  N   UNL     1       0.873  11.327  20.398  0.00  0.00    +0.000 NA
ATOM     17  C   UNL     1       1.420  11.303  18.776  0.00  0.00    +0.000 C 
ATOM     18  C   UNL     1       1.750  12.875  18.073  0.00  0.00    +0.000 C 
ATOM     19  C   UNL     1       1.175  14.095  19.242  0.00  0.00    +0.000 C 
ENDROOT
BRANCH   1  21
ATOM     20  C   UNL     1       5.415  16.944  18.838  0.00  0.00    +0.000 C 
ATOM     21  O   UNL     1       4.508  17.295  19.873  0.00  0.00    +0.000 OA
ENDBRANCH   1  21
BRANCH  13  22
ATOM     22  O   UNL     1       2.175  14.270  22.127  0.00  0.00    +0.000 OA
ATOM     23  H   UNL     1       2.988  14.454  21.617  0.00  0.00    +0.000 HD
ENDBRANCH  13  22
BRANCH  16  24
ATOM     24  C   UNL     1      -0.229  10.310  20.447  0.00  0.00    +0.000 C 
BRANCH  24  25
ATOM     25  C   UNL     1      -0.111   9.222  21.484  0.00  0.00    +0.000 C 
ATOM     26  C   UNL     1       1.116   9.238  22.378  0.00  0.00    +0.000 C 
ATOM     27  C   UNL     1      -0.230   9.504  22.977  0.00  0.00    +0.000 C 
ENDBRANCH  24  25
ENDBRANCH  16  24
TORSDOF 4
ENDMDL
MODEL 5
REMARK VINA RESULT:      -6.0     12.711     14.361
REMARK  Name = 
REMARK  5 active torsions:
REMARK  status: ('A' for Active; 'I' for Inactive)
REMARK    1  A    between atoms: C_1  and  O_2
REMARK    2  A    between atoms: O_2  and  C_3
REMARK    3  A    between atoms: C_15  and  O_16
REMARK    4  A    between atoms: N_19  and  C_20
REMARK    5  A    between atoms: C_20  and  C_21
REMARK                            x       y       z     vdW  Elec       q    Type
REMARK                         _______ _______ _______ _____ _____    ______ ____
ROOT
ATOM      1  C   UNL     1      -7.207  10.727  20.489  0.00  0.00    +0.000 A 
ATOM      2  C   UNL     1      -6.729  10.916  19.159  0.00  0.00    +0.000 A 
ATOM      3  C   UNL     1      -6.090  12.125  18.786  0.00  0.00    +0.000 A 
ATOM      4  C   UNL     1      -6.224  13.167  19.671  0.00  0.00    +0.000 A 
ATOM      5  C   UNL     1      -7.144  13.014  20.649  0.00  0.00    +0.000 A 
ATOM      6  C   UNL     1      -7.255  11.851  21.282  0.00  0.00    +0.000 A 
ATOM      7  O   UNL     1      -6.940  12.141  22.616  0.00  0.00    +0.000 OA
ATOM      8  C   UNL     1      -6.274  13.670  22.773  0.00  0.00    +0.000 C 
ATOM      9  C   UNL     1      -6.126  15.564  21.852  0.00  0.00    +0.000 C 
ATOM     10  O   UNL     1      -7.010  16.389  21.531  0.00  0.00    +0.000 OA
ATOM     11  C   UNL     1      -4.381  16.208  21.256  0.00  0.00    +0.000 C 
ATOM     12  C   UNL     1      -3.338  14.675  21.232  0.00  0.00    +0.000 C 
ATOM     13  C   UNL     1      -4.799  13.406  21.628  0.00  0.00    +0.000 C 
ATOM     14  C   UNL     1      -4.495  14.566  22.347  0.00  0.00    +0.000 C 
ATOM     15  C   UNL     1      -5.074  14.281  20.311  0.00  0.00    +0.000 C 
ATOM     16  N   UNL     1      -5.288  15.376  23.815  0.00  0.00    +0.000 NA
ATOM     17  C   UNL     1      -6.989  15.467  23.990  0.00  0.00    +0.000 C 
ATOM     18  C   UNL     1      -7.913  14.565  22.803  0.00  0.00    +0.000 C 
ATOM     19  C   UNL     1      -6.753  13.981  21.580  0.00  0.00    +0.000 C 
ENDROOT
BRANCH   1  21
ATOM     20  C   UNL     1      -7.133   8.466  19.850  0.00  0.00    +0.000 C 
ATOM     21  O   UNL     1      -7.498   9.440  20.816  0.00  0.00    +0.000 OA
ENDBRANCH   1  21
BRANCH  13  22
ATOM     22  O   UNL     1      -4.346  12.215  22.245  0.00  0.00    +0.000 OA
ATOM     23  H   UNL     1      -4.805  12.063  23.094  0.00  0.00    +0.000 HD
ENDBRANCH  13  22
BRANCH  16  24
ATOM     24  C   UNL     1      -4.802  16.776  24.056  0.00  0.00    +0.000 C 
BRANCH  24  25
ATOM     25  C   UNL     1      -3.736  16.958  25.107  0.00  0.00    +0.000 C 
ATOM     26  C   UNL     1      -2.709  15.852  25.260  0.00  0.00    +0.000 C 
ATOM     27  C   UNL     1      -2.273  17.190  24.751  0.00  0.00    +0.000 C 
ENDBRANCH  24  25
ENDBRANCH  16  24
TORSDOF 4
ENDMDL
MODEL 6
REMARK VINA RESULT:      -5.9     12.235     14.226
REMARK  Name = 
REMARK  5 active torsions:
REMARK  status: ('A' for Active; 'I' for Inactive)
REMARK    1  A    between atoms: C_1  and  O_2
REMARK    2  A    between atoms: O_2  and  C_3
REMARK    3  A    between atoms: C_15  and  O_16
REMARK    4  A    between atoms: N_19  and  C_20
REMARK    5  A    between atoms: C_20  and  C_21
REMARK                            x       y       z     vdW  Elec       q    Type
REMARK                         _______ _______ _______ _____ _____    ______ ____
ROOT
ATOM      1  C   UNL     1      -5.221  11.983  18.338  0.00  0.00    +0.000 A 
ATOM      2  C   UNL     1      -6.632  11.777  18.325  0.00  0.00    +0.000 A 
ATOM      3  C   UNL     1      -7.426  12.142  19.440  0.00  0.00    +0.000 A 
ATOM      4  C   UNL     1      -6.737  12.419  20.596  0.00  0.00    +0.000 A 
ATOM      5  C   UNL     1      -5.433  12.068  20.621  0.00  0.00    +0.000 A 
ATOM      6  C   UNL     1      -4.664  12.290  19.560  0.00  0.00    +0.000 A 
ATOM      7  O   UNL     1      -3.688  13.189  20.009  0.00  0.00    +0.000 OA
ATOM      8  C   UNL     1      -4.077  13.820  21.511  0.00  0.00    +0.000 C 
ATOM      9  C   UNL     1      -5.217  13.481  23.256  0.00  0.00    +0.000 C 
ATOM     10  O   UNL     1      -5.201  12.533  24.073  0.00  0.00    +0.000 OA
ATOM     11  C   UNL     1      -6.643  14.729  23.728  0.00  0.00    +0.000 C 
ATOM     12  C   UNL     1      -6.935  15.669  22.157  0.00  0.00    +0.000 C 
ATOM     13  C   UNL     1      -5.728  14.590  21.025  0.00  0.00    +0.000 C 
ATOM     14  C   UNL     1      -5.407  15.173  22.255  0.00  0.00    +0.000 C 
ATOM     15  C   UNL     1      -6.873  13.712  21.729  0.00  0.00    +0.000 C 
ATOM     16  N   UNL     1      -3.868  15.146  23.292  0.00  0.00    +0.000 NA
ATOM     17  C   UNL     1      -2.934  13.724  23.487  0.00  0.00    +0.000 C 
ATOM     18  C   UNL     1      -3.411  12.369  22.481  0.00  0.00    +0.000 C 
ATOM     19  C   UNL     1      -4.939  12.831  21.683  0.00  0.00    +0.000 C 
ENDROOT
BRANCH   1  21
ATOM     20  C   UNL     1      -3.413  11.154  17.085  0.00  0.00    +0.000 C 
ATOM     21  O   UNL     1      -4.618  11.906  17.123  0.00  0.00    +0.000 OA
ENDBRANCH   1  21
BRANCH  13  22
ATOM     22  O   UNL     1      -5.233  15.304  19.907  0.00  0.00    +0.000 OA
ATOM     23  H   UNL     1      -5.696  15.040  19.089  0.00  0.00    +0.000 HD
ENDBRANCH  13  22
BRANCH  16  24
ATOM     24  C   UNL     1      -4.082  15.659  24.685  0.00  0.00    +0.000 C 
BRANCH  24  25
ATOM     25  C   UNL     1      -3.764  17.112  24.934  0.00  0.00    +0.000 C 
ATOM     26  C   UNL     1      -4.345  18.131  23.971  0.00  0.00    +0.000 C 
ATOM     27  C   UNL     1      -4.821  18.111  25.390  0.00  0.00    +0.000 C 
ENDBRANCH  24  25
ENDBRANCH  16  24
TORSDOF 4
ENDMDL
MODEL 7
REMARK VINA RESULT:      -5.8      7.504      9.508
REMARK  Name = 
REMARK  5 active torsions:
REMARK  status: ('A' for Active; 'I' for Inactive)
REMARK    1  A    between atoms: C_1  and  O_2
REMARK    2  A    between atoms: O_2  and  C_3
REMARK    3  A    between atoms: C_15  and  O_16
REMARK    4  A    between atoms: N_19  and  C_20
REMARK    5  A    between atoms: C_20  and  C_21
REMARK                            x       y       z     vdW  Elec       q    Type
REMARK                         _______ _______ _______ _____ _____    ______ ____
ROOT
ATOM      1  C   UNL     1      -3.145  10.223  17.241  0.00  0.00    +0.000 A 
ATOM      2  C   UNL     1      -4.289  10.961  17.665  0.00  0.00    +0.000 A 
ATOM      3  C   UNL     1      -4.181  11.940  18.683  0.00  0.00    +0.000 A 
ATOM      4  C   UNL     1      -3.013  11.920  19.407  0.00  0.00    +0.000 A 
ATOM      5  C   UNL     1      -2.225  10.833  19.252  0.00  0.00    +0.000 A 
ATOM      6  C   UNL     1      -2.028  10.321  18.041  0.00  0.00    +0.000 A 
ATOM      7  O   UNL     1      -0.653  10.459  17.816  0.00  0.00    +0.000 OA
ATOM      8  C   UNL     1       0.063  11.450  18.960  0.00  0.00    +0.000 C 
ATOM      9  C   UNL     1      -0.156  12.233  20.909  0.00  0.00    +0.000 C 
ATOM     10  O   UNL     1      -0.258  11.658  22.016  0.00  0.00    +0.000 OA
ATOM     11  C   UNL     1      -0.352  14.162  21.153  0.00  0.00    +0.000 C 
ATOM     12  C   UNL     1      -0.796  14.770  19.459  0.00  0.00    +0.000 C 
ATOM     13  C   UNL     1      -0.974  12.989  18.623  0.00  0.00    +0.000 C 
ATOM     14  C   UNL     1       0.114  13.445  19.373  0.00  0.00    +0.000 C 
ATOM     15  C   UNL     1      -1.942  13.182  19.889  0.00  0.00    +0.000 C 
ATOM     16  N   UNL     1       1.695  12.636  19.909  0.00  0.00    +0.000 NA
ATOM     17  C   UNL     1       1.744  11.011  20.443  0.00  0.00    +0.000 C 
ATOM     18  C   UNL     1       0.250  10.113  20.250  0.00  0.00    +0.000 C 
ATOM     19  C   UNL     1      -0.995  11.285  19.738  0.00  0.00    +0.000 C 
ENDROOT
BRANCH   1  21
ATOM     20  C   UNL     1      -2.967  10.310  14.898  0.00  0.00    +0.000 C 
ATOM     21  O   UNL     1      -3.292   9.563  16.062  0.00  0.00    +0.000 OA
ENDBRANCH   1  21
BRANCH  13  22
ATOM     22  O   UNL     1      -0.754  13.010  17.224  0.00  0.00    +0.000 OA
ATOM     23  H   UNL     1      -1.531  13.364  16.751  0.00  0.00    +0.000 HD
ENDBRANCH  13  22
BRANCH  16  24
ATOM     24  C   UNL     1       2.430  13.409  20.964  0.00  0.00    +0.000 C 
BRANCH  24  25
ATOM     25  C   UNL     1       3.487  14.376  20.492  0.00  0.00    +0.000 C 
ATOM     26  C   UNL     1       3.479  14.758  19.023  0.00  0.00    +0.000 C 
ATOM     27  C   UNL     1       3.152  15.796  20.051  0.00  0.00    +0.000 C 
ENDBRANCH  24  25
ENDBRANCH  16  24
TORSDOF 4
ENDMDL
MODEL 8
REMARK VINA RESULT:      -5.7      8.415     10.542
REMARK  Name = 
REMARK  5 active torsions:
REMARK  status: ('A' for Active; 'I' for Inactive)
REMARK    1  A    between atoms: C_1  and  O_2
REMARK    2  A    between atoms: O_2  and  C_3
REMARK    3  A    between atoms: C_15  and  O_16
REMARK    4  A    between atoms: N_19  and  C_20
REMARK    5  A    between atoms: C_20  and  C_21
REMARK                            x       y       z     vdW  Elec       q    Type
REMARK                         _______ _______ _______ _____ _____    ______ ____
ROOT
ATOM      1  C   UNL     1       1.113   9.797  19.108  0.00  0.00    +0.000 A 
ATOM      2  C   UNL     1       1.056   8.905  20.218  0.00  0.00    +0.000 A 
ATOM      3  C   UNL     1       0.584   9.348  21.478  0.00  0.00    +0.000 A 
ATOM      4  C   UNL     1       0.471  10.710  21.627  0.00  0.00    +0.000 A 
ATOM      5  C   UNL     1       1.057  11.471  20.676  0.00  0.00    +0.000 A 
ATOM      6  C   UNL     1       0.949  11.134  19.395  0.00  0.00    +0.000 A 
ATOM      7  O   UNL     1       0.258  12.200  18.804  0.00  0.00    +0.000 OA
ATOM      8  C   UNL     1      -0.390  13.228  19.956  0.00  0.00    +0.000 C 
ATOM      9  C   UNL     1      -0.217  13.860  21.963  0.00  0.00    +0.000 C 
ATOM     10  O   UNL     1       0.741  14.382  22.577  0.00  0.00    +0.000 OA
ATOM     11  C   UNL     1      -1.692  13.537  23.202  0.00  0.00    +0.000 C 
ATOM     12  C   UNL     1      -2.714  12.256  22.336  0.00  0.00    +0.000 C 
ATOM     13  C   UNL     1      -1.464  11.952  20.836  0.00  0.00    +0.000 C 
ATOM     14  C   UNL     1      -1.943  13.190  21.276  0.00  0.00    +0.000 C 
ATOM     15  C   UNL     1      -0.792  11.691  22.270  0.00  0.00    +0.000 C 
ATOM     16  N   UNL     1      -1.604  14.931  20.730  0.00  0.00    +0.000 NA
ATOM     17  C   UNL     1      -0.031  15.457  20.308  0.00  0.00    +0.000 C 
ATOM     18  C   UNL     1       1.184  14.195  20.225  0.00  0.00    +0.000 C 
ATOM     19  C   UNL     1       0.428  12.706  20.855  0.00  0.00    +0.000 C 
ENDROOT
BRANCH   1  21
ATOM     20  C   UNL     1       2.291   8.219  17.825  0.00  0.00    +0.000 C 
ATOM     21  O   UNL     1       1.265   9.199  17.897  0.00  0.00    +0.000 OA
ENDBRANCH   1  21
BRANCH  13  22
ATOM     22  O   UNL     1      -2.107  11.471  19.669  0.00  0.00    +0.000 OA
ATOM     23  H   UNL     1      -3.002  11.851  19.580  0.00  0.00    +0.000 HD
ENDBRANCH  13  22
BRANCH  16  24
ATOM     24  C   UNL     1      -2.108  15.964  21.694  0.00  0.00    +0.000 C 
BRANCH  24  25
ATOM     25  C   UNL     1      -3.485  16.523  21.439  0.00  0.00    +0.000 C 
ATOM     26  C   UNL     1      -4.515  15.593  20.825  0.00  0.00    +0.000 C 
ATOM     27  C   UNL     1      -4.707  16.072  22.229  0.00  0.00    +0.000 C 
ENDBRANCH  24  25
ENDBRANCH  16  24
TORSDOF 4
ENDMDL
MODEL 9
REMARK VINA RESULT:      -5.7      9.285     11.414
REMARK  Name = 
REMARK  5 active torsions:
REMARK  status: ('A' for Active; 'I' for Inactive)
REMARK    1  A    between atoms: C_1  and  O_2
REMARK    2  A    between atoms: O_2  and  C_3
REMARK    3  A    between atoms: C_15  and  O_16
REMARK    4  A    between atoms: N_19  and  C_20
REMARK    5  A    between atoms: C_20  and  C_21
REMARK                            x       y       z     vdW  Elec       q    Type
REMARK                         _______ _______ _______ _____ _____    ______ ____
ROOT
ATOM      1  C   UNL     1      -4.765  14.958  21.824  0.00  0.00    +0.000 A 
ATOM      2  C   UNL     1      -4.368  16.193  21.232  0.00  0.00    +0.000 A 
ATOM      3  C   UNL     1      -3.076  16.343  20.670  0.00  0.00    +0.000 A 
ATOM      4  C   UNL     1      -2.171  15.359  20.988  0.00  0.00    +0.000 A 
ATOM      5  C   UNL     1      -2.519  14.518  21.987  0.00  0.00    +0.000 A 
ATOM      6  C   UNL     1      -3.759  14.045  22.056  0.00  0.00    +0.000 A 
ATOM      7  O   UNL     1      -3.621  12.659  21.906  0.00  0.00    +0.000 OA
ATOM      8  C   UNL     1      -2.079  12.245  21.402  0.00  0.00    +0.000 C 
ATOM      9  C   UNL     1      -0.076  12.908  21.333  0.00  0.00    +0.000 C 
ATOM     10  O   UNL     1       0.713  13.226  22.250  0.00  0.00    +0.000 OA
ATOM     11  C   UNL     1       0.772  13.221  19.601  0.00  0.00    +0.000 C 
ATOM     12  C   UNL     1      -0.659  13.311  18.427  0.00  0.00    +0.000 C 
ATOM     13  C   UNL     1      -2.078  13.239  19.800  0.00  0.00    +0.000 C 
ATOM     14  C   UNL     1      -1.000  12.356  19.677  0.00  0.00    +0.000 C 
ATOM     15  C   UNL     1      -1.063  14.464  20.016  0.00  0.00    +0.000 C 
ATOM     16  N   UNL     1      -0.451  10.900  20.687  0.00  0.00    +0.000 NA
ATOM     17  C   UNL     1      -0.515  10.910  22.397  0.00  0.00    +0.000 C 
ATOM     18  C   UNL     1      -1.324  12.293  23.110  0.00  0.00    +0.000 C 
ATOM     19  C   UNL     1      -1.654  13.439  21.782  0.00  0.00    +0.000 C 
ENDROOT
BRANCH   1  21
ATOM     20  C   UNL     1      -6.540  15.036  23.364  0.00  0.00    +0.000 C 
ATOM     21  O   UNL     1      -6.101  14.822  22.030  0.00  0.00    +0.000 OA
ENDBRANCH   1  21
BRANCH  13  22
ATOM     22  O   UNL     1      -3.300  12.722  19.306  0.00  0.00    +0.000 OA
ATOM     23  H   UNL     1      -3.443  12.985  18.376  0.00  0.00    +0.000 HD
ENDBRANCH  13  22
BRANCH  16  24
ATOM     24  C   UNL     1       0.939  10.439  20.357  0.00  0.00    +0.000 C 
BRANCH  24  25
ATOM     25  C   UNL     1       1.072   9.367  19.305  0.00  0.00    +0.000 C 
ATOM     26  C   UNL     1       0.440   9.633  17.951  0.00  0.00    +0.000 C 
ATOM     27  C   UNL     1       1.930   9.550  18.060  0.00  0.00    +0.000 C 
ENDBRANCH  24  25
ENDBRANCH  16  24
TORSDOF 4
ENDMDL
