MODEL 1
REMARK VINA RESULT:      -8.9      0.000      0.000
REMARK  Name = 
REMARK  7 active torsions:
REMARK  status: ('A' for Active; 'I' for Inactive)
REMARK    1  A    between atoms: N_5  and  C_6
REMARK    2  A    between atoms: N_15  and  C_16
REMARK    3  A    between atoms: C_16  and  C_17
REMARK    4  A    between atoms: C_17  and  C_18
REMARK    5  A    between atoms: C_18  and  C_19
REMARK    6  A    between atoms: C_19  and  C_20
REMARK    7  A    between atoms: C_19  and  C_26
REMARK                            x       y       z     vdW  Elec       q    Type
REMARK                         _______ _______ _______ _____ _____    ______ ____
ROOT
ATOM      1  O   UNL     1       0.331   2.495  18.778  0.00  0.00    +0.000 OA
ATOM      2  C   UNL     1       1.536   2.521  18.623  0.00  0.00    +0.000 C 
ATOM      3  N   UNL     1       2.297   1.420  18.324  0.00  0.00    +0.000 N 
ATOM      4  C   UNL     1       3.691   1.684  18.243  0.00  0.00    +0.000 C 
ATOM      5  N   UNL     1       3.803   3.134  18.321  0.00  0.00    +0.000 N 
ATOM      6  C   UNL     1       2.493   3.723  18.775  0.00  0.00    +0.000 C 
ATOM      7  C   UNL     1       1.917   4.856  17.934  0.00  0.00    +0.000 C 
ATOM      8  C   UNL     1       2.515   6.212  18.280  0.00  0.00    +0.000 C 
ATOM      9  N   UNL     1       2.586   6.517  19.718  0.00  0.00    +0.000 NA
ATOM     10  C   UNL     1       3.070   5.416  20.563  0.00  0.00    +0.000 C 
ATOM     11  C   UNL     1       2.479   4.057  20.264  0.00  0.00    +0.000 C 
ATOM     12  H   UNL     1       1.872   0.511  18.224  0.00  0.00    +0.000 HD
ENDROOT
BRANCH   5  13
ATOM     13  C   UNL     1       4.814   3.795  17.647  0.00  0.00    +0.000 A 
ATOM     14  C   UNL     1       5.863   4.461  18.298  0.00  0.00    +0.000 A 
ATOM     15  C   UNL     1       6.911   5.085  17.599  0.00  0.00    +0.000 A 
ATOM     16  C   UNL     1       6.964   5.044  16.207  0.00  0.00    +0.000 A 
ATOM     17  C   UNL     1       5.933   4.430  15.530  0.00  0.00    +0.000 A 
ATOM     18  C   UNL     1       4.875   3.867  16.248  0.00  0.00    +0.000 A 
ENDBRANCH   5  13
BRANCH   9  19
ATOM     19  C   UNL     1       1.306   7.060  20.169  0.00  0.00    +0.000 C 
BRANCH  19  20
ATOM     20  C   UNL     1       1.411   8.544  20.490  0.00  0.00    +0.000 C 
BRANCH  20  21
ATOM     21  C   UNL     1       1.065   9.353  19.257  0.00  0.00    +0.000 C 
BRANCH  21  22
ATOM     22  C   UNL     1       0.330  10.653  19.631  0.00  0.00    +0.000 C 
BRANCH  22  23
ATOM     23  C   UNL     1       1.238  11.877  19.611  0.00  0.00    +0.000 A 
ATOM     24  C   UNL     1       1.348  12.742  20.711  0.00  0.00    +0.000 A 
ATOM     25  C   UNL     1       2.165  13.871  20.662  0.00  0.00    +0.000 A 
ATOM     26  C   UNL     1       2.869  14.171  19.502  0.00  0.00    +0.000 A 
ATOM     27  C   UNL     1       2.752  13.344  18.386  0.00  0.00    +0.000 A 
ATOM     28  C   UNL     1       1.946  12.204  18.440  0.00  0.00    +0.000 A 
ENDBRANCH  22  23
BRANCH  22  29
ATOM     29  C   UNL     1      -0.916  10.767  18.771  0.00  0.00    +0.000 A 
ATOM     30  C   UNL     1      -1.970  11.602  19.178  0.00  0.00    +0.000 A 
ATOM     31  C   UNL     1      -3.155  11.647  18.445  0.00  0.00    +0.000 A 
ATOM     32  C   UNL     1      -3.300  10.869  17.299  0.00  0.00    +0.000 A 
ATOM     33  C   UNL     1      -2.269  10.041  16.882  0.00  0.00    +0.000 A 
ATOM     34  C   UNL     1      -1.087   9.985  17.616  0.00  0.00    +0.000 A 
ENDBRANCH  22  29
ENDBRANCH  21  22
ENDBRANCH  20  21
ENDBRANCH  19  20
ENDBRANCH   9  19
TORSDOF 7
ENDMDL
MODEL 2
REMARK VINA RESULT:      -8.8      0.428      3.294
REMARK  Name = 
REMARK  7 active torsions:
REMARK  status: ('A' for Active; 'I' for Inactive)
REMARK    1  A    between atoms: N_5  and  C_6
REMARK    2  A    between atoms: N_15  and  C_16
REMARK    3  A    between atoms: C_16  and  C_17
REMARK    4  A    between atoms: C_17  and  C_18
REMARK    5  A    between atoms: C_18  and  C_19
REMARK    6  A    between atoms: C_19  and  C_20
REMARK    7  A    between atoms: C_19  and  C_26
REMARK                            x       y       z     vdW  Elec       q    Type
REMARK                         _______ _______ _______ _____ _____    ______ ____
ROOT
ATOM      1  O   UNL     1       0.206   2.647  18.743  0.00  0.00    +0.000 OA
ATOM      2  C   UNL     1       1.409   2.648  18.564  0.00  0.00    +0.000 C 
ATOM      3  N   UNL     1       2.136   1.538  18.220  0.00  0.00    +0.000 N 
ATOM      4  C   UNL     1       3.535   1.770  18.117  0.00  0.00    +0.000 C 
ATOM      5  N   UNL     1       3.683   3.215  18.231  0.00  0.00    +0.000 N 
ATOM      6  C   UNL     1       2.398   3.822  18.728  0.00  0.00    +0.000 C 
ATOM      7  C   UNL     1       1.833   4.992  17.930  0.00  0.00    +0.000 C 
ATOM      8  C   UNL     1       2.471   6.323  18.300  0.00  0.00    +0.000 C 
ATOM      9  N   UNL     1       2.577   6.586  19.743  0.00  0.00    +0.000 NA
ATOM     10  C   UNL     1       3.051   5.452  20.549  0.00  0.00    +0.000 C 
ATOM     11  C   UNL     1       2.421   4.116  20.225  0.00  0.00    +0.000 C 
ATOM     12  H   UNL     1       1.688   0.643  18.104  0.00  0.00    +0.000 HD
ENDROOT
BRANCH   5  13
ATOM     13  C   UNL     1       4.697   3.870  17.555  0.00  0.00    +0.000 A 
ATOM     14  C   UNL     1       4.739   3.985  16.158  0.00  0.00    +0.000 A 
ATOM     15  C   UNL     1       5.749   4.698  15.489  0.00  0.00    +0.000 A 
ATOM     16  C   UNL     1       6.754   5.350  16.201  0.00  0.00    +0.000 A 
ATOM     17  C   UNL     1       6.768   5.230  17.573  0.00  0.00    +0.000 A 
ATOM     18  C   UNL     1       5.783   4.469  18.209  0.00  0.00    +0.000 A 
ENDBRANCH   5  13
BRANCH   9  19
ATOM     19  C   UNL     1       1.321   7.147  20.234  0.00  0.00    +0.000 C 
BRANCH  19  20
ATOM     20  C   UNL     1       1.486   8.599  20.660  0.00  0.00    +0.000 C 
BRANCH  20  21
ATOM     21  C   UNL     1       0.206   9.357  20.373  0.00  0.00    +0.000 C 
BRANCH  21  22
ATOM     22  C   UNL     1       0.313  10.157  19.062  0.00  0.00    +0.000 C 
BRANCH  22  23
ATOM     23  C   UNL     1      -1.041  10.434  18.420  0.00  0.00    +0.000 A 
ATOM     24  C   UNL     1      -1.968  11.322  18.987  0.00  0.00    +0.000 A 
ATOM     25  C   UNL     1      -3.212  11.541  18.395  0.00  0.00    +0.000 A 
ATOM     26  C   UNL     1      -3.562  10.856  17.237  0.00  0.00    +0.000 A 
ATOM     27  C   UNL     1      -2.671   9.947  16.672  0.00  0.00    +0.000 A 
ATOM     28  C   UNL     1      -1.418   9.739  17.257  0.00  0.00    +0.000 A 
ENDBRANCH  22  23
BRANCH  22  29
ATOM     29  C   UNL     1       1.162  11.389  19.317  0.00  0.00    +0.000 A 
ATOM     30  C   UNL     1       1.080  12.051  20.554  0.00  0.00    +0.000 A 
ATOM     31  C   UNL     1       1.786  13.234  20.767  0.00  0.00    +0.000 A 
ATOM     32  C   UNL     1       2.584  13.766  19.757  0.00  0.00    +0.000 A 
ATOM     33  C   UNL     1       2.678  13.126  18.531  0.00  0.00    +0.000 A 
ATOM     34  C   UNL     1       1.967  11.949  18.310  0.00  0.00    +0.000 A 
ENDBRANCH  22  29
ENDBRANCH  21  22
ENDBRANCH  20  21
ENDBRANCH  19  20
ENDBRANCH   9  19
TORSDOF 7
ENDMDL
MODEL 3
REMARK VINA RESULT:      -8.7      1.210      3.196
REMARK  Name = 
REMARK  7 active torsions:
REMARK  status: ('A' for Active; 'I' for Inactive)
REMARK    1  A    between atoms: N_5  and  C_6
REMARK    2  A    between atoms: N_15  and  C_16
REMARK    3  A    between atoms: C_16  and  C_17
REMARK    4  A    between atoms: C_17  and  C_18
REMARK    5  A    between atoms: C_18  and  C_19
REMARK    6  A    between atoms: C_19  and  C_20
REMARK    7  A    between atoms: C_19  and  C_26
REMARK                            x       y       z     vdW  Elec       q    Type
REMARK                         _______ _______ _______ _____ _____    ______ ____
ROOT
ATOM      1  O   UNL     1       0.213   2.715  18.848  0.00  0.00    +0.000 OA
ATOM      2  C   UNL     1       1.413   2.678  18.652  0.00  0.00    +0.000 C 
ATOM      3  N   UNL     1       2.105   1.537  18.342  0.00  0.00    +0.000 N 
ATOM      4  C   UNL     1       3.508   1.727  18.210  0.00  0.00    +0.000 C 
ATOM      5  N   UNL     1       3.696   3.170  18.265  0.00  0.00    +0.000 N 
ATOM      6  C   UNL     1       2.434   3.830  18.755  0.00  0.00    +0.000 C 
ATOM      7  C   UNL     1       1.888   4.983  17.920  0.00  0.00    +0.000 C 
ATOM      8  C   UNL     1       2.566   6.310  18.228  0.00  0.00    +0.000 C 
ATOM      9  N   UNL     1       2.701   6.627  19.659  0.00  0.00    +0.000 NA
ATOM     10  C   UNL     1       3.157   5.513  20.501  0.00  0.00    +0.000 C 
ATOM     11  C   UNL     1       2.488   4.182  20.240  0.00  0.00    +0.000 C 
ATOM     12  H   UNL     1       1.632   0.649  18.268  0.00  0.00    +0.000 HD
ENDROOT
BRANCH   5  13
ATOM     13  C   UNL     1       4.716   3.771  17.550  0.00  0.00    +0.000 A 
ATOM     14  C   UNL     1       5.821   4.387  18.156  0.00  0.00    +0.000 A 
ATOM     15  C   UNL     1       6.875   4.947  17.414  0.00  0.00    +0.000 A 
ATOM     16  C   UNL     1       6.875   4.891  16.021  0.00  0.00    +0.000 A 
ATOM     17  C   UNL     1       5.790   4.328  15.387  0.00  0.00    +0.000 A 
ATOM     18  C   UNL     1       4.730   3.827  16.149  0.00  0.00    +0.000 A 
ENDBRANCH   5  13
BRANCH   9  19
ATOM     19  C   UNL     1       1.467   7.240  20.145  0.00  0.00    +0.000 C 
BRANCH  19  20
ATOM     20  C   UNL     1       1.421   8.728  19.831  0.00  0.00    +0.000 C 
BRANCH  20  21
ATOM     21  C   UNL     1       0.157   9.328  20.412  0.00  0.00    +0.000 C 
BRANCH  21  22
ATOM     22  C   UNL     1      -0.107  10.733  19.842  0.00  0.00    +0.000 C 
BRANCH  22  23
ATOM     23  C   UNL     1      -1.195  10.747  18.773  0.00  0.00    +0.000 A 
ATOM     24  C   UNL     1      -2.349  11.536  18.895  0.00  0.00    +0.000 A 
ATOM     25  C   UNL     1      -3.344  11.514  17.917  0.00  0.00    +0.000 A 
ATOM     26  C   UNL     1      -3.214  10.684  16.810  0.00  0.00    +0.000 A 
ATOM     27  C   UNL     1      -2.090   9.870  16.682  0.00  0.00    +0.000 A 
ATOM     28  C   UNL     1      -1.087   9.903  17.654  0.00  0.00    +0.000 A 
ENDBRANCH  22  23
BRANCH  22  29
ATOM     29  C   UNL     1      -0.336  11.689  20.998  0.00  0.00    +0.000 A 
ATOM     30  C   UNL     1      -1.112  11.283  22.097  0.00  0.00    +0.000 A 
ATOM     31  C   UNL     1      -1.405  12.181  23.122  0.00  0.00    +0.000 A 
ATOM     32  C   UNL     1      -0.924  13.487  23.068  0.00  0.00    +0.000 A 
ATOM     33  C   UNL     1      -0.155  13.904  21.992  0.00  0.00    +0.000 A 
ATOM     34  C   UNL     1       0.131  13.013  20.961  0.00  0.00    +0.000 A 
ENDBRANCH  22  29
ENDBRANCH  21  22
ENDBRANCH  20  21
ENDBRANCH  19  20
ENDBRANCH   9  19
TORSDOF 7
ENDMDL
MODEL 4
REMARK VINA RESULT:      -8.7      0.509      1.230
REMARK  Name = 
REMARK  7 active torsions:
REMARK  status: ('A' for Active; 'I' for Inactive)
REMARK    1  A    between atoms: N_5  and  C_6
REMARK    2  A    between atoms: N_15  and  C_16
REMARK    3  A    between atoms: C_16  and  C_17
REMARK    4  A    between atoms: C_17  and  C_18
REMARK    5  A    between atoms: C_18  and  C_19
REMARK    6  A    between atoms: C_19  and  C_20
REMARK    7  A    between atoms: C_19  and  C_26
REMARK                            x       y       z     vdW  Elec       q    Type
REMARK                         _______ _______ _______ _____ _____    ______ ____
ROOT
ATOM      1  O   UNL     1       0.156   2.773  18.544  0.00  0.00    +0.000 OA
ATOM      2  C   UNL     1       1.370   2.734  18.488  0.00  0.00    +0.000 C 
ATOM      3  N   UNL     1       2.091   1.592  18.253  0.00  0.00    +0.000 N 
ATOM      4  C   UNL     1       3.500   1.778  18.285  0.00  0.00    +0.000 C 
ATOM      5  N   UNL     1       3.684   3.221  18.371  0.00  0.00    +0.000 N 
ATOM      6  C   UNL     1       2.375   3.882  18.716  0.00  0.00    +0.000 C 
ATOM      7  C   UNL     1       1.933   5.041  17.831  0.00  0.00    +0.000 C 
ATOM      8  C   UNL     1       2.573   6.364  18.224  0.00  0.00    +0.000 C 
ATOM      9  N   UNL     1       2.543   6.672  19.663  0.00  0.00    +0.000 NA
ATOM     10  C   UNL     1       2.896   5.551  20.545  0.00  0.00    +0.000 C 
ATOM     11  C   UNL     1       2.258   4.224  20.199  0.00  0.00    +0.000 C 
ATOM     12  H   UNL     1       1.627   0.706  18.119  0.00  0.00    +0.000 HD
ENDROOT
BRANCH   5  13
ATOM     13  C   UNL     1       4.781   3.823  17.782  0.00  0.00    +0.000 A 
ATOM     14  C   UNL     1       5.005   3.825  16.398  0.00  0.00    +0.000 A 
ATOM     15  C   UNL     1       6.098   4.485  15.810  0.00  0.00    +0.000 A 
ATOM     16  C   UNL     1       7.006   5.196  16.592  0.00  0.00    +0.000 A 
ATOM     17  C   UNL     1       6.842   5.188  17.960  0.00  0.00    +0.000 A 
ATOM     18  C   UNL     1       5.777   4.477  18.521  0.00  0.00    +0.000 A 
ENDBRANCH   5  13
BRANCH   9  19
ATOM     19  C   UNL     1       1.263   7.286  20.007  0.00  0.00    +0.000 C 
BRANCH  19  20
ATOM     20  C   UNL     1       1.382   8.798  20.126  0.00  0.00    +0.000 C 
BRANCH  20  21
ATOM     21  C   UNL     1       0.812   9.449  18.882  0.00  0.00    +0.000 C 
BRANCH  21  22
ATOM     22  C   UNL     1       0.051  10.741  19.227  0.00  0.00    +0.000 C 
BRANCH  22  23
ATOM     23  C   UNL     1       0.898  11.997  19.053  0.00  0.00    +0.000 A 
ATOM     24  C   UNL     1       2.082  11.999  18.299  0.00  0.00    +0.000 A 
ATOM     25  C   UNL     1       2.854  13.153  18.173  0.00  0.00    +0.000 A 
ATOM     26  C   UNL     1       2.470  14.322  18.820  0.00  0.00    +0.000 A 
ATOM     27  C   UNL     1       1.315  14.336  19.598  0.00  0.00    +0.000 A 
ATOM     28  C   UNL     1       0.533  13.184  19.712  0.00  0.00    +0.000 A 
ENDBRANCH  22  23
BRANCH  22  29
ATOM     29  C   UNL     1      -1.263  10.746  18.466  0.00  0.00    +0.000 A 
ATOM     30  C   UNL     1      -2.324  11.552  18.912  0.00  0.00    +0.000 A 
ATOM     31  C   UNL     1      -3.564  11.497  18.275  0.00  0.00    +0.000 A 
ATOM     32  C   UNL     1      -3.757  10.648  17.188  0.00  0.00    +0.000 A 
ATOM     33  C   UNL     1      -2.719   9.848  16.735  0.00  0.00    +0.000 A 
ATOM     34  C   UNL     1      -1.482   9.891  17.373  0.00  0.00    +0.000 A 
ENDBRANCH  22  29
ENDBRANCH  21  22
ENDBRANCH  20  21
ENDBRANCH  19  20
ENDBRANCH   9  19
TORSDOF 7
ENDMDL
MODEL 5
REMARK VINA RESULT:      -8.7      0.466      3.488
REMARK  Name = 
REMARK  7 active torsions:
REMARK  status: ('A' for Active; 'I' for Inactive)
REMARK    1  A    between atoms: N_5  and  C_6
REMARK    2  A    between atoms: N_15  and  C_16
REMARK    3  A    between atoms: C_16  and  C_17
REMARK    4  A    between atoms: C_17  and  C_18
REMARK    5  A    between atoms: C_18  and  C_19
REMARK    6  A    between atoms: C_19  and  C_20
REMARK    7  A    between atoms: C_19  and  C_26
REMARK                            x       y       z     vdW  Elec       q    Type
REMARK                         _______ _______ _______ _____ _____    ______ ____
ROOT
ATOM      1  O   UNL     1       0.289   2.867  18.852  0.00  0.00    +0.000 OA
ATOM      2  C   UNL     1       1.503   2.847  18.783  0.00  0.00    +0.000 C 
ATOM      3  N   UNL     1       2.248   1.699  18.708  0.00  0.00    +0.000 N 
ATOM      4  C   UNL     1       3.653   1.919  18.690  0.00  0.00    +0.000 C 
ATOM      5  N   UNL     1       3.802   3.362  18.557  0.00  0.00    +0.000 N 
ATOM      6  C   UNL     1       2.483   4.038  18.821  0.00  0.00    +0.000 C 
ATOM      7  C   UNL     1       2.001   5.042  17.780  0.00  0.00    +0.000 C 
ATOM      8  C   UNL     1       2.614   6.423  17.962  0.00  0.00    +0.000 C 
ATOM      9  N   UNL     1       2.594   6.941  19.339  0.00  0.00    +0.000 NA
ATOM     10  C   UNL     1       2.986   5.973  20.372  0.00  0.00    +0.000 C 
ATOM     11  C   UNL     1       2.376   4.595  20.238  0.00  0.00    +0.000 C 
ATOM     12  H   UNL     1       1.805   0.793  18.715  0.00  0.00    +0.000 HD
ENDROOT
BRANCH   5  13
ATOM     13  C   UNL     1       4.877   3.894  17.867  0.00  0.00    +0.000 A 
ATOM     14  C   UNL     1       5.041   3.762  16.481  0.00  0.00    +0.000 A 
ATOM     15  C   UNL     1       6.112   4.351  15.787  0.00  0.00    +0.000 A 
ATOM     16  C   UNL     1       7.058   5.124  16.459  0.00  0.00    +0.000 A 
ATOM     17  C   UNL     1       6.952   5.248  17.826  0.00  0.00    +0.000 A 
ATOM     18  C   UNL     1       5.908   4.605  18.498  0.00  0.00    +0.000 A 
ENDBRANCH   5  13
BRANCH   9  19
ATOM     19  C   UNL     1       1.304   7.571  19.609  0.00  0.00    +0.000 C 
BRANCH  19  20
ATOM     20  C   UNL     1       1.379   8.508  20.806  0.00  0.00    +0.000 C 
BRANCH  20  21
ATOM     21  C   UNL     1       0.359   9.616  20.644  0.00  0.00    +0.000 C 
BRANCH  21  22
ATOM     22  C   UNL     1       0.460  10.267  19.253  0.00  0.00    +0.000 C 
BRANCH  22  23
ATOM     23  C   UNL     1      -0.893  10.423  18.567  0.00  0.00    +0.000 A 
ATOM     24  C   UNL     1      -1.211   9.743  17.382  0.00  0.00    +0.000 A 
ATOM     25  C   UNL     1      -2.446   9.920  16.758  0.00  0.00    +0.000 A 
ATOM     26  C   UNL     1      -3.378  10.800  17.295  0.00  0.00    +0.000 A 
ATOM     27  C   UNL     1      -3.073  11.510  18.455  0.00  0.00    +0.000 A 
ATOM     28  C   UNL     1      -1.842  11.321  19.089  0.00  0.00    +0.000 A 
ENDBRANCH  22  23
BRANCH  22  29
ATOM     29  C   UNL     1       1.263  11.549  19.377  0.00  0.00    +0.000 A 
ATOM     30  C   UNL     1       2.031  12.001  18.290  0.00  0.00    +0.000 A 
ATOM     31  C   UNL     1       2.843  13.126  18.421  0.00  0.00    +0.000 A 
ATOM     32  C   UNL     1       2.895  13.816  19.630  0.00  0.00    +0.000 A 
ATOM     33  C   UNL     1       2.143  13.385  20.713  0.00  0.00    +0.000 A 
ATOM     34  C   UNL     1       1.338  12.256  20.590  0.00  0.00    +0.000 A 
ENDBRANCH  22  29
ENDBRANCH  21  22
ENDBRANCH  20  21
ENDBRANCH  19  20
ENDBRANCH   9  19
TORSDOF 7
ENDMDL
MODEL 6
REMARK VINA RESULT:      -8.7      3.134      8.742
REMARK  Name = 
REMARK  7 active torsions:
REMARK  status: ('A' for Active; 'I' for Inactive)
REMARK    1  A    between atoms: N_5  and  C_6
REMARK    2  A    between atoms: N_15  and  C_16
REMARK    3  A    between atoms: C_16  and  C_17
REMARK    4  A    between atoms: C_17  and  C_18
REMARK    5  A    between atoms: C_18  and  C_19
REMARK    6  A    between atoms: C_19  and  C_20
REMARK    7  A    between atoms: C_19  and  C_26
REMARK                            x       y       z     vdW  Elec       q    Type
REMARK                         _______ _______ _______ _____ _____    ______ ____
ROOT
ATOM      1  O   UNL     1      -0.312   9.100  22.577  0.00  0.00    +0.000 OA
ATOM      2  C   UNL     1      -0.537  10.256  22.278  0.00  0.00    +0.000 C 
ATOM      3  N   UNL     1      -1.132  11.164  23.116  0.00  0.00    +0.000 N 
ATOM      4  C   UNL     1      -1.342  12.442  22.530  0.00  0.00    +0.000 C 
ATOM      5  N   UNL     1      -0.644  12.387  21.252  0.00  0.00    +0.000 N 
ATOM      6  C   UNL     1      -0.286  10.961  20.928  0.00  0.00    +0.000 C 
ATOM      7  C   UNL     1       1.163  10.683  20.546  0.00  0.00    +0.000 C 
ATOM      8  C   UNL     1       1.454  10.968  19.080  0.00  0.00    +0.000 C 
ATOM      9  N   UNL     1       0.474  10.420  18.129  0.00  0.00    +0.000 NA
ATOM     10  C   UNL     1      -0.934  10.611  18.508  0.00  0.00    +0.000 C 
ATOM     11  C   UNL     1      -1.265  10.312  19.953  0.00  0.00    +0.000 C 
ATOM     12  H   UNL     1      -1.423  10.898  24.043  0.00  0.00    +0.000 HD
ENDROOT
BRANCH   5  13
ATOM     13  C   UNL     1      -0.059  13.525  20.725  0.00  0.00    +0.000 A 
ATOM     14  C   UNL     1       0.977  14.221  21.363  0.00  0.00    +0.000 A 
ATOM     15  C   UNL     1       1.596  15.346  20.790  0.00  0.00    +0.000 A 
ATOM     16  C   UNL     1       1.213  15.807  19.532  0.00  0.00    +0.000 A 
ATOM     17  C   UNL     1       0.174  15.172  18.889  0.00  0.00    +0.000 A 
ATOM     18  C   UNL     1      -0.460  14.090  19.506  0.00  0.00    +0.000 A 
ENDBRANCH   5  13
BRANCH   9  19
ATOM     19  C   UNL     1       0.801   9.027  17.835  0.00  0.00    +0.000 C 
BRANCH  19  20
ATOM     20  C   UNL     1       2.291   8.758  17.989  0.00  0.00    +0.000 C 
BRANCH  20  21
ATOM     21  C   UNL     1       2.498   7.583  18.922  0.00  0.00    +0.000 C 
BRANCH  21  22
ATOM     22  C   UNL     1       2.979   6.339  18.153  0.00  0.00    +0.000 C 
BRANCH  22  23
ATOM     23  C   UNL     1       4.498   6.227  18.089  0.00  0.00    +0.000 A 
ATOM     24  C   UNL     1       5.243   6.787  17.039  0.00  0.00    +0.000 A 
ATOM     25  C   UNL     1       6.630   6.651  16.987  0.00  0.00    +0.000 A 
ATOM     26  C   UNL     1       7.296   5.931  17.972  0.00  0.00    +0.000 A 
ATOM     27  C   UNL     1       6.575   5.340  19.008  0.00  0.00    +0.000 A 
ATOM     28  C   UNL     1       5.187   5.490  19.068  0.00  0.00    +0.000 A 
ENDBRANCH  22  23
BRANCH  22  29
ATOM     29  C   UNL     1       2.272   5.119  18.717  0.00  0.00    +0.000 A 
ATOM     30  C   UNL     1       1.961   4.040  17.874  0.00  0.00    +0.000 A 
ATOM     31  C   UNL     1       1.234   2.954  18.359  0.00  0.00    +0.000 A 
ATOM     32  C   UNL     1       0.815   2.929  19.687  0.00  0.00    +0.000 A 
ATOM     33  C   UNL     1       1.115   3.985  20.534  0.00  0.00    +0.000 A 
ATOM     34  C   UNL     1       1.833   5.076  20.051  0.00  0.00    +0.000 A 
ENDBRANCH  22  29
ENDBRANCH  21  22
ENDBRANCH  20  21
ENDBRANCH  19  20
ENDBRANCH   9  19
TORSDOF 7
ENDMDL
MODEL 7
REMARK VINA RESULT:      -8.7      3.218      8.826
REMARK  Name = 
REMARK  7 active torsions:
REMARK  status: ('A' for Active; 'I' for Inactive)
REMARK    1  A    between atoms: N_5  and  C_6
REMARK    2  A    between atoms: N_15  and  C_16
REMARK    3  A    between atoms: C_16  and  C_17
REMARK    4  A    between atoms: C_17  and  C_18
REMARK    5  A    between atoms: C_18  and  C_19
REMARK    6  A    between atoms: C_19  and  C_20
REMARK    7  A    between atoms: C_19  and  C_26
REMARK                            x       y       z     vdW  Elec       q    Type
REMARK                         _______ _______ _______ _____ _____    ______ ____
ROOT
ATOM      1  O   UNL     1      -0.784   9.819  22.773  0.00  0.00    +0.000 OA
ATOM      2  C   UNL     1      -0.739  10.971  22.388  0.00  0.00    +0.000 C 
ATOM      3  N   UNL     1      -1.213  12.040  23.105  0.00  0.00    +0.000 N 
ATOM      4  C   UNL     1      -1.102  13.286  22.430  0.00  0.00    +0.000 C 
ATOM      5  N   UNL     1      -0.311  12.998  21.241  0.00  0.00    +0.000 N 
ATOM      6  C   UNL     1      -0.221  11.508  21.037  0.00  0.00    +0.000 C 
ATOM      7  C   UNL     1       1.171  10.922  20.832  0.00  0.00    +0.000 C 
ATOM      8  C   UNL     1       1.653  11.032  19.392  0.00  0.00    +0.000 C 
ATOM      9  N   UNL     1       0.677  10.617  18.372  0.00  0.00    +0.000 NA
ATOM     10  C   UNL     1      -0.691  11.109  18.583  0.00  0.00    +0.000 C 
ATOM     11  C   UNL     1      -1.213  10.993  19.998  0.00  0.00    +0.000 C 
ATOM     12  H   UNL     1      -1.640  11.907  24.009  0.00  0.00    +0.000 HD
ENDROOT
BRANCH   5  13
ATOM     13  C   UNL     1       0.542  13.954  20.719  0.00  0.00    +0.000 A 
ATOM     14  C   UNL     1       1.661  14.443  21.407  0.00  0.00    +0.000 A 
ATOM     15  C   UNL     1       2.547  15.377  20.843  0.00  0.00    +0.000 A 
ATOM     16  C   UNL     1       2.357  15.845  19.544  0.00  0.00    +0.000 A 
ATOM     17  C   UNL     1       1.249  15.416  18.848  0.00  0.00    +0.000 A 
ATOM     18  C   UNL     1       0.355  14.529  19.454  0.00  0.00    +0.000 A 
ENDBRANCH   5  13
BRANCH   9  19
ATOM     19  C   UNL     1       0.740   9.168  18.193  0.00  0.00    +0.000 C 
BRANCH  19  20
ATOM     20  C   UNL     1       2.171   8.692  17.989  0.00  0.00    +0.000 C 
BRANCH  20  21
ATOM     21  C   UNL     1       2.457   7.537  18.928  0.00  0.00    +0.000 C 
BRANCH  21  22
ATOM     22  C   UNL     1       2.941   6.297  18.155  0.00  0.00    +0.000 C 
BRANCH  22  23
ATOM     23  C   UNL     1       4.461   6.191  18.090  0.00  0.00    +0.000 A 
ATOM     24  C   UNL     1       5.204   5.520  19.073  0.00  0.00    +0.000 A 
ATOM     25  C   UNL     1       6.596   5.457  19.007  0.00  0.00    +0.000 A 
ATOM     26  C   UNL     1       7.273   6.086  17.969  0.00  0.00    +0.000 A 
ATOM     27  C   UNL     1       6.558   6.783  16.997  0.00  0.00    +0.000 A 
ATOM     28  C   UNL     1       5.163   6.834  17.055  0.00  0.00    +0.000 A 
ENDBRANCH  22  23
BRANCH  22  29
ATOM     29  C   UNL     1       2.240   5.074  18.716  0.00  0.00    +0.000 A 
ATOM     30  C   UNL     1       1.961   3.982  17.877  0.00  0.00    +0.000 A 
ATOM     31  C   UNL     1       1.237   2.891  18.357  0.00  0.00    +0.000 A 
ATOM     32  C   UNL     1       0.791   2.873  19.677  0.00  0.00    +0.000 A 
ATOM     33  C   UNL     1       1.059   3.941  20.520  0.00  0.00    +0.000 A 
ATOM     34  C   UNL     1       1.773   5.037  20.041  0.00  0.00    +0.000 A 
ENDBRANCH  22  29
ENDBRANCH  21  22
ENDBRANCH  20  21
ENDBRANCH  19  20
ENDBRANCH   9  19
TORSDOF 7
ENDMDL
MODEL 8
REMARK VINA RESULT:      -8.6      0.959      1.737
REMARK  Name = 
REMARK  7 active torsions:
REMARK  status: ('A' for Active; 'I' for Inactive)
REMARK    1  A    between atoms: N_5  and  C_6
REMARK    2  A    between atoms: N_15  and  C_16
REMARK    3  A    between atoms: C_16  and  C_17
REMARK    4  A    between atoms: C_17  and  C_18
REMARK    5  A    between atoms: C_18  and  C_19
REMARK    6  A    between atoms: C_19  and  C_20
REMARK    7  A    between atoms: C_19  and  C_26
REMARK                            x       y       z     vdW  Elec       q    Type
REMARK                         _______ _______ _______ _____ _____    ______ ____
ROOT
ATOM      1  O   UNL     1       0.146   2.749  18.752  0.00  0.00    +0.000 OA
ATOM      2  C   UNL     1       1.360   2.722  18.689  0.00  0.00    +0.000 C 
ATOM      3  N   UNL     1       2.095   1.578  18.516  0.00  0.00    +0.000 N 
ATOM      4  C   UNL     1       3.501   1.785  18.525  0.00  0.00    +0.000 C 
ATOM      5  N   UNL     1       3.665   3.232  18.523  0.00  0.00    +0.000 N 
ATOM      6  C   UNL     1       2.351   3.895  18.839  0.00  0.00    +0.000 C 
ATOM      7  C   UNL     1       1.885   4.993  17.889  0.00  0.00    +0.000 C 
ATOM      8  C   UNL     1       2.510   6.346  18.197  0.00  0.00    +0.000 C 
ATOM      9  N   UNL     1       2.486   6.738  19.615  0.00  0.00    +0.000 NA
ATOM     10  C   UNL     1       2.862   5.678  20.560  0.00  0.00    +0.000 C 
ATOM     11  C   UNL     1       2.240   4.324  20.300  0.00  0.00    +0.000 C 
ATOM     12  H   UNL     1       1.643   0.680  18.439  0.00  0.00    +0.000 HD
ENDROOT
BRANCH   5  13
ATOM     13  C   UNL     1       4.750   3.812  17.890  0.00  0.00    +0.000 A 
ATOM     14  C   UNL     1       5.758   4.506  18.574  0.00  0.00    +0.000 A 
ATOM     15  C   UNL     1       6.881   5.046  17.922  0.00  0.00    +0.000 A 
ATOM     16  C   UNL     1       7.050   4.889  16.548  0.00  0.00    +0.000 A 
ATOM     17  C   UNL     1       6.064   4.245  15.834  0.00  0.00    +0.000 A 
ATOM     18  C   UNL     1       4.932   3.767  16.500  0.00  0.00    +0.000 A 
ENDBRANCH   5  13
BRANCH   9  19
ATOM     19  C   UNL     1       1.200   7.355  19.933  0.00  0.00    +0.000 C 
BRANCH  19  20
ATOM     20  C   UNL     1       1.356   8.831  20.270  0.00  0.00    +0.000 C 
BRANCH  20  21
ATOM     21  C   UNL     1       0.668   9.666  19.210  0.00  0.00    +0.000 C 
BRANCH  21  22
ATOM     22  C   UNL     1      -0.620  10.308  19.756  0.00  0.00    +0.000 C 
BRANCH  22  23
ATOM     23  C   UNL     1      -0.362  11.591  20.539  0.00  0.00    +0.000 A 
ATOM     24  C   UNL     1       0.544  12.566  20.094  0.00  0.00    +0.000 A 
ATOM     25  C   UNL     1       0.784  13.720  20.839  0.00  0.00    +0.000 A 
ATOM     26  C   UNL     1       0.140  13.910  22.056  0.00  0.00    +0.000 A 
ATOM     27  C   UNL     1      -0.742  12.942  22.533  0.00  0.00    +0.000 A 
ATOM     28  C   UNL     1      -0.994  11.792  21.779  0.00  0.00    +0.000 A 
ENDBRANCH  22  23
BRANCH  22  29
ATOM     29  C   UNL     1      -1.612  10.446  18.615  0.00  0.00    +0.000 A 
ATOM     30  C   UNL     1      -1.397   9.749  17.414  0.00  0.00    +0.000 A 
ATOM     31  C   UNL     1      -2.250   9.937  16.328  0.00  0.00    +0.000 A 
ATOM     32  C   UNL     1      -3.328  10.813  16.428  0.00  0.00    +0.000 A 
ATOM     33  C   UNL     1      -3.557  11.508  17.606  0.00  0.00    +0.000 A 
ATOM     34  C   UNL     1      -2.701  11.331  18.690  0.00  0.00    +0.000 A 
ENDBRANCH  22  29
ENDBRANCH  21  22
ENDBRANCH  20  21
ENDBRANCH  19  20
ENDBRANCH   9  19
TORSDOF 7
ENDMDL
MODEL 9
REMARK VINA RESULT:      -8.6      3.139      8.840
REMARK  Name = 
REMARK  7 active torsions:
REMARK  status: ('A' for Active; 'I' for Inactive)
REMARK    1  A    between atoms: N_5  and  C_6
REMARK    2  A    between atoms: N_15  and  C_16
REMARK    3  A    between atoms: C_16  and  C_17
REMARK    4  A    between atoms: C_17  and  C_18
REMARK    5  A    between atoms: C_18  and  C_19
REMARK    6  A    between atoms: C_19  and  C_20
REMARK    7  A    between atoms: C_19  and  C_26
REMARK                            x       y       z     vdW  Elec       q    Type
REMARK                         _______ _______ _______ _____ _____    ______ ____
ROOT
ATOM      1  O   UNL     1      -0.498   9.351  22.603  0.00  0.00    +0.000 OA
ATOM      2  C   UNL     1      -0.642  10.513  22.275  0.00  0.00    +0.000 C 
ATOM      3  N   UNL     1      -1.201  11.473  23.077  0.00  0.00    +0.000 N 
ATOM      4  C   UNL     1      -1.315  12.749  22.461  0.00  0.00    +0.000 C 
ATOM      5  N   UNL     1      -0.588  12.624  21.205  0.00  0.00    +0.000 N 
ATOM      6  C   UNL     1      -0.311  11.171  20.919  0.00  0.00    +0.000 C 
ATOM      7  C   UNL     1       1.128  10.796  20.583  0.00  0.00    +0.000 C 
ATOM      8  C   UNL     1       1.475  11.031  19.120  0.00  0.00    +0.000 C 
ATOM      9  N   UNL     1       0.488  10.524  18.154  0.00  0.00    +0.000 NA
ATOM     10  C   UNL     1      -0.914  10.809  18.489  0.00  0.00    +0.000 C 
ATOM     11  C   UNL     1      -1.302  10.563  19.930  0.00  0.00    +0.000 C 
ATOM     12  H   UNL     1      -1.532  11.245  24.002  0.00  0.00    +0.000 HD
ENDROOT
BRANCH   5  13
ATOM     13  C   UNL     1       0.081  13.711  20.672  0.00  0.00    +0.000 A 
ATOM     14  C   UNL     1      -0.254  14.291  19.440  0.00  0.00    +0.000 A 
ATOM     15  C   UNL     1       0.402  15.427  18.936  0.00  0.00    +0.000 A 
ATOM     16  C   UNL     1       1.415  16.048  19.665  0.00  0.00    +0.000 A 
ATOM     17  C   UNL     1       1.798  15.487  20.863  0.00  0.00    +0.000 A 
ATOM     18  C   UNL     1       1.166  14.325  21.314  0.00  0.00    +0.000 A 
ENDBRANCH   5  13
BRANCH   9  19
ATOM     19  C   UNL     1       0.735   9.107  17.897  0.00  0.00    +0.000 C 
BRANCH  19  20
ATOM     20  C   UNL     1       2.223   8.786  17.917  0.00  0.00    +0.000 C 
BRANCH  20  21
ATOM     21  C   UNL     1       2.474   7.616  18.846  0.00  0.00    +0.000 C 
BRANCH  21  22
ATOM     22  C   UNL     1       2.860   6.352  18.057  0.00  0.00    +0.000 C 
BRANCH  22  23
ATOM     23  C   UNL     1       4.368   6.164  17.932  0.00  0.00    +0.000 A 
ATOM     24  C   UNL     1       5.072   6.536  16.776  0.00  0.00    +0.000 A 
ATOM     25  C   UNL     1       6.448   6.332  16.673  0.00  0.00    +0.000 A 
ATOM     26  C   UNL     1       7.142   5.729  17.715  0.00  0.00    +0.000 A 
ATOM     27  C   UNL     1       6.460   5.324  18.861  0.00  0.00    +0.000 A 
ATOM     28  C   UNL     1       5.084   5.543  18.970  0.00  0.00    +0.000 A 
ENDBRANCH  22  23
BRANCH  22  29
ATOM     29  C   UNL     1       2.117   5.167  18.649  0.00  0.00    +0.000 A 
ATOM     30  C   UNL     1       1.780   5.165  20.013  0.00  0.00    +0.000 A 
ATOM     31  C   UNL     1       1.178   4.046  20.587  0.00  0.00    +0.000 A 
ATOM     32  C   UNL     1       0.901   2.924  19.811  0.00  0.00    +0.000 A 
ATOM     33  C   UNL     1       1.226   2.909  18.463  0.00  0.00    +0.000 A 
ATOM     34  C   UNL     1       1.836   4.021  17.887  0.00  0.00    +0.000 A 
ENDBRANCH  22  29
ENDBRANCH  21  22
ENDBRANCH  20  21
ENDBRANCH  19  20
ENDBRANCH   9  19
TORSDOF 7
ENDMDL
