MODEL 1
REMARK VINA RESULT:      -8.6      0.000      0.000
REMARK  Name = 
REMARK  6 active torsions:
REMARK  status: ('A' for Active; 'I' for Inactive)
REMARK    1  A    between atoms: C_1  and  O_2
REMARK    2  A    between atoms: O_2  and  C_3
REMARK    3  A    between atoms: C_6  and  C_7
REMARK    4  A    between atoms: C_17  and  N_18
REMARK    5  A    between atoms: C_19  and  C_21
REMARK    6  A    between atoms: C_24  and  C_25
REMARK                            x       y       z     vdW  Elec       q    Type
REMARK                         _______ _______ _______ _____ _____    ______ ____
ROOT
ATOM      1  C   UNL     1       3.077   3.950  20.327  0.00  0.00    +0.000 A 
ATOM      2  C   UNL     1       3.916   2.943  19.821  0.00  0.00    +0.000 A 
ATOM      3  C   UNL     1       4.584   3.109  18.605  0.00  0.00    +0.000 A 
ATOM      4  C   UNL     1       4.465   4.299  17.889  0.00  0.00    +0.000 A 
ATOM      5  C   UNL     1       3.660   5.313  18.423  0.00  0.00    +0.000 A 
ATOM      6  C   UNL     1       2.951   5.163  19.623  0.00  0.00    +0.000 A 
ENDROOT
BRANCH   4   7
ATOM      7  C   UNL     1       5.167   4.456  16.608  0.00  0.00    +0.000 A 
ATOM      8  N   UNL     1       4.876   3.773  15.521  0.00  0.00    +0.000 NA
ATOM      9  C   UNL     1       5.747   4.110  14.499  0.00  0.00    +0.000 A 
ATOM     10  C   UNL     1       5.735   3.576  13.196  0.00  0.00    +0.000 A 
ATOM     11  C   UNL     1       6.710   3.975  12.275  0.00  0.00    +0.000 A 
ATOM     12  C   UNL     1       7.680   4.907  12.631  0.00  0.00    +0.000 A 
ATOM     13  C   UNL     1       7.695   5.471  13.910  0.00  0.00    +0.000 A 
ATOM     14  C   UNL     1       6.721   5.052  14.829  0.00  0.00    +0.000 A 
ATOM     15  S   UNL     1       6.501   5.535  16.458  0.00  0.00    +0.000 S 
ENDBRANCH   4   7
BRANCH   6  16
ATOM     16  N   UNL     1       2.134   6.222  20.128  0.00  0.00    +0.000 N 
ATOM     17  C   UNL     1       2.116   7.514  19.617  0.00  0.00    +0.000 C 
ATOM     18  O   UNL     1       2.673   7.858  18.572  0.00  0.00    +0.000 OA
ATOM     19  H   UNL     1       1.482   5.957  20.862  0.00  0.00    +0.000 HD
BRANCH  17  20
ATOM     20  C   UNL     1       1.357   8.583  20.318  0.00  0.00    +0.000 A 
ATOM     21  C   UNL     1       1.325   8.536  21.728  0.00  0.00    +0.000 A 
ATOM     22  C   UNL     1       0.644   9.500  22.474  0.00  0.00    +0.000 A 
ATOM     23  C   UNL     1      -0.026  10.530  21.819  0.00  0.00    +0.000 A 
ATOM     24  C   UNL     1      -0.024  10.578  20.419  0.00  0.00    +0.000 A 
ATOM     25  C   UNL     1       0.664   9.606  19.680  0.00  0.00    +0.000 A 
ATOM     26  F   UNL     1       0.638   9.691  18.342  0.00  0.00    +0.000 F 
BRANCH  23  27
ATOM     27  C   UNL     1      -0.709  11.541  22.580  0.00  0.00    +0.000 C 
ATOM     28  N   UNL     1      -1.251  12.357  23.196  0.00  0.00    +0.000 NA
ENDBRANCH  23  27
ENDBRANCH  17  20
ENDBRANCH   6  16
BRANCH   1  30
ATOM     29  C   UNL     1       1.446   2.689  21.483  0.00  0.00    +0.000 C 
ATOM     30  O   UNL     1       2.347   3.801  21.484  0.00  0.00    +0.000 OA
ENDBRANCH   1  30
TORSDOF 5
ENDMDL
MODEL 2
REMARK VINA RESULT:      -8.1      1.090      1.445
REMARK  Name = 
REMARK  6 active torsions:
REMARK  status: ('A' for Active; 'I' for Inactive)
REMARK    1  A    between atoms: C_1  and  O_2
REMARK    2  A    between atoms: O_2  and  C_3
REMARK    3  A    between atoms: C_6  and  C_7
REMARK    4  A    between atoms: C_17  and  N_18
REMARK    5  A    between atoms: C_19  and  C_21
REMARK    6  A    between atoms: C_24  and  C_25
REMARK                            x       y       z     vdW  Elec       q    Type
REMARK                         _______ _______ _______ _____ _____    ______ ____
ROOT
ATOM      1  C   UNL     1       3.203   4.425  19.970  0.00  0.00    +0.000 A 
ATOM      2  C   UNL     1       4.132   3.436  19.605  0.00  0.00    +0.000 A 
ATOM      3  C   UNL     1       4.795   3.494  18.377  0.00  0.00    +0.000 A 
ATOM      4  C   UNL     1       4.580   4.560  17.505  0.00  0.00    +0.000 A 
ATOM      5  C   UNL     1       3.684   5.563  17.897  0.00  0.00    +0.000 A 
ATOM      6  C   UNL     1       2.979   5.515  19.108  0.00  0.00    +0.000 A 
ENDROOT
BRANCH   4   7
ATOM      7  C   UNL     1       5.279   4.602  16.214  0.00  0.00    +0.000 A 
ATOM      8  N   UNL     1       4.927   3.892  15.163  0.00  0.00    +0.000 NA
ATOM      9  C   UNL     1       5.811   4.114  14.120  0.00  0.00    +0.000 A 
ATOM     10  C   UNL     1       5.746   3.521  12.844  0.00  0.00    +0.000 A 
ATOM     11  C   UNL     1       6.739   3.801  11.899  0.00  0.00    +0.000 A 
ATOM     12  C   UNL     1       7.779   4.673  12.205  0.00  0.00    +0.000 A 
ATOM     13  C   UNL     1       7.850   5.294  13.454  0.00  0.00    +0.000 A 
ATOM     14  C   UNL     1       6.856   4.994  14.398  0.00  0.00    +0.000 A 
ATOM     15  S   UNL     1       6.689   5.570  16.003  0.00  0.00    +0.000 S 
ENDBRANCH   4   7
BRANCH   6  16
ATOM     16  N   UNL     1       2.067   6.557  19.465  0.00  0.00    +0.000 N 
ATOM     17  C   UNL     1       2.157   7.869  19.016  0.00  0.00    +0.000 C 
ATOM     18  O   UNL     1       2.928   8.253  18.134  0.00  0.00    +0.000 OA
ATOM     19  H   UNL     1       1.270   6.266  20.026  0.00  0.00    +0.000 HD
BRANCH  17  20
ATOM     20  C   UNL     1       1.259   8.913  19.578  0.00  0.00    +0.000 A 
ATOM     21  C   UNL     1       0.677   9.823  18.670  0.00  0.00    +0.000 A 
ATOM     22  C   UNL     1      -0.185  10.833  19.103  0.00  0.00    +0.000 A 
ATOM     23  C   UNL     1      -0.475  10.955  20.460  0.00  0.00    +0.000 A 
ATOM     24  C   UNL     1       0.113  10.075  21.376  0.00  0.00    +0.000 A 
ATOM     25  C   UNL     1       0.975   9.063  20.931  0.00  0.00    +0.000 A 
ATOM     26  F   UNL     1       1.516   8.244  21.844  0.00  0.00    +0.000 F 
BRANCH  23  27
ATOM     27  C   UNL     1      -1.381  11.976  20.912  0.00  0.00    +0.000 C 
ATOM     28  N   UNL     1      -2.114  12.793  21.280  0.00  0.00    +0.000 NA
ENDBRANCH  23  27
ENDBRANCH  17  20
ENDBRANCH   6  16
BRANCH   1  30
ATOM     29  C   UNL     1       1.457   3.367  21.162  0.00  0.00    +0.000 C 
ATOM     30  O   UNL     1       2.476   4.371  21.138  0.00  0.00    +0.000 OA
ENDBRANCH   1  30
TORSDOF 5
ENDMDL
MODEL 3
REMARK VINA RESULT:      -8.0      4.359     11.158
REMARK  Name = 
REMARK  6 active torsions:
REMARK  status: ('A' for Active; 'I' for Inactive)
REMARK    1  A    between atoms: C_1  and  O_2
REMARK    2  A    between atoms: O_2  and  C_3
REMARK    3  A    between atoms: C_6  and  C_7
REMARK    4  A    between atoms: C_17  and  N_18
REMARK    5  A    between atoms: C_19  and  C_21
REMARK    6  A    between atoms: C_24  and  C_25
REMARK                            x       y       z     vdW  Elec       q    Type
REMARK                         _______ _______ _______ _____ _____    ______ ____
ROOT
ATOM      1  C   UNL     1       0.937  12.735  18.948  0.00  0.00    +0.000 A 
ATOM      2  C   UNL     1       0.113  13.867  19.052  0.00  0.00    +0.000 A 
ATOM      3  C   UNL     1      -1.057  13.835  19.815  0.00  0.00    +0.000 A 
ATOM      4  C   UNL     1      -1.408  12.688  20.525  0.00  0.00    +0.000 A 
ATOM      5  C   UNL     1      -0.558  11.578  20.449  0.00  0.00    +0.000 A 
ATOM      6  C   UNL     1       0.605  11.569  19.666  0.00  0.00    +0.000 A 
ENDROOT
BRANCH   4   7
ATOM      7  C   UNL     1      -2.646  12.668  21.316  0.00  0.00    +0.000 A 
ATOM      8  N   UNL     1      -3.854  12.718  20.795  0.00  0.00    +0.000 NA
ATOM      9  C   UNL     1      -4.806  12.733  21.800  0.00  0.00    +0.000 A 
ATOM     10  C   UNL     1      -6.201  12.787  21.612  0.00  0.00    +0.000 A 
ATOM     11  C   UNL     1      -7.047  12.845  22.725  0.00  0.00    +0.000 A 
ATOM     12  C   UNL     1      -6.522  12.834  24.013  0.00  0.00    +0.000 A 
ATOM     13  C   UNL     1      -5.143  12.754  24.225  0.00  0.00    +0.000 A 
ATOM     14  C   UNL     1      -4.305  12.710  23.100  0.00  0.00    +0.000 A 
ATOM     15  S   UNL     1      -2.594  12.637  23.038  0.00  0.00    +0.000 S 
ENDBRANCH   4   7
BRANCH   6  16
ATOM     16  N   UNL     1       1.441  10.411  19.610  0.00  0.00    +0.000 N 
ATOM     17  C   UNL     1       1.300   9.383  18.685  0.00  0.00    +0.000 C 
ATOM     18  O   UNL     1       0.550   9.422  17.708  0.00  0.00    +0.000 OA
ATOM     19  H   UNL     1       2.226  10.408  20.256  0.00  0.00    +0.000 HD
BRANCH  17  20
ATOM     20  C   UNL     1       2.113   8.145  18.817  0.00  0.00    +0.000 A 
ATOM     21  C   UNL     1       3.003   7.839  17.764  0.00  0.00    +0.000 A 
ATOM     22  C   UNL     1       3.812   6.702  17.802  0.00  0.00    +0.000 A 
ATOM     23  C   UNL     1       3.740   5.842  18.895  0.00  0.00    +0.000 A 
ATOM     24  C   UNL     1       2.845   6.118  19.936  0.00  0.00    +0.000 A 
ATOM     25  C   UNL     1       2.038   7.263  19.890  0.00  0.00    +0.000 A 
ATOM     26  F   UNL     1       1.196   7.486  20.909  0.00  0.00    +0.000 F 
BRANCH  23  27
ATOM     27  C   UNL     1       4.588   4.682  18.953  0.00  0.00    +0.000 C 
ATOM     28  N   UNL     1       5.277   3.753  19.002  0.00  0.00    +0.000 NA
ENDBRANCH  23  27
ENDBRANCH  17  20
ENDBRANCH   6  16
BRANCH   1  30
ATOM     29  C   UNL     1       2.990  13.762  18.385  0.00  0.00    +0.000 C 
ATOM     30  O   UNL     1       2.060  12.699  18.153  0.00  0.00    +0.000 OA
ENDBRANCH   1  30
TORSDOF 5
ENDMDL
MODEL 4
REMARK VINA RESULT:      -7.9      3.644      5.405
REMARK  Name = 
REMARK  6 active torsions:
REMARK  status: ('A' for Active; 'I' for Inactive)
REMARK    1  A    between atoms: C_1  and  O_2
REMARK    2  A    between atoms: O_2  and  C_3
REMARK    3  A    between atoms: C_6  and  C_7
REMARK    4  A    between atoms: C_17  and  N_18
REMARK    5  A    between atoms: C_19  and  C_21
REMARK    6  A    between atoms: C_24  and  C_25
REMARK                            x       y       z     vdW  Elec       q    Type
REMARK                         _______ _______ _______ _____ _____    ______ ____
ROOT
ATOM      1  C   UNL     1       0.300   9.351  21.081  0.00  0.00    +0.000 A 
ATOM      2  C   UNL     1       0.661   8.044  21.449  0.00  0.00    +0.000 A 
ATOM      3  C   UNL     1       1.483   7.268  20.627  0.00  0.00    +0.000 A 
ATOM      4  C   UNL     1       1.998   7.793  19.443  0.00  0.00    +0.000 A 
ATOM      5  C   UNL     1       1.667   9.112  19.106  0.00  0.00    +0.000 A 
ATOM      6  C   UNL     1       0.818   9.902  19.893  0.00  0.00    +0.000 A 
ENDROOT
BRANCH   4   7
ATOM      7  C   UNL     1       2.854   6.963  18.586  0.00  0.00    +0.000 A 
ATOM      8  N   UNL     1       3.646   7.443  17.650  0.00  0.00    +0.000 NA
ATOM      9  C   UNL     1       4.281   6.407  16.986  0.00  0.00    +0.000 A 
ATOM     10  C   UNL     1       5.196   6.547  15.924  0.00  0.00    +0.000 A 
ATOM     11  C   UNL     1       5.725   5.406  15.311  0.00  0.00    +0.000 A 
ATOM     12  C   UNL     1       5.368   4.136  15.753  0.00  0.00    +0.000 A 
ATOM     13  C   UNL     1       4.482   3.972  16.822  0.00  0.00    +0.000 A 
ATOM     14  C   UNL     1       3.947   5.125  17.419  0.00  0.00    +0.000 A 
ATOM     15  S   UNL     1       2.832   5.245  18.714  0.00  0.00    +0.000 S 
ENDBRANCH   4   7
BRANCH   6  16
ATOM     16  N   UNL     1       0.499  11.242  19.508  0.00  0.00    +0.000 N 
ATOM     17  C   UNL     1       0.965  12.379  20.157  0.00  0.00    +0.000 C 
ATOM     18  O   UNL     1       1.832  12.376  21.033  0.00  0.00    +0.000 OA
ATOM     19  H   UNL     1      -0.046  11.332  18.654  0.00  0.00    +0.000 HD
BRANCH  17  20
ATOM     20  C   UNL     1       0.441  13.719  19.782  0.00  0.00    +0.000 A 
ATOM     21  C   UNL     1      -0.748  14.149  20.409  0.00  0.00    +0.000 A 
ATOM     22  C   UNL     1      -1.311  15.395  20.126  0.00  0.00    +0.000 A 
ATOM     23  C   UNL     1      -0.696  16.234  19.201  0.00  0.00    +0.000 A 
ATOM     24  C   UNL     1       0.471  15.813  18.552  0.00  0.00    +0.000 A 
ATOM     25  C   UNL     1       1.030  14.561  18.844  0.00  0.00    +0.000 A 
ATOM     26  F   UNL     1       2.148  14.199  18.198  0.00  0.00    +0.000 F 
BRANCH  23  27
ATOM     27  C   UNL     1      -1.256  17.529  18.922  0.00  0.00    +0.000 C 
ATOM     28  N   UNL     1      -1.713  18.570  18.704  0.00  0.00    +0.000 NA
ENDBRANCH  23  27
ENDBRANCH  17  20
ENDBRANCH   6  16
BRANCH   1  30
ATOM     29  C   UNL     1      -0.442   9.959  23.241  0.00  0.00    +0.000 C 
ATOM     30  O   UNL     1      -0.562  10.124  21.825  0.00  0.00    +0.000 OA
ENDBRANCH   1  30
TORSDOF 5
ENDMDL
MODEL 5
REMARK VINA RESULT:      -7.9      4.201      6.612
REMARK  Name = 
REMARK  6 active torsions:
REMARK  status: ('A' for Active; 'I' for Inactive)
REMARK    1  A    between atoms: C_1  and  O_2
REMARK    2  A    between atoms: O_2  and  C_3
REMARK    3  A    between atoms: C_6  and  C_7
REMARK    4  A    between atoms: C_17  and  N_18
REMARK    5  A    between atoms: C_19  and  C_21
REMARK    6  A    between atoms: C_24  and  C_25
REMARK                            x       y       z     vdW  Elec       q    Type
REMARK                         _______ _______ _______ _____ _____    ______ ____
ROOT
ATOM      1  C   UNL     1       1.355  10.959  18.710  0.00  0.00    +0.000 A 
ATOM      2  C   UNL     1       2.080  10.179  17.795  0.00  0.00    +0.000 A 
ATOM      3  C   UNL     1       2.385   8.845  18.073  0.00  0.00    +0.000 A 
ATOM      4  C   UNL     1       1.937   8.246  19.249  0.00  0.00    +0.000 A 
ATOM      5  C   UNL     1       1.178   9.020  20.136  0.00  0.00    +0.000 A 
ATOM      6  C   UNL     1       0.885  10.371  19.900  0.00  0.00    +0.000 A 
ENDROOT
BRANCH   4   7
ATOM      7  C   UNL     1       2.272   6.844  19.531  0.00  0.00    +0.000 A 
ATOM      8  N   UNL     1       1.742   6.143  20.511  0.00  0.00    +0.000 NA
ATOM      9  C   UNL     1       2.299   4.876  20.545  0.00  0.00    +0.000 A 
ATOM     10  C   UNL     1       1.975   3.857  21.463  0.00  0.00    +0.000 A 
ATOM     11  C   UNL     1       2.655   2.636  21.411  0.00  0.00    +0.000 A 
ATOM     12  C   UNL     1       3.636   2.414  20.450  0.00  0.00    +0.000 A 
ATOM     13  C   UNL     1       3.956   3.399  19.512  0.00  0.00    +0.000 A 
ATOM     14  C   UNL     1       3.277   4.625  19.584  0.00  0.00    +0.000 A 
ATOM     15  S   UNL     1       3.465   6.017  18.603  0.00  0.00    +0.000 S 
ENDBRANCH   4   7
BRANCH   6  16
ATOM     16  N   UNL     1       0.113  11.127  20.837  0.00  0.00    +0.000 N 
ATOM     17  C   UNL     1      -1.190  11.557  20.616  0.00  0.00    +0.000 C 
ATOM     18  O   UNL     1      -1.889  11.203  19.665  0.00  0.00    +0.000 OA
ATOM     19  H   UNL     1       0.551  11.277  21.742  0.00  0.00    +0.000 HD
BRANCH  17  20
ATOM     20  C   UNL     1      -1.844  12.479  21.582  0.00  0.00    +0.000 A 
ATOM     21  C   UNL     1      -2.137  13.785  21.135  0.00  0.00    +0.000 A 
ATOM     22  C   UNL     1      -2.757  14.718  21.968  0.00  0.00    +0.000 A 
ATOM     23  C   UNL     1      -3.090  14.362  23.272  0.00  0.00    +0.000 A 
ATOM     24  C   UNL     1      -2.785  13.078  23.739  0.00  0.00    +0.000 A 
ATOM     25  C   UNL     1      -2.164  12.148  22.895  0.00  0.00    +0.000 A 
ATOM     26  F   UNL     1      -1.890  10.930  23.385  0.00  0.00    +0.000 F 
BRANCH  23  27
ATOM     27  C   UNL     1      -3.751  15.310  24.129  0.00  0.00    +0.000 C 
ATOM     28  N   UNL     1      -4.275  16.075  24.821  0.00  0.00    +0.000 NA
ENDBRANCH  23  27
ENDBRANCH  17  20
ENDBRANCH   6  16
BRANCH   1  30
ATOM     29  C   UNL     1       2.239  13.087  18.183  0.00  0.00    +0.000 C 
ATOM     30  O   UNL     1       1.092  12.295  18.509  0.00  0.00    +0.000 OA
ENDBRANCH   1  30
TORSDOF 5
ENDMDL
MODEL 6
REMARK VINA RESULT:      -7.8      4.350     10.865
REMARK  Name = 
REMARK  6 active torsions:
REMARK  status: ('A' for Active; 'I' for Inactive)
REMARK    1  A    between atoms: C_1  and  O_2
REMARK    2  A    between atoms: O_2  and  C_3
REMARK    3  A    between atoms: C_6  and  C_7
REMARK    4  A    between atoms: C_17  and  N_18
REMARK    5  A    between atoms: C_19  and  C_21
REMARK    6  A    between atoms: C_24  and  C_25
REMARK                            x       y       z     vdW  Elec       q    Type
REMARK                         _______ _______ _______ _____ _____    ______ ____
ROOT
ATOM      1  C   UNL     1       1.139  12.490  18.953  0.00  0.00    +0.000 A 
ATOM      2  C   UNL     1       0.354  13.652  18.871  0.00  0.00    +0.000 A 
ATOM      3  C   UNL     1      -1.009  13.621  19.178  0.00  0.00    +0.000 A 
ATOM      4  C   UNL     1      -1.609  12.441  19.616  0.00  0.00    +0.000 A 
ATOM      5  C   UNL     1      -0.808  11.298  19.735  0.00  0.00    +0.000 A 
ATOM      6  C   UNL     1       0.553  11.291  19.402  0.00  0.00    +0.000 A 
ENDROOT
BRANCH   4   7
ATOM      7  C   UNL     1      -3.044  12.422  19.928  0.00  0.00    +0.000 A 
ATOM      8  N   UNL     1      -3.548  12.761  21.097  0.00  0.00    +0.000 NA
ATOM      9  C   UNL     1      -4.921  12.589  21.091  0.00  0.00    +0.000 A 
ATOM     10  C   UNL     1      -5.789  12.848  22.170  0.00  0.00    +0.000 A 
ATOM     11  C   UNL     1      -7.156  12.582  22.038  0.00  0.00    +0.000 A 
ATOM     12  C   UNL     1      -7.667  12.079  20.845  0.00  0.00    +0.000 A 
ATOM     13  C   UNL     1      -6.830  11.839  19.752  0.00  0.00    +0.000 A 
ATOM     14  C   UNL     1      -5.458  12.097  19.902  0.00  0.00    +0.000 A 
ATOM     15  S   UNL     1      -4.194  11.880  18.766  0.00  0.00    +0.000 S 
ENDBRANCH   4   7
BRANCH   6  16
ATOM     16  N   UNL     1       1.332  10.099  19.531  0.00  0.00    +0.000 N 
ATOM     17  C   UNL     1       1.612   9.225  18.487  0.00  0.00    +0.000 C 
ATOM     18  O   UNL     1       1.365   9.454  17.301  0.00  0.00    +0.000 OA
ATOM     19  H   UNL     1       1.756   9.951  20.444  0.00  0.00    +0.000 HD
BRANCH  17  20
ATOM     20  C   UNL     1       2.288   7.929  18.760  0.00  0.00    +0.000 A 
ATOM     21  C   UNL     1       3.215   7.468  17.800  0.00  0.00    +0.000 A 
ATOM     22  C   UNL     1       3.905   6.266  17.973  0.00  0.00    +0.000 A 
ATOM     23  C   UNL     1       3.672   5.496  19.110  0.00  0.00    +0.000 A 
ATOM     24  C   UNL     1       2.737   5.928  20.059  0.00  0.00    +0.000 A 
ATOM     25  C   UNL     1       2.052   7.137  19.878  0.00  0.00    +0.000 A 
ATOM     26  F   UNL     1       1.166   7.510  20.813  0.00  0.00    +0.000 F 
BRANCH  23  27
ATOM     27  C   UNL     1       4.396   4.269  19.307  0.00  0.00    +0.000 C 
ATOM     28  N   UNL     1       4.978   3.283  19.475  0.00  0.00    +0.000 NA
ENDBRANCH  23  27
ENDBRANCH  17  20
ENDBRANCH   6  16
BRANCH   1  30
ATOM     29  C   UNL     1       3.078  13.746  18.455  0.00  0.00    +0.000 C 
ATOM     30  O   UNL     1       2.467  12.460  18.594  0.00  0.00    +0.000 OA
ENDBRANCH   1  30
TORSDOF 5
ENDMDL
MODEL 7
REMARK VINA RESULT:      -7.8      3.749      5.430
REMARK  Name = 
REMARK  6 active torsions:
REMARK  status: ('A' for Active; 'I' for Inactive)
REMARK    1  A    between atoms: C_1  and  O_2
REMARK    2  A    between atoms: O_2  and  C_3
REMARK    3  A    between atoms: C_6  and  C_7
REMARK    4  A    between atoms: C_17  and  N_18
REMARK    5  A    between atoms: C_19  and  C_21
REMARK    6  A    between atoms: C_24  and  C_25
REMARK                            x       y       z     vdW  Elec       q    Type
REMARK                         _______ _______ _______ _____ _____    ______ ____
ROOT
ATOM      1  C   UNL     1       0.438   9.360  20.958  0.00  0.00    +0.000 A 
ATOM      2  C   UNL     1       0.777   8.052  21.342  0.00  0.00    +0.000 A 
ATOM      3  C   UNL     1       1.593   7.255  20.535  0.00  0.00    +0.000 A 
ATOM      4  C   UNL     1       2.125   7.760  19.350  0.00  0.00    +0.000 A 
ATOM      5  C   UNL     1       1.816   9.079  18.996  0.00  0.00    +0.000 A 
ATOM      6  C   UNL     1       0.973   9.891  19.768  0.00  0.00    +0.000 A 
ENDROOT
BRANCH   4   7
ATOM      7  C   UNL     1       2.976   6.908  18.508  0.00  0.00    +0.000 A 
ATOM      8  N   UNL     1       3.713   7.356  17.514  0.00  0.00    +0.000 NA
ATOM      9  C   UNL     1       4.357   6.304  16.886  0.00  0.00    +0.000 A 
ATOM     10  C   UNL     1       5.225   6.410  15.781  0.00  0.00    +0.000 A 
ATOM     11  C   UNL     1       5.769   5.252  15.215  0.00  0.00    +0.000 A 
ATOM     12  C   UNL     1       5.473   4.000  15.745  0.00  0.00    +0.000 A 
ATOM     13  C   UNL     1       4.636   3.872  16.856  0.00  0.00    +0.000 A 
ATOM     14  C   UNL     1       4.086   5.040  17.406  0.00  0.00    +0.000 A 
ATOM     15  S   UNL     1       3.017   5.201  18.736  0.00  0.00    +0.000 S 
ENDBRANCH   4   7
BRANCH   6  16
ATOM     16  N   UNL     1       0.676  11.231  19.366  0.00  0.00    +0.000 N 
ATOM     17  C   UNL     1       1.111  12.367  20.037  0.00  0.00    +0.000 C 
ATOM     18  O   UNL     1       1.933  12.363  20.956  0.00  0.00    +0.000 OA
ATOM     19  H   UNL     1       0.176  11.321  18.485  0.00  0.00    +0.000 HD
BRANCH  17  20
ATOM     20  C   UNL     1       0.610  13.708  19.635  0.00  0.00    +0.000 A 
ATOM     21  C   UNL     1       1.509  14.559  18.956  0.00  0.00    +0.000 A 
ATOM     22  C   UNL     1       1.127  15.833  18.533  0.00  0.00    +0.000 A 
ATOM     23  C   UNL     1      -0.166  16.285  18.789  0.00  0.00    +0.000 A 
ATOM     24  C   UNL     1      -1.062  15.463  19.482  0.00  0.00    +0.000 A 
ATOM     25  C   UNL     1      -0.670  14.184  19.901  0.00  0.00    +0.000 A 
ATOM     26  F   UNL     1      -1.561  13.432  20.562  0.00  0.00    +0.000 F 
BRANCH  23  27
ATOM     27  C   UNL     1      -0.575  17.586  18.335  0.00  0.00    +0.000 C 
ATOM     28  N   UNL     1      -0.912  18.631  17.967  0.00  0.00    +0.000 NA
ENDBRANCH  23  27
ENDBRANCH  17  20
ENDBRANCH   6  16
BRANCH   1  30
ATOM     29  C   UNL     1      -0.429   9.887  23.092  0.00  0.00    +0.000 C 
ATOM     30  O   UNL     1      -0.418  10.154  21.686  0.00  0.00    +0.000 OA
ENDBRANCH   1  30
TORSDOF 5
ENDMDL
MODEL 8
REMARK VINA RESULT:      -7.8      4.526     11.378
REMARK  Name = 
REMARK  6 active torsions:
REMARK  status: ('A' for Active; 'I' for Inactive)
REMARK    1  A    between atoms: C_1  and  O_2
REMARK    2  A    between atoms: O_2  and  C_3
REMARK    3  A    between atoms: C_6  and  C_7
REMARK    4  A    between atoms: C_17  and  N_18
REMARK    5  A    between atoms: C_19  and  C_21
REMARK    6  A    between atoms: C_24  and  C_25
REMARK                            x       y       z     vdW  Elec       q    Type
REMARK                         _______ _______ _______ _____ _____    ______ ____
ROOT
ATOM      1  C   UNL     1       0.706  13.208  19.448  0.00  0.00    +0.000 A 
ATOM      2  C   UNL     1      -0.108  14.346  19.576  0.00  0.00    +0.000 A 
ATOM      3  C   UNL     1      -1.389  14.253  20.126  0.00  0.00    +0.000 A 
ATOM      4  C   UNL     1      -1.869  13.034  20.600  0.00  0.00    +0.000 A 
ATOM      5  C   UNL     1      -1.034  11.914  20.507  0.00  0.00    +0.000 A 
ATOM      6  C   UNL     1       0.243  11.969  19.930  0.00  0.00    +0.000 A 
ENDROOT
BRANCH   4   7
ATOM      7  C   UNL     1      -3.221  12.951  21.169  0.00  0.00    +0.000 A 
ATOM      8  N   UNL     1      -3.485  13.044  22.455  0.00  0.00    +0.000 NA
ATOM      9  C   UNL     1      -4.842  12.877  22.676  0.00  0.00    +0.000 A 
ATOM     10  C   UNL     1      -5.483  12.911  23.930  0.00  0.00    +0.000 A 
ATOM     11  C   UNL     1      -6.860  12.676  24.010  0.00  0.00    +0.000 A 
ATOM     12  C   UNL     1      -7.602  12.426  22.860  0.00  0.00    +0.000 A 
ATOM     13  C   UNL     1      -6.993  12.414  21.602  0.00  0.00    +0.000 A 
ATOM     14  C   UNL     1      -5.609  12.637  21.537  0.00  0.00    +0.000 A 
ATOM     15  S   UNL     1      -4.587  12.656  20.162  0.00  0.00    +0.000 S 
ENDBRANCH   4   7
BRANCH   6  16
ATOM     16  N   UNL     1       1.061  10.799  19.848  0.00  0.00    +0.000 N 
ATOM     17  C   UNL     1       0.909   9.799  18.894  0.00  0.00    +0.000 C 
ATOM     18  O   UNL     1       0.165   9.877  17.914  0.00  0.00    +0.000 OA
ATOM     19  H   UNL     1       1.841  10.765  20.498  0.00  0.00    +0.000 HD
BRANCH  17  20
ATOM     20  C   UNL     1       1.700   8.544  18.997  0.00  0.00    +0.000 A 
ATOM     21  C   UNL     1       2.511   8.198  17.895  0.00  0.00    +0.000 A 
ATOM     22  C   UNL     1       3.296   7.043  17.902  0.00  0.00    +0.000 A 
ATOM     23  C   UNL     1       3.277   6.205  19.014  0.00  0.00    +0.000 A 
ATOM     24  C   UNL     1       2.459   6.522  20.106  0.00  0.00    +0.000 A 
ATOM     25  C   UNL     1       1.677   7.684  20.090  0.00  0.00    +0.000 A 
ATOM     26  F   UNL     1       0.909   7.947  21.157  0.00  0.00    +0.000 F 
BRANCH  23  27
ATOM     27  C   UNL     1       4.100   5.026  19.040  0.00  0.00    +0.000 C 
ATOM     28  N   UNL     1       4.770   4.083  19.061  0.00  0.00    +0.000 NA
ENDBRANCH  23  27
ENDBRANCH  17  20
ENDBRANCH   6  16
BRANCH   1  30
ATOM     29  C   UNL     1       2.940  13.971  19.574  0.00  0.00    +0.000 C 
ATOM     30  O   UNL     1       1.945  13.241  18.849  0.00  0.00    +0.000 OA
ENDBRANCH   1  30
TORSDOF 5
ENDMDL
MODEL 9
REMARK VINA RESULT:      -7.7      4.211      7.318
REMARK  Name = 
REMARK  6 active torsions:
REMARK  status: ('A' for Active; 'I' for Inactive)
REMARK    1  A    between atoms: C_1  and  O_2
REMARK    2  A    between atoms: O_2  and  C_3
REMARK    3  A    between atoms: C_6  and  C_7
REMARK    4  A    between atoms: C_17  and  N_18
REMARK    5  A    between atoms: C_19  and  C_21
REMARK    6  A    between atoms: C_24  and  C_25
REMARK                            x       y       z     vdW  Elec       q    Type
REMARK                         _______ _______ _______ _____ _____    ______ ____
ROOT
ATOM      1  C   UNL     1       0.326  12.416  18.895  0.00  0.00    +0.000 A 
ATOM      2  C   UNL     1       1.517  11.992  18.283  0.00  0.00    +0.000 A 
ATOM      3  C   UNL     1       1.967  10.677  18.422  0.00  0.00    +0.000 A 
ATOM      4  C   UNL     1       1.215   9.744  19.136  0.00  0.00    +0.000 A 
ATOM      5  C   UNL     1       0.008  10.165  19.706  0.00  0.00    +0.000 A 
ATOM      6  C   UNL     1      -0.452  11.487  19.612  0.00  0.00    +0.000 A 
ENDROOT
BRANCH   4   7
ATOM      7  C   UNL     1       1.705   8.366  19.279  0.00  0.00    +0.000 A 
ATOM      8  N   UNL     1       2.292   7.690  18.314  0.00  0.00    +0.000 NA
ATOM      9  C   UNL     1       2.590   6.408  18.744  0.00  0.00    +0.000 A 
ATOM     10  C   UNL     1       3.216   5.406  17.977  0.00  0.00    +0.000 A 
ATOM     11  C   UNL     1       3.412   4.134  18.526  0.00  0.00    +0.000 A 
ATOM     12  C   UNL     1       3.007   3.857  19.828  0.00  0.00    +0.000 A 
ATOM     13  C   UNL     1       2.407   4.842  20.617  0.00  0.00    +0.000 A 
ATOM     14  C   UNL     1       2.204   6.110  20.050  0.00  0.00    +0.000 A 
ATOM     15  S   UNL     1       1.480   7.496  20.749  0.00  0.00    +0.000 S 
ENDBRANCH   4   7
BRANCH   6  16
ATOM     16  N   UNL     1      -1.688  11.877  20.217  0.00  0.00    +0.000 N 
ATOM     17  C   UNL     1      -1.813  12.342  21.520  0.00  0.00    +0.000 C 
ATOM     18  O   UNL     1      -0.864  12.629  22.253  0.00  0.00    +0.000 OA
ATOM     19  H   UNL     1      -2.495  11.872  19.600  0.00  0.00    +0.000 HD
BRANCH  17  20
ATOM     20  C   UNL     1      -3.161  12.562  22.107  0.00  0.00    +0.000 A 
ATOM     21  C   UNL     1      -3.287  12.438  23.507  0.00  0.00    +0.000 A 
ATOM     22  C   UNL     1      -4.511  12.633  24.149  0.00  0.00    +0.000 A 
ATOM     23  C   UNL     1      -5.640  12.951  23.397  0.00  0.00    +0.000 A 
ATOM     24  C   UNL     1      -5.537  13.053  22.004  0.00  0.00    +0.000 A 
ATOM     25  C   UNL     1      -4.303  12.857  21.369  0.00  0.00    +0.000 A 
ATOM     26  F   UNL     1      -4.253  12.965  20.034  0.00  0.00    +0.000 F 
BRANCH  23  27
ATOM     27  C   UNL     1      -6.899  13.178  24.052  0.00  0.00    +0.000 C 
ATOM     28  N   UNL     1      -7.917  13.353  24.576  0.00  0.00    +0.000 NA
ENDBRANCH  23  27
ENDBRANCH  17  20
ENDBRANCH   6  16
BRANCH   1  30
ATOM     29  C   UNL     1       0.812  14.686  19.339  0.00  0.00    +0.000 C 
ATOM     30  O   UNL     1      -0.117  13.718  18.843  0.00  0.00    +0.000 OA
ENDBRANCH   1  30
TORSDOF 5
ENDMDL
