MODEL 1
REMARK VINA RESULT:      -7.0      0.000      0.000
REMARK  Name = 
REMARK  8 active torsions:
REMARK  status: ('A' for Active; 'I' for Inactive)
REMARK    1  A    between atoms: C_1  and  N_2
REMARK    2  A    between atoms: N_2  and  C_3
REMARK    3  A    between atoms: N_2  and  C_10
REMARK    4  A    between atoms: C_3  and  C_4
REMARK    5  A    between atoms: C_10  and  C_11
REMARK    6  A    between atoms: C_11  and  O_12
REMARK    7  A    between atoms: C_11  and  C_13
REMARK    8  A    between atoms: C_13  and  N_14
REMARK                            x       y       z     vdW  Elec       q    Type
REMARK                         _______ _______ _______ _____ _____    ______ ____
ROOT
ATOM      1  C   UNL     1       2.164   2.430  18.944  0.00  0.00    +0.000 C 
ENDROOT
BRANCH   1   2
ATOM      2  O   UNL     1       1.201   1.443  18.556  0.00  0.00    +0.000 OA
ATOM      3  H   UNL     1       0.801   1.048  19.356  0.00  0.00    +0.000 HD
ENDBRANCH   1   2
BRANCH   1   4
ATOM      4  C   UNL     1       1.539   3.852  18.941  0.00  0.00    +0.000 C 
BRANCH   4   6
ATOM      5  C   UNL     1       1.666   3.621  21.326  0.00  0.00    +0.000 C 
ATOM      6  N   UNL     1       1.491   4.594  20.237  0.00  0.00    +0.000 NA
BRANCH   6   7
ATOM      7  C   UNL     1       2.539   5.641  20.277  0.00  0.00    +0.000 C 
BRANCH   7   8
ATOM      8  C   UNL     1       2.204   7.017  19.732  0.00  0.00    +0.000 A 
ATOM      9  C   UNL     1       2.440   7.276  18.369  0.00  0.00    +0.000 A 
ATOM     10  C   UNL     1       2.037   8.479  17.789  0.00  0.00    +0.000 A 
ATOM     11  C   UNL     1       1.388   9.438  18.559  0.00  0.00    +0.000 A 
ATOM     12  C   UNL     1       1.137   9.193  19.908  0.00  0.00    +0.000 A 
ATOM     13  C   UNL     1       1.531   7.984  20.490  0.00  0.00    +0.000 A 
ENDBRANCH   7   8
ENDBRANCH   6   7
ENDBRANCH   4   6
ENDBRANCH   1   4
BRANCH   1  14
ATOM     14  C   UNL     1       3.367   2.365  17.971  0.00  0.00    +0.000 C 
BRANCH  14  15
ATOM     15  N   UNL     1       4.314   3.453  18.211  0.00  0.00    +0.000 N 
ATOM     16  C   UNL     1       4.968   3.544  19.429  0.00  0.00    +0.000 A 
ATOM     17  N   UNL     1       5.919   4.362  19.753  0.00  0.00    +0.000 NA
ATOM     18  C   UNL     1       6.324   5.192  18.703  0.00  0.00    +0.000 A 
ATOM     19  C   UNL     1       7.403   6.101  18.791  0.00  0.00    +0.000 A 
ATOM     20  C   UNL     1       7.607   6.745  17.586  0.00  0.00    +0.000 A 
ATOM     21  S   UNL     1       6.466   6.258  16.391  0.00  0.00    +0.000 S 
ATOM     22  C   UNL     1       5.735   5.174  17.470  0.00  0.00    +0.000 A 
ATOM     23  C   UNL     1       4.646   4.298  17.148  0.00  0.00    +0.000 A 
ATOM     24  O   UNL     1       4.063   4.254  16.064  0.00  0.00    +0.000 OA
ENDBRANCH  14  15
ENDBRANCH   1  14
TORSDOF 7
ENDMDL
MODEL 2
REMARK VINA RESULT:      -7.0      2.771      5.841
REMARK  Name = 
REMARK  8 active torsions:
REMARK  status: ('A' for Active; 'I' for Inactive)
REMARK    1  A    between atoms: C_1  and  N_2
REMARK    2  A    between atoms: N_2  and  C_3
REMARK    3  A    between atoms: N_2  and  C_10
REMARK    4  A    between atoms: C_3  and  C_4
REMARK    5  A    between atoms: C_10  and  C_11
REMARK    6  A    between atoms: C_11  and  O_12
REMARK    7  A    between atoms: C_11  and  C_13
REMARK    8  A    between atoms: C_13  and  N_14
REMARK                            x       y       z     vdW  Elec       q    Type
REMARK                         _______ _______ _______ _____ _____    ______ ____
ROOT
ATOM      1  C   UNL     1       4.899   6.394  18.095  0.00  0.00    +0.000 C 
ENDROOT
BRANCH   1   2
ATOM      2  O   UNL     1       5.858   7.096  17.295  0.00  0.00    +0.000 OA
ATOM      3  H   UNL     1       5.393   7.736  16.719  0.00  0.00    +0.000 HD
ENDBRANCH   1   2
BRANCH   1   4
ATOM      4  C   UNL     1       5.189   4.868  18.105  0.00  0.00    +0.000 C 
BRANCH   4   6
ATOM      5  C   UNL     1       5.296   3.783  15.968  0.00  0.00    +0.000 C 
ATOM      6  N   UNL     1       4.438   4.011  17.140  0.00  0.00    +0.000 NA
BRANCH   6   7
ATOM      7  C   UNL     1       4.045   2.731  17.778  0.00  0.00    +0.000 C 
BRANCH   7   8
ATOM      8  C   UNL     1       3.011   2.766  18.887  0.00  0.00    +0.000 A 
ATOM      9  C   UNL     1       3.449   2.647  20.218  0.00  0.00    +0.000 A 
ATOM     10  C   UNL     1       2.558   2.796  21.282  0.00  0.00    +0.000 A 
ATOM     11  C   UNL     1       1.218   3.072  21.032  0.00  0.00    +0.000 A 
ATOM     12  C   UNL     1       0.769   3.204  19.718  0.00  0.00    +0.000 A 
ATOM     13  C   UNL     1       1.662   3.064  18.651  0.00  0.00    +0.000 A 
ENDBRANCH   7   8
ENDBRANCH   6   7
ENDBRANCH   4   6
ENDBRANCH   1   4
BRANCH   1  14
ATOM     14  C   UNL     1       3.481   6.673  17.539  0.00  0.00    +0.000 C 
BRANCH  14  15
ATOM     15  N   UNL     1       2.595   7.217  18.568  0.00  0.00    +0.000 N 
ATOM     16  C   UNL     1       2.405   6.524  19.753  0.00  0.00    +0.000 A 
ATOM     17  N   UNL     1       1.762   6.923  20.803  0.00  0.00    +0.000 NA
ATOM     18  C   UNL     1       1.264   8.226  20.693  0.00  0.00    +0.000 A 
ATOM     19  C   UNL     1       0.609   8.908  21.743  0.00  0.00    +0.000 A 
ATOM     20  C   UNL     1       0.277  10.195  21.365  0.00  0.00    +0.000 A 
ATOM     21  S   UNL     1       0.736  10.531  19.740  0.00  0.00    +0.000 S 
ATOM     22  C   UNL     1       1.401   8.981  19.562  0.00  0.00    +0.000 A 
ATOM     23  C   UNL     1       2.070   8.500  18.389  0.00  0.00    +0.000 A 
ATOM     24  O   UNL     1       2.203   9.126  17.336  0.00  0.00    +0.000 OA
ENDBRANCH  14  15
ENDBRANCH   1  14
TORSDOF 7
ENDMDL
MODEL 3
REMARK VINA RESULT:      -6.9      1.493      1.764
REMARK  Name = 
REMARK  8 active torsions:
REMARK  status: ('A' for Active; 'I' for Inactive)
REMARK    1  A    between atoms: C_1  and  N_2
REMARK    2  A    between atoms: N_2  and  C_3
REMARK    3  A    between atoms: N_2  and  C_10
REMARK    4  A    between atoms: C_3  and  C_4
REMARK    5  A    between atoms: C_10  and  C_11
REMARK    6  A    between atoms: C_11  and  O_12
REMARK    7  A    between atoms: C_11  and  C_13
REMARK    8  A    between atoms: C_13  and  N_14
REMARK                            x       y       z     vdW  Elec       q    Type
REMARK                         _______ _______ _______ _____ _____    ______ ____
ROOT
ATOM      1  C   UNL     1       2.873   3.052  18.625  0.00  0.00    +0.000 C 
ENDROOT
BRANCH   1   2
ATOM      2  O   UNL     1       2.496   1.678  18.772  0.00  0.00    +0.000 OA
ATOM      3  H   UNL     1       1.701   1.500  18.232  0.00  0.00    +0.000 HD
ENDBRANCH   1   2
BRANCH   1   4
ATOM      4  C   UNL     1       1.666   3.995  18.885  0.00  0.00    +0.000 C 
BRANCH   4   6
ATOM      5  C   UNL     1       2.117   4.155  21.236  0.00  0.00    +0.000 C 
ATOM      6  N   UNL     1       1.754   4.934  20.043  0.00  0.00    +0.000 NA
BRANCH   6   7
ATOM      7  C   UNL     1       2.746   6.002  19.774  0.00  0.00    +0.000 C 
BRANCH   7   8
ATOM      8  C   UNL     1       2.238   7.397  19.466  0.00  0.00    +0.000 A 
ATOM      9  C   UNL     1       2.354   7.879  18.149  0.00  0.00    +0.000 A 
ATOM     10  C   UNL     1       1.793   9.104  17.782  0.00  0.00    +0.000 A 
ATOM     11  C   UNL     1       1.105   9.861  18.723  0.00  0.00    +0.000 A 
ATOM     12  C   UNL     1       0.971   9.393  20.030  0.00  0.00    +0.000 A 
ATOM     13  C   UNL     1       1.524   8.162  20.397  0.00  0.00    +0.000 A 
ENDBRANCH   7   8
ENDBRANCH   6   7
ENDBRANCH   4   6
ENDBRANCH   1   4
BRANCH   1  14
ATOM     14  C   UNL     1       3.432   3.268  17.197  0.00  0.00    +0.000 C 
BRANCH  14  15
ATOM     15  N   UNL     1       4.575   4.181  17.197  0.00  0.00    +0.000 N 
ATOM     16  C   UNL     1       4.697   5.135  16.200  0.00  0.00    +0.000 A 
ATOM     17  N   UNL     1       5.569   6.090  16.127  0.00  0.00    +0.000 NA
ATOM     18  C   UNL     1       6.430   6.146  17.228  0.00  0.00    +0.000 A 
ATOM     19  C   UNL     1       7.402   7.155  17.415  0.00  0.00    +0.000 A 
ATOM     20  C   UNL     1       8.066   6.987  18.615  0.00  0.00    +0.000 A 
ATOM     21  S   UNL     1       7.518   5.594  19.467  0.00  0.00    +0.000 S 
ATOM     22  C   UNL     1       6.384   5.246  18.255  0.00  0.00    +0.000 A 
ATOM     23  C   UNL     1       5.446   4.163  18.291  0.00  0.00    +0.000 A 
ATOM     24  O   UNL     1       5.373   3.310  19.177  0.00  0.00    +0.000 OA
ENDBRANCH  14  15
ENDBRANCH   1  14
TORSDOF 7
ENDMDL
MODEL 4
REMARK VINA RESULT:      -6.8      2.241      4.741
REMARK  Name = 
REMARK  8 active torsions:
REMARK  status: ('A' for Active; 'I' for Inactive)
REMARK    1  A    between atoms: C_1  and  N_2
REMARK    2  A    between atoms: N_2  and  C_3
REMARK    3  A    between atoms: N_2  and  C_10
REMARK    4  A    between atoms: C_3  and  C_4
REMARK    5  A    between atoms: C_10  and  C_11
REMARK    6  A    between atoms: C_11  and  O_12
REMARK    7  A    between atoms: C_11  and  C_13
REMARK    8  A    between atoms: C_13  and  N_14
REMARK                            x       y       z     vdW  Elec       q    Type
REMARK                         _______ _______ _______ _____ _____    ______ ____
ROOT
ATOM      1  C   UNL     1       5.711   4.363  16.323  0.00  0.00    +0.000 C 
ENDROOT
BRANCH   1   2
ATOM      2  O   UNL     1       6.623   4.123  15.245  0.00  0.00    +0.000 OA
ATOM      3  H   UNL     1       6.119   3.970  14.421  0.00  0.00    +0.000 HD
ENDBRANCH   1   2
BRANCH   1   4
ATOM      4  C   UNL     1       6.406   5.122  17.486  0.00  0.00    +0.000 C 
BRANCH   4   6
ATOM      5  C   UNL     1       7.046   7.427  17.298  0.00  0.00    +0.000 C 
ATOM      6  N   UNL     1       5.976   6.527  17.755  0.00  0.00    +0.000 NA
BRANCH   6   7
ATOM      7  C   UNL     1       4.696   6.820  17.067  0.00  0.00    +0.000 C 
BRANCH   7   8
ATOM      8  C   UNL     1       3.510   7.256  17.907  0.00  0.00    +0.000 A 
ATOM      9  C   UNL     1       3.222   6.542  19.084  0.00  0.00    +0.000 A 
ATOM     10  C   UNL     1       2.222   6.974  19.957  0.00  0.00    +0.000 A 
ATOM     11  C   UNL     1       1.500   8.126  19.670  0.00  0.00    +0.000 A 
ATOM     12  C   UNL     1       1.780   8.852  18.512  0.00  0.00    +0.000 A 
ATOM     13  C   UNL     1       2.788   8.427  17.641  0.00  0.00    +0.000 A 
ENDBRANCH   7   8
ENDBRANCH   6   7
ENDBRANCH   4   6
ENDBRANCH   1   4
BRANCH   1  14
ATOM     14  C   UNL     1       5.154   3.005  16.818  0.00  0.00    +0.000 C 
BRANCH  14  15
ATOM     15  N   UNL     1       3.999   3.185  17.698  0.00  0.00    +0.000 N 
ATOM     16  C   UNL     1       2.737   3.364  17.154  0.00  0.00    +0.000 A 
ATOM     17  N   UNL     1       1.607   3.410  17.786  0.00  0.00    +0.000 NA
ATOM     18  C   UNL     1       1.728   3.202  19.164  0.00  0.00    +0.000 A 
ATOM     19  C   UNL     1       0.627   3.117  20.045  0.00  0.00    +0.000 A 
ATOM     20  C   UNL     1       1.044   2.853  21.335  0.00  0.00    +0.000 A 
ATOM     21  S   UNL     1       2.760   2.749  21.451  0.00  0.00    +0.000 S 
ATOM     22  C   UNL     1       2.931   3.020  19.786  0.00  0.00    +0.000 A 
ATOM     23  C   UNL     1       4.176   3.028  19.076  0.00  0.00    +0.000 A 
ATOM     24  O   UNL     1       5.290   2.892  19.585  0.00  0.00    +0.000 OA
ENDBRANCH  14  15
ENDBRANCH   1  14
TORSDOF 7
ENDMDL
MODEL 5
REMARK VINA RESULT:      -6.7      2.887      6.186
REMARK  Name = 
REMARK  8 active torsions:
REMARK  status: ('A' for Active; 'I' for Inactive)
REMARK    1  A    between atoms: C_1  and  N_2
REMARK    2  A    between atoms: N_2  and  C_3
REMARK    3  A    between atoms: N_2  and  C_10
REMARK    4  A    between atoms: C_3  and  C_4
REMARK    5  A    between atoms: C_10  and  C_11
REMARK    6  A    between atoms: C_11  and  O_12
REMARK    7  A    between atoms: C_11  and  C_13
REMARK    8  A    between atoms: C_13  and  N_14
REMARK                            x       y       z     vdW  Elec       q    Type
REMARK                         _______ _______ _______ _____ _____    ______ ____
ROOT
ATOM      1  C   UNL     1       4.302   6.611  17.770  0.00  0.00    +0.000 C 
ENDROOT
BRANCH   1   2
ATOM      2  O   UNL     1       4.722   7.120  16.499  0.00  0.00    +0.000 OA
ATOM      3  H   UNL     1       4.262   6.635  15.786  0.00  0.00    +0.000 HD
ENDBRANCH   1   2
BRANCH   1   4
ATOM      4  C   UNL     1       4.840   5.172  18.002  0.00  0.00    +0.000 C 
BRANCH   4   6
ATOM      5  C   UNL     1       5.305   3.804  16.086  0.00  0.00    +0.000 C 
ATOM      6  N   UNL     1       4.308   4.081  17.132  0.00  0.00    +0.000 NA
BRANCH   6   7
ATOM      7  C   UNL     1       4.019   2.868  17.934  0.00  0.00    +0.000 C 
BRANCH   7   8
ATOM      8  C   UNL     1       3.084   2.997  19.122  0.00  0.00    +0.000 A 
ATOM      9  C   UNL     1       1.733   3.309  18.882  0.00  0.00    +0.000 A 
ATOM     10  C   UNL     1       0.804   3.318  19.924  0.00  0.00    +0.000 A 
ATOM     11  C   UNL     1       1.210   3.011  21.218  0.00  0.00    +0.000 A 
ATOM     12  C   UNL     1       2.543   2.689  21.471  0.00  0.00    +0.000 A 
ATOM     13  C   UNL     1       3.473   2.670  20.427  0.00  0.00    +0.000 A 
ENDBRANCH   7   8
ENDBRANCH   6   7
ENDBRANCH   4   6
ENDBRANCH   1   4
BRANCH   1  14
ATOM     14  C   UNL     1       2.754   6.627  17.830  0.00  0.00    +0.000 C 
BRANCH  14  15
ATOM     15  N   UNL     1       2.254   7.810  18.528  0.00  0.00    +0.000 N 
ATOM     16  C   UNL     1       2.069   8.996  17.835  0.00  0.00    +0.000 A 
ATOM     17  N   UNL     1       1.521  10.085  18.271  0.00  0.00    +0.000 NA
ATOM     18  C   UNL     1       1.036   9.982  19.579  0.00  0.00    +0.000 A 
ATOM     19  C   UNL     1       0.320  11.009  20.234  0.00  0.00    +0.000 A 
ATOM     20  C   UNL     1      -0.080  10.607  21.494  0.00  0.00    +0.000 A 
ATOM     21  S   UNL     1       0.451   9.011  21.863  0.00  0.00    +0.000 S 
ATOM     22  C   UNL     1       1.176   8.855  20.338  0.00  0.00    +0.000 A 
ATOM     23  C   UNL     1       1.835   7.677  19.856  0.00  0.00    +0.000 A 
ATOM     24  O   UNL     1       2.010   6.642  20.501  0.00  0.00    +0.000 OA
ENDBRANCH  14  15
ENDBRANCH   1  14
TORSDOF 7
ENDMDL
MODEL 6
REMARK VINA RESULT:      -6.7      2.313      4.596
REMARK  Name = 
REMARK  8 active torsions:
REMARK  status: ('A' for Active; 'I' for Inactive)
REMARK    1  A    between atoms: C_1  and  N_2
REMARK    2  A    between atoms: N_2  and  C_3
REMARK    3  A    between atoms: N_2  and  C_10
REMARK    4  A    between atoms: C_3  and  C_4
REMARK    5  A    between atoms: C_10  and  C_11
REMARK    6  A    between atoms: C_11  and  O_12
REMARK    7  A    between atoms: C_11  and  C_13
REMARK    8  A    between atoms: C_13  and  N_14
REMARK                            x       y       z     vdW  Elec       q    Type
REMARK                         _______ _______ _______ _____ _____    ______ ____
ROOT
ATOM      1  C   UNL     1       5.054   4.455  15.383  0.00  0.00    +0.000 C 
ENDROOT
BRANCH   1   2
ATOM      2  O   UNL     1       5.730   3.903  14.247  0.00  0.00    +0.000 OA
ATOM      3  H   UNL     1       5.148   3.961  13.463  0.00  0.00    +0.000 HD
ENDBRANCH   1   2
BRANCH   1   4
ATOM      4  C   UNL     1       5.616   5.857  15.743  0.00  0.00    +0.000 C 
BRANCH   4   6
ATOM      5  C   UNL     1       6.165   7.444  17.457  0.00  0.00    +0.000 C 
ATOM      6  N   UNL     1       5.135   6.498  17.004  0.00  0.00    +0.000 NA
BRANCH   6   7
ATOM      7  C   UNL     1       3.838   7.180  16.778  0.00  0.00    +0.000 C 
BRANCH   7   8
ATOM      8  C   UNL     1       3.040   7.627  17.988  0.00  0.00    +0.000 A 
ATOM      9  C   UNL     1       2.295   8.817  17.899  0.00  0.00    +0.000 A 
ATOM     10  C   UNL     1       1.446   9.210  18.936  0.00  0.00    +0.000 A 
ATOM     11  C   UNL     1       1.327   8.419  20.073  0.00  0.00    +0.000 A 
ATOM     12  C   UNL     1       2.051   7.231  20.173  0.00  0.00    +0.000 A 
ATOM     13  C   UNL     1       2.894   6.831  19.131  0.00  0.00    +0.000 A 
ENDBRANCH   7   8
ENDBRANCH   6   7
ENDBRANCH   4   6
ENDBRANCH   1   4
BRANCH   1  14
ATOM     14  C   UNL     1       5.212   3.484  16.580  0.00  0.00    +0.000 C 
BRANCH  14  15
ATOM     15  N   UNL     1       4.058   3.540  17.476  0.00  0.00    +0.000 N 
ATOM     16  C   UNL     1       2.778   3.630  16.951  0.00  0.00    +0.000 A 
ATOM     17  N   UNL     1       1.657   3.562  17.595  0.00  0.00    +0.000 NA
ATOM     18  C   UNL     1       1.812   3.323  18.964  0.00  0.00    +0.000 A 
ATOM     19  C   UNL     1       0.732   3.120  19.853  0.00  0.00    +0.000 A 
ATOM     20  C   UNL     1       1.186   2.852  21.130  0.00  0.00    +0.000 A 
ATOM     21  S   UNL     1       2.906   2.888  21.226  0.00  0.00    +0.000 S 
ATOM     22  C   UNL     1       3.033   3.223  19.569  0.00  0.00    +0.000 A 
ATOM     23  C   UNL     1       4.265   3.356  18.846  0.00  0.00    +0.000 A 
ATOM     24  O   UNL     1       5.392   3.298  19.341  0.00  0.00    +0.000 OA
ENDBRANCH  14  15
ENDBRANCH   1  14
TORSDOF 7
ENDMDL
MODEL 7
REMARK VINA RESULT:      -6.7      3.244      6.465
REMARK  Name = 
REMARK  8 active torsions:
REMARK  status: ('A' for Active; 'I' for Inactive)
REMARK    1  A    between atoms: C_1  and  N_2
REMARK    2  A    between atoms: N_2  and  C_3
REMARK    3  A    between atoms: N_2  and  C_10
REMARK    4  A    between atoms: C_3  and  C_4
REMARK    5  A    between atoms: C_10  and  C_11
REMARK    6  A    between atoms: C_11  and  O_12
REMARK    7  A    between atoms: C_11  and  C_13
REMARK    8  A    between atoms: C_13  and  N_14
REMARK                            x       y       z     vdW  Elec       q    Type
REMARK                         _______ _______ _______ _____ _____    ______ ____
ROOT
ATOM      1  C   UNL     1       4.793   6.494  17.351  0.00  0.00    +0.000 C 
ENDROOT
BRANCH   1   2
ATOM      2  O   UNL     1       3.770   7.492  17.447  0.00  0.00    +0.000 OA
ATOM      3  H   UNL     1       3.094   7.203  18.092  0.00  0.00    +0.000 HD
ENDBRANCH   1   2
BRANCH   1   4
ATOM      4  C   UNL     1       5.916   6.935  16.372  0.00  0.00    +0.000 C 
BRANCH   4   6
ATOM      5  C   UNL     1       7.622   6.509  18.005  0.00  0.00    +0.000 C 
ATOM      6  N   UNL     1       7.283   6.370  16.581  0.00  0.00    +0.000 NA
BRANCH   6   7
ATOM      7  C   UNL     1       7.331   4.952  16.151  0.00  0.00    +0.000 C 
BRANCH   7   8
ATOM      8  C   UNL     1       7.189   4.643  14.673  0.00  0.00    +0.000 A 
ATOM      9  C   UNL     1       6.206   3.720  14.271  0.00  0.00    +0.000 A 
ATOM     10  C   UNL     1       5.950   3.491  12.918  0.00  0.00    +0.000 A 
ATOM     11  C   UNL     1       6.667   4.183  11.948  0.00  0.00    +0.000 A 
ATOM     12  C   UNL     1       7.638   5.109  12.330  0.00  0.00    +0.000 A 
ATOM     13  C   UNL     1       7.890   5.347  13.684  0.00  0.00    +0.000 A 
ENDBRANCH   7   8
ENDBRANCH   6   7
ENDBRANCH   4   6
ENDBRANCH   1   4
BRANCH   1  14
ATOM     14  C   UNL     1       4.154   5.165  16.877  0.00  0.00    +0.000 C 
BRANCH  14  15
ATOM     15  N   UNL     1       3.781   4.314  18.007  0.00  0.00    +0.000 N 
ATOM     16  C   UNL     1       4.766   3.730  18.788  0.00  0.00    +0.000 A 
ATOM     17  N   UNL     1       4.607   3.062  19.885  0.00  0.00    +0.000 NA
ATOM     18  C   UNL     1       3.276   2.992  20.310  0.00  0.00    +0.000 A 
ATOM     19  C   UNL     1       2.869   2.395  21.524  0.00  0.00    +0.000 A 
ATOM     20  C   UNL     1       1.505   2.522  21.706  0.00  0.00    +0.000 A 
ATOM     21  S   UNL     1       0.750   3.330  20.385  0.00  0.00    +0.000 S 
ATOM     22  C   UNL     1       2.240   3.534  19.603  0.00  0.00    +0.000 A 
ATOM     23  C   UNL     1       2.431   4.224  18.360  0.00  0.00    +0.000 A 
ATOM     24  O   UNL     1       1.535   4.712  17.670  0.00  0.00    +0.000 OA
ENDBRANCH  14  15
ENDBRANCH   1  14
TORSDOF 7
ENDMDL
MODEL 8
REMARK VINA RESULT:      -6.7      1.522      2.052
REMARK  Name = 
REMARK  8 active torsions:
REMARK  status: ('A' for Active; 'I' for Inactive)
REMARK    1  A    between atoms: C_1  and  N_2
REMARK    2  A    between atoms: N_2  and  C_3
REMARK    3  A    between atoms: N_2  and  C_10
REMARK    4  A    between atoms: C_3  and  C_4
REMARK    5  A    between atoms: C_10  and  C_11
REMARK    6  A    between atoms: C_11  and  O_12
REMARK    7  A    between atoms: C_11  and  C_13
REMARK    8  A    between atoms: C_13  and  N_14
REMARK                            x       y       z     vdW  Elec       q    Type
REMARK                         _______ _______ _______ _____ _____    ______ ____
ROOT
ATOM      1  C   UNL     1       2.921   3.059  18.693  0.00  0.00    +0.000 C 
ENDROOT
BRANCH   1   2
ATOM      2  O   UNL     1       2.571   1.686  18.897  0.00  0.00    +0.000 OA
ATOM      3  H   UNL     1       1.883   1.625  19.590  0.00  0.00    +0.000 HD
ENDBRANCH   1   2
BRANCH   1   4
ATOM      4  C   UNL     1       1.693   3.988  18.902  0.00  0.00    +0.000 C 
BRANCH   4   6
ATOM      5  C   UNL     1       2.248   4.399  21.200  0.00  0.00    +0.000 C 
ATOM      6  N   UNL     1       1.787   5.039  19.959  0.00  0.00    +0.000 NA
BRANCH   6   7
ATOM      7  C   UNL     1       2.709   6.120  19.536  0.00  0.00    +0.000 C 
BRANCH   7   8
ATOM      8  C   UNL     1       2.128   7.492  19.250  0.00  0.00    +0.000 A 
ATOM      9  C   UNL     1       1.415   8.146  20.272  0.00  0.00    +0.000 A 
ATOM     10  C   UNL     1       0.967   9.457  20.106  0.00  0.00    +0.000 A 
ATOM     11  C   UNL     1       1.227  10.135  18.920  0.00  0.00    +0.000 A 
ATOM     12  C   UNL     1       1.941   9.505  17.901  0.00  0.00    +0.000 A 
ATOM     13  C   UNL     1       2.400   8.195  18.069  0.00  0.00    +0.000 A 
ENDBRANCH   7   8
ENDBRANCH   6   7
ENDBRANCH   4   6
ENDBRANCH   1   4
BRANCH   1  14
ATOM     14  C   UNL     1       3.488   3.224  17.261  0.00  0.00    +0.000 C 
BRANCH  14  15
ATOM     15  N   UNL     1       4.615   4.155  17.231  0.00  0.00    +0.000 N 
ATOM     16  C   UNL     1       4.705   5.101  16.223  0.00  0.00    +0.000 A 
ATOM     17  N   UNL     1       5.560   6.069  16.125  0.00  0.00    +0.000 NA
ATOM     18  C   UNL     1       6.440   6.149  17.210  0.00  0.00    +0.000 A 
ATOM     19  C   UNL     1       7.399   7.175  17.368  0.00  0.00    +0.000 A 
ATOM     20  C   UNL     1       8.087   7.029  18.558  0.00  0.00    +0.000 A 
ATOM     21  S   UNL     1       7.578   5.636  19.433  0.00  0.00    +0.000 S 
ATOM     22  C   UNL     1       6.427   5.258  18.246  0.00  0.00    +0.000 A 
ATOM     23  C   UNL     1       5.507   4.161  18.309  0.00  0.00    +0.000 A 
ATOM     24  O   UNL     1       5.464   3.316  19.204  0.00  0.00    +0.000 OA
ENDBRANCH  14  15
ENDBRANCH   1  14
TORSDOF 7
ENDMDL
MODEL 9
REMARK VINA RESULT:      -6.6      2.814      6.110
REMARK  Name = 
REMARK  8 active torsions:
REMARK  status: ('A' for Active; 'I' for Inactive)
REMARK    1  A    between atoms: C_1  and  N_2
REMARK    2  A    between atoms: N_2  and  C_3
REMARK    3  A    between atoms: N_2  and  C_10
REMARK    4  A    between atoms: C_3  and  C_4
REMARK    5  A    between atoms: C_10  and  C_11
REMARK    6  A    between atoms: C_11  and  O_12
REMARK    7  A    between atoms: C_11  and  C_13
REMARK    8  A    between atoms: C_13  and  N_14
REMARK                            x       y       z     vdW  Elec       q    Type
REMARK                         _______ _______ _______ _____ _____    ______ ____
ROOT
ATOM      1  C   UNL     1       4.607   6.291  18.124  0.00  0.00    +0.000 C 
ENDROOT
BRANCH   1   2
ATOM      2  O   UNL     1       5.304   7.163  17.227  0.00  0.00    +0.000 OA
ATOM      3  H   UNL     1       4.687   7.482  16.538  0.00  0.00    +0.000 HD
ENDBRANCH   1   2
BRANCH   1   4
ATOM      4  C   UNL     1       5.102   4.826  17.979  0.00  0.00    +0.000 C 
BRANCH   4   6
ATOM      5  C   UNL     1       5.126   3.642  15.892  0.00  0.00    +0.000 C 
ATOM      6  N   UNL     1       4.321   3.912  17.093  0.00  0.00    +0.000 NA
BRANCH   6   7
ATOM      7  C   UNL     1       3.983   2.658  17.808  0.00  0.00    +0.000 C 
BRANCH   7   8
ATOM      8  C   UNL     1       2.972   2.722  18.936  0.00  0.00    +0.000 A 
ATOM      9  C   UNL     1       3.436   2.630  20.261  0.00  0.00    +0.000 A 
ATOM     10  C   UNL     1       2.566   2.807  21.338  0.00  0.00    +0.000 A 
ATOM     11  C   UNL     1       1.223   3.083  21.108  0.00  0.00    +0.000 A 
ATOM     12  C   UNL     1       0.748   3.187  19.801  0.00  0.00    +0.000 A 
ATOM     13  C   UNL     1       1.620   3.020  18.720  0.00  0.00    +0.000 A 
ENDBRANCH   7   8
ENDBRANCH   6   7
ENDBRANCH   4   6
ENDBRANCH   1   4
BRANCH   1  14
ATOM     14  C   UNL     1       3.089   6.382  17.831  0.00  0.00    +0.000 C 
BRANCH  14  15
ATOM     15  N   UNL     1       2.491   7.568  18.443  0.00  0.00    +0.000 N 
ATOM     16  C   UNL     1       2.355   8.733  17.705  0.00  0.00    +0.000 A 
ATOM     17  N   UNL     1       1.740   9.818  18.053  0.00  0.00    +0.000 NA
ATOM     18  C   UNL     1       1.121   9.732  19.305  0.00  0.00    +0.000 A 
ATOM     19  C   UNL     1       0.317  10.756  19.856  0.00  0.00    +0.000 A 
ATOM     20  C   UNL     1      -0.205  10.373  21.076  0.00  0.00    +0.000 A 
ATOM     21  S   UNL     1       0.320   8.800  21.539  0.00  0.00    +0.000 S 
ATOM     22  C   UNL     1       1.206   8.626  20.103  0.00  0.00    +0.000 A 
ATOM     23  C   UNL     1       1.938   7.454  19.722  0.00  0.00    +0.000 A 
ATOM     24  O   UNL     1       2.067   6.439  20.408  0.00  0.00    +0.000 OA
ENDBRANCH  14  15
ENDBRANCH   1  14
TORSDOF 7
ENDMDL
