MODEL 1
REMARK VINA RESULT:      -8.1      0.000      0.000
REMARK  Name = 
REMARK  4 active torsions:
REMARK  status: ('A' for Active; 'I' for Inactive)
REMARK    1  A    between atoms: C_2  and  C_3
REMARK    2  A    between atoms: N_5  and  C_6
REMARK    3  A    between atoms: C_13  and  C_14
REMARK    4  A    between atoms: C_17  and  N_18
REMARK                            x       y       z     vdW  Elec       q    Type
REMARK                         _______ _______ _______ _____ _____    ______ ____
ROOT
ATOM      1  C   UNL     1       6.566   5.198  15.361  0.00  0.00    +0.000 C 
ATOM      2  C   UNL     1       5.457   6.250  15.340  0.00  0.00    +0.000 C 
ATOM      3  C   UNL     1       5.192   6.546  16.813  0.00  0.00    +0.000 C 
ATOM      4  N   UNL     1       5.541   5.317  17.505  0.00  0.00    +0.000 N 
ATOM      5  C   UNL     1       4.706   4.728  18.426  0.00  0.00    +0.000 A 
ATOM      6  N   UNL     1       3.516   5.278  18.711  0.00  0.00    +0.000 NA
ATOM      7  C   UNL     1       2.733   4.633  19.607  0.00  0.00    +0.000 A 
ATOM      8  C   UNL     1       3.094   3.467  20.242  0.00  0.00    +0.000 A 
ATOM      9  C   UNL     1       4.349   2.989  19.916  0.00  0.00    +0.000 A 
ATOM     10  N   UNL     1       5.132   3.592  19.006  0.00  0.00    +0.000 NA
ATOM     11  C   UNL     1       6.272   4.396  16.641  0.00  0.00    +0.000 C 
ENDROOT
BRANCH   8  12
ATOM     12  C   UNL     1       2.256   2.826  21.274  0.00  0.00    +0.000 C 
ATOM     13  N   UNL     1       0.895   2.851  21.113  0.00  0.00    +0.000 N 
ATOM     14  O   UNL     1       2.750   2.284  22.257  0.00  0.00    +0.000 OA
ATOM     15  H   UNL     1       0.433   3.099  20.248  0.00  0.00    +0.000 HD
ATOM     16  H   UNL     1       0.358   2.327  21.792  0.00  0.00    +0.000 HD
ENDBRANCH   8  12
BRANCH   1  19
ATOM     17  C   UNL     1       7.251   4.686  13.034  0.00  0.00    +0.000 C 
ATOM     18  O   UNL     1       8.013   5.639  12.940  0.00  0.00    +0.000 OA
ATOM     19  N   UNL     1       6.541   4.368  14.163  0.00  0.00    +0.000 N 
ATOM     20  H   UNL     1       5.837   3.643  14.108  0.00  0.00    +0.000 HD
BRANCH  17  22
ATOM     21  C   UNL     1       5.893   2.982  11.894  0.00  0.00    +0.000 C 
ATOM     22  C   UNL     1       6.992   3.743  11.913  0.00  0.00    +0.000 C 
ENDBRANCH  17  22
ENDBRANCH   1  19
BRANCH   9  23
ATOM     23  N   UNL     1       4.853   1.786  20.415  0.00  0.00    +0.000 N 
ATOM     24  H   UNL     1       5.079   1.856  21.409  0.00  0.00    +0.000 HD
ATOM     25  H   UNL     1       5.629   1.487  19.835  0.00  0.00    +0.000 HD
ENDBRANCH   9  23
TORSDOF 4
ENDMDL
MODEL 2
REMARK VINA RESULT:      -7.3      1.112      1.120
REMARK  Name = 
REMARK  4 active torsions:
REMARK  status: ('A' for Active; 'I' for Inactive)
REMARK    1  A    between atoms: C_2  and  C_3
REMARK    2  A    between atoms: N_5  and  C_6
REMARK    3  A    between atoms: C_13  and  C_14
REMARK    4  A    between atoms: C_17  and  N_18
REMARK                            x       y       z     vdW  Elec       q    Type
REMARK                         _______ _______ _______ _____ _____    ______ ____
ROOT
ATOM      1  C   UNL     1       7.256   5.658  16.000  0.00  0.00    +0.000 C 
ATOM      2  C   UNL     1       6.248   6.806  16.049  0.00  0.00    +0.000 C 
ATOM      3  C   UNL     1       5.874   6.916  17.524  0.00  0.00    +0.000 C 
ATOM      4  N   UNL     1       6.051   5.573  18.050  0.00  0.00    +0.000 N 
ATOM      5  C   UNL     1       5.088   4.945  18.805  0.00  0.00    +0.000 A 
ATOM      6  N   UNL     1       3.928   5.563  19.073  0.00  0.00    +0.000 NA
ATOM      7  C   UNL     1       3.013   4.878  19.799  0.00  0.00    +0.000 A 
ATOM      8  C   UNL     1       3.213   3.604  20.279  0.00  0.00    +0.000 A 
ATOM      9  C   UNL     1       4.447   3.057  19.986  0.00  0.00    +0.000 A 
ATOM     10  N   UNL     1       5.360   3.702  19.240  0.00  0.00    +0.000 NA
ATOM     11  C   UNL     1       6.777   4.716  17.119  0.00  0.00    +0.000 C 
ENDROOT
BRANCH   8  12
ATOM     12  C   UNL     1       2.231   2.909  21.135  0.00  0.00    +0.000 C 
ATOM     13  N   UNL     1       0.918   2.901  20.742  0.00  0.00    +0.000 N 
ATOM     14  O   UNL     1       2.567   2.352  22.175  0.00  0.00    +0.000 OA
ATOM     15  H   UNL     1       0.604   3.162  19.817  0.00  0.00    +0.000 HD
ATOM     16  H   UNL     1       0.290   2.343  21.305  0.00  0.00    +0.000 HD
ENDBRANCH   8  12
BRANCH   1  19
ATOM     17  C   UNL     1       6.181   4.350  14.190  0.00  0.00    +0.000 C 
ATOM     18  O   UNL     1       5.088   4.294  14.739  0.00  0.00    +0.000 OA
ATOM     19  N   UNL     1       7.271   5.011  14.694  0.00  0.00    +0.000 N 
ATOM     20  H   UNL     1       8.167   4.893  14.238  0.00  0.00    +0.000 HD
BRANCH  17  22
ATOM     21  C   UNL     1       5.476   3.255  12.104  0.00  0.00    +0.000 C 
ATOM     22  C   UNL     1       6.467   3.690  12.887  0.00  0.00    +0.000 C 
ENDBRANCH  17  22
ENDBRANCH   1  19
BRANCH   9  23
ATOM     23  N   UNL     1       4.798   1.752  20.338  0.00  0.00    +0.000 N 
ATOM     24  H   UNL     1       5.767   1.696  20.657  0.00  0.00    +0.000 HD
ATOM     25  H   UNL     1       4.582   1.131  19.566  0.00  0.00    +0.000 HD
ENDBRANCH   9  23
TORSDOF 4
ENDMDL
MODEL 3
REMARK VINA RESULT:      -6.6      5.195      7.295
REMARK  Name = 
REMARK  4 active torsions:
REMARK  status: ('A' for Active; 'I' for Inactive)
REMARK    1  A    between atoms: C_2  and  C_3
REMARK    2  A    between atoms: N_5  and  C_6
REMARK    3  A    between atoms: C_13  and  C_14
REMARK    4  A    between atoms: C_17  and  N_18
REMARK                            x       y       z     vdW  Elec       q    Type
REMARK                         _______ _______ _______ _____ _____    ______ ____
ROOT
ATOM      1  C   UNL     1       0.528   9.982  18.729  0.00  0.00    +0.000 C 
ATOM      2  C   UNL     1       0.013   9.397  20.044  0.00  0.00    +0.000 C 
ATOM      3  C   UNL     1       1.221   8.676  20.633  0.00  0.00    +0.000 C 
ATOM      4  N   UNL     1       2.014   8.282  19.481  0.00  0.00    +0.000 N 
ATOM      5  C   UNL     1       2.491   7.002  19.317  0.00  0.00    +0.000 A 
ATOM      6  N   UNL     1       2.223   6.058  20.231  0.00  0.00    +0.000 NA
ATOM      7  C   UNL     1       2.701   4.813  19.995  0.00  0.00    +0.000 A 
ATOM      8  C   UNL     1       3.447   4.474  18.889  0.00  0.00    +0.000 A 
ATOM      9  C   UNL     1       3.703   5.515  18.018  0.00  0.00    +0.000 A 
ATOM     10  N   UNL     1       3.214   6.751  18.211  0.00  0.00    +0.000 NA
ATOM     11  C   UNL     1       1.565   8.946  18.261  0.00  0.00    +0.000 C 
ENDROOT
BRANCH   8  12
ATOM     12  C   UNL     1       4.023   3.129  18.695  0.00  0.00    +0.000 C 
ATOM     13  N   UNL     1       4.970   2.693  19.585  0.00  0.00    +0.000 N 
ATOM     14  O   UNL     1       3.674   2.410  17.765  0.00  0.00    +0.000 OA
ATOM     15  H   UNL     1       5.159   3.140  20.472  0.00  0.00    +0.000 HD
ATOM     16  H   UNL     1       5.277   1.736  19.472  0.00  0.00    +0.000 HD
ENDBRANCH   8  12
BRANCH   1  19
ATOM     17  C   UNL     1      -1.417  11.227  17.829  0.00  0.00    +0.000 C 
ATOM     18  O   UNL     1      -1.336  12.142  18.638  0.00  0.00    +0.000 OA
ATOM     19  N   UNL     1      -0.550  10.167  17.765  0.00  0.00    +0.000 N 
ATOM     20  H   UNL     1      -0.771   9.392  17.152  0.00  0.00    +0.000 HD
BRANCH  17  22
ATOM     21  C   UNL     1      -2.566  10.110  15.964  0.00  0.00    +0.000 C 
ATOM     22  C   UNL     1      -2.488  11.150  16.799  0.00  0.00    +0.000 C 
ENDBRANCH  17  22
ENDBRANCH   1  19
BRANCH   9  23
ATOM     23  N   UNL     1       4.389   5.340  16.814  0.00  0.00    +0.000 N 
ATOM     24  H   UNL     1       3.850   5.691  16.020  0.00  0.00    +0.000 HD
ATOM     25  H   UNL     1       4.666   4.368  16.728  0.00  0.00    +0.000 HD
ENDBRANCH   9  23
TORSDOF 4
ENDMDL
MODEL 4
REMARK VINA RESULT:      -6.6      2.528      7.176
REMARK  Name = 
REMARK  4 active torsions:
REMARK  status: ('A' for Active; 'I' for Inactive)
REMARK    1  A    between atoms: C_2  and  C_3
REMARK    2  A    between atoms: N_5  and  C_6
REMARK    3  A    between atoms: C_13  and  C_14
REMARK    4  A    between atoms: C_17  and  N_18
REMARK                            x       y       z     vdW  Elec       q    Type
REMARK                         _______ _______ _______ _____ _____    ______ ____
ROOT
ATOM      1  C   UNL     1       2.279   4.867  20.766  0.00  0.00    +0.000 C 
ATOM      2  C   UNL     1       1.349   4.201  19.752  0.00  0.00    +0.000 C 
ATOM      3  C   UNL     1       2.254   3.243  18.984  0.00  0.00    +0.000 C 
ATOM      4  N   UNL     1       3.573   3.852  19.046  0.00  0.00    +0.000 N 
ATOM      5  C   UNL     1       4.357   4.024  17.929  0.00  0.00    +0.000 A 
ATOM      6  N   UNL     1       3.915   3.635  16.724  0.00  0.00    +0.000 NA
ATOM      7  C   UNL     1       4.727   3.858  15.664  0.00  0.00    +0.000 A 
ATOM      8  C   UNL     1       5.970   4.441  15.758  0.00  0.00    +0.000 A 
ATOM      9  C   UNL     1       6.360   4.778  17.040  0.00  0.00    +0.000 A 
ATOM     10  N   UNL     1       5.561   4.599  18.105  0.00  0.00    +0.000 NA
ATOM     11  C   UNL     1       3.626   4.934  20.023  0.00  0.00    +0.000 C 
ENDROOT
BRANCH   8  12
ATOM     12  C   UNL     1       6.868   4.600  14.598  0.00  0.00    +0.000 C 
ATOM     13  N   UNL     1       6.724   3.739  13.541  0.00  0.00    +0.000 N 
ATOM     14  O   UNL     1       7.729   5.474  14.568  0.00  0.00    +0.000 OA
ATOM     15  H   UNL     1       5.924   3.134  13.412  0.00  0.00    +0.000 HD
ATOM     16  H   UNL     1       7.296   3.933  12.729  0.00  0.00    +0.000 HD
ENDBRANCH   8  12
BRANCH   1  19
ATOM     17  C   UNL     1       1.864   7.271  20.324  0.00  0.00    +0.000 C 
ATOM     18  O   UNL     1       2.271   7.235  19.170  0.00  0.00    +0.000 OA
ATOM     19  N   UNL     1       1.792   6.184  21.157  0.00  0.00    +0.000 N 
ATOM     20  H   UNL     1       1.568   6.331  22.133  0.00  0.00    +0.000 HD
BRANCH  17  22
ATOM     21  C   UNL     1       0.139   8.637  21.423  0.00  0.00    +0.000 C 
ATOM     22  C   UNL     1       1.394   8.522  20.978  0.00  0.00    +0.000 C 
ENDBRANCH  17  22
ENDBRANCH   1  19
BRANCH   9  23
ATOM     23  N   UNL     1       7.560   5.436  17.316  0.00  0.00    +0.000 N 
ATOM     24  H   UNL     1       7.871   5.266  18.274  0.00  0.00    +0.000 HD
ATOM     25  H   UNL     1       7.462   6.418  17.082  0.00  0.00    +0.000 HD
ENDBRANCH   9  23
TORSDOF 4
ENDMDL
MODEL 5
REMARK VINA RESULT:      -6.6      1.474      1.678
REMARK  Name = 
REMARK  4 active torsions:
REMARK  status: ('A' for Active; 'I' for Inactive)
REMARK    1  A    between atoms: C_2  and  C_3
REMARK    2  A    between atoms: N_5  and  C_6
REMARK    3  A    between atoms: C_13  and  C_14
REMARK    4  A    between atoms: C_17  and  N_18
REMARK                            x       y       z     vdW  Elec       q    Type
REMARK                         _______ _______ _______ _____ _____    ______ ____
ROOT
ATOM      1  C   UNL     1       6.412   3.905  14.642  0.00  0.00    +0.000 C 
ATOM      2  C   UNL     1       6.226   5.421  14.623  0.00  0.00    +0.000 C 
ATOM      3  C   UNL     1       6.367   5.835  16.085  0.00  0.00    +0.000 C 
ATOM      4  N   UNL     1       5.930   4.674  16.841  0.00  0.00    +0.000 N 
ATOM      5  C   UNL     1       5.015   4.763  17.864  0.00  0.00    +0.000 A 
ATOM      6  N   UNL     1       4.481   5.949  18.194  0.00  0.00    +0.000 NA
ATOM      7  C   UNL     1       3.567   5.961  19.193  0.00  0.00    +0.000 A 
ATOM      8  C   UNL     1       3.174   4.840  19.887  0.00  0.00    +0.000 A 
ATOM      9  C   UNL     1       3.798   3.669  19.506  0.00  0.00    +0.000 A 
ATOM     10  N   UNL     1       4.683   3.623  18.496  0.00  0.00    +0.000 NA
ATOM     11  C   UNL     1       5.815   3.489  15.998  0.00  0.00    +0.000 C 
ENDROOT
BRANCH   8  12
ATOM     12  C   UNL     1       2.234   4.893  21.025  0.00  0.00    +0.000 C 
ATOM     13  N   UNL     1       1.483   6.027  21.195  0.00  0.00    +0.000 N 
ATOM     14  O   UNL     1       2.121   3.956  21.807  0.00  0.00    +0.000 OA
ATOM     15  H   UNL     1       1.379   6.746  20.491  0.00  0.00    +0.000 HD
ATOM     16  H   UNL     1       0.789   5.993  21.931  0.00  0.00    +0.000 HD
ENDBRANCH   8  12
BRANCH   1  19
ATOM     17  C   UNL     1       6.182   3.401  12.225  0.00  0.00    +0.000 C 
ATOM     18  O   UNL     1       7.200   3.998  11.899  0.00  0.00    +0.000 OA
ATOM     19  N   UNL     1       5.740   3.267  13.516  0.00  0.00    +0.000 N 
ATOM     20  H   UNL     1       4.822   2.873  13.679  0.00  0.00    +0.000 HD
BRANCH  17  22
ATOM     21  C   UNL     1       4.013   3.139  11.097  0.00  0.00    +0.000 C 
ATOM     22  C   UNL     1       5.280   2.742  11.243  0.00  0.00    +0.000 C 
ENDBRANCH  17  22
ENDBRANCH   1  19
BRANCH   9  23
ATOM     23  N   UNL     1       3.476   2.426  20.056  0.00  0.00    +0.000 N 
ATOM     24  H   UNL     1       2.477   2.227  19.975  0.00  0.00    +0.000 HD
ATOM     25  H   UNL     1       3.830   2.383  21.005  0.00  0.00    +0.000 HD
ENDBRANCH   9  23
TORSDOF 4
ENDMDL
MODEL 6
REMARK VINA RESULT:      -6.5      1.716      1.754
REMARK  Name = 
REMARK  4 active torsions:
REMARK  status: ('A' for Active; 'I' for Inactive)
REMARK    1  A    between atoms: C_2  and  C_3
REMARK    2  A    between atoms: N_5  and  C_6
REMARK    3  A    between atoms: C_13  and  C_14
REMARK    4  A    between atoms: C_17  and  N_18
REMARK                            x       y       z     vdW  Elec       q    Type
REMARK                         _______ _______ _______ _____ _____    ______ ____
ROOT
ATOM      1  C   UNL     1       7.414   5.383  16.304  0.00  0.00    +0.000 C 
ATOM      2  C   UNL     1       6.784   6.704  16.745  0.00  0.00    +0.000 C 
ATOM      3  C   UNL     1       6.187   6.397  18.115  0.00  0.00    +0.000 C 
ATOM      4  N   UNL     1       5.872   4.979  18.071  0.00  0.00    +0.000 N 
ATOM      5  C   UNL     1       4.646   4.485  18.450  0.00  0.00    +0.000 A 
ATOM      6  N   UNL     1       3.681   5.317  18.872  0.00  0.00    +0.000 NA
ATOM      7  C   UNL     1       2.490   4.766  19.205  0.00  0.00    +0.000 A 
ATOM      8  C   UNL     1       2.225   3.417  19.148  0.00  0.00    +0.000 A 
ATOM      9  C   UNL     1       3.284   2.632  18.737  0.00  0.00    +0.000 A 
ATOM     10  N   UNL     1       4.466   3.154  18.369  0.00  0.00    +0.000 NA
ATOM     11  C   UNL     1       6.485   4.322  16.921  0.00  0.00    +0.000 C 
ENDROOT
BRANCH   8  12
ATOM     12  C   UNL     1       0.943   2.835  19.592  0.00  0.00    +0.000 C 
ATOM     13  N   UNL     1       0.608   2.938  20.917  0.00  0.00    +0.000 N 
ATOM     14  O   UNL     1       0.190   2.269  18.807  0.00  0.00    +0.000 OA
ATOM     15  H   UNL     1       1.075   3.551  21.572  0.00  0.00    +0.000 HD
ATOM     16  H   UNL     1      -0.315   2.606  21.168  0.00  0.00    +0.000 HD
ENDBRANCH   8  12
BRANCH   1  19
ATOM     17  C   UNL     1       6.700   4.420  14.134  0.00  0.00    +0.000 C 
ATOM     18  O   UNL     1       5.825   3.714  14.618  0.00  0.00    +0.000 OA
ATOM     19  N   UNL     1       7.489   5.282  14.851  0.00  0.00    +0.000 N 
ATOM     20  H   UNL     1       8.272   5.726  14.390  0.00  0.00    +0.000 HD
BRANCH  17  22
ATOM     21  C   UNL     1       6.567   3.468  11.871  0.00  0.00    +0.000 C 
ATOM     22  C   UNL     1       7.024   4.426  12.682  0.00  0.00    +0.000 C 
ENDBRANCH  17  22
ENDBRANCH   1  19
BRANCH   9  23
ATOM     23  N   UNL     1       3.177   1.251  18.559  0.00  0.00    +0.000 N 
ATOM     24  H   UNL     1       2.852   1.017  17.619  0.00  0.00    +0.000 HD
ATOM     25  H   UNL     1       2.603   0.865  19.302  0.00  0.00    +0.000 HD
ENDBRANCH   9  23
TORSDOF 4
ENDMDL
MODEL 7
REMARK VINA RESULT:      -6.5      4.127      7.848
REMARK  Name = 
REMARK  4 active torsions:
REMARK  status: ('A' for Active; 'I' for Inactive)
REMARK    1  A    between atoms: C_2  and  C_3
REMARK    2  A    between atoms: N_5  and  C_6
REMARK    3  A    between atoms: C_13  and  C_14
REMARK    4  A    between atoms: C_17  and  N_18
REMARK                            x       y       z     vdW  Elec       q    Type
REMARK                         _______ _______ _______ _____ _____    ______ ____
ROOT
ATOM      1  C   UNL     1       1.011   8.665  19.514  0.00  0.00    +0.000 C 
ATOM      2  C   UNL     1       1.649   9.603  18.491  0.00  0.00    +0.000 C 
ATOM      3  C   UNL     1       2.241   8.668  17.441  0.00  0.00    +0.000 C 
ATOM      4  N   UNL     1       2.546   7.446  18.165  0.00  0.00    +0.000 N 
ATOM      5  C   UNL     1       3.768   6.821  18.074  0.00  0.00    +0.000 A 
ATOM      6  N   UNL     1       4.738   7.339  17.305  0.00  0.00    +0.000 NA
ATOM      7  C   UNL     1       5.925   6.687  17.281  0.00  0.00    +0.000 A 
ATOM      8  C   UNL     1       6.180   5.532  17.984  0.00  0.00    +0.000 A 
ATOM      9  C   UNL     1       5.117   5.051  18.722  0.00  0.00    +0.000 A 
ATOM     10  N   UNL     1       3.939   5.695  18.789  0.00  0.00    +0.000 NA
ATOM     11  C   UNL     1       1.931   7.431  19.488  0.00  0.00    +0.000 C 
ENDROOT
BRANCH   8  12
ATOM     12  C   UNL     1       7.457   4.799  17.878  0.00  0.00    +0.000 C 
ATOM     13  N   UNL     1       7.809   4.280  16.660  0.00  0.00    +0.000 N 
ATOM     14  O   UNL     1       8.192   4.648  18.849  0.00  0.00    +0.000 OA
ATOM     15  H   UNL     1       7.361   4.530  15.788  0.00  0.00    +0.000 HD
ATOM     16  H   UNL     1       8.729   3.861  16.605  0.00  0.00    +0.000 HD
ENDBRANCH   8  12
BRANCH   1  19
ATOM     17  C   UNL     1       0.020   8.889  21.776  0.00  0.00    +0.000 C 
ATOM     18  O   UNL     1      -0.767   7.962  21.634  0.00  0.00    +0.000 OA
ATOM     19  N   UNL     1       0.938   9.279  20.834  0.00  0.00    +0.000 N 
ATOM     20  H   UNL     1       1.455  10.136  20.983  0.00  0.00    +0.000 HD
BRANCH  17  22
ATOM     21  C   UNL     1      -0.824  10.689  23.223  0.00  0.00    +0.000 C 
ATOM     22  C   UNL     1       0.075   9.724  23.005  0.00  0.00    +0.000 C 
ENDBRANCH  17  22
ENDBRANCH   1  19
BRANCH   9  23
ATOM     23  N   UNL     1       5.215   3.927  19.545  0.00  0.00    +0.000 N 
ATOM     24  H   UNL     1       4.419   3.299  19.420  0.00  0.00    +0.000 HD
ATOM     25  H   UNL     1       5.355   4.230  20.503  0.00  0.00    +0.000 HD
ENDBRANCH   9  23
TORSDOF 4
ENDMDL
MODEL 8
REMARK VINA RESULT:      -6.5      1.966      2.189
REMARK  Name = 
REMARK  4 active torsions:
REMARK  status: ('A' for Active; 'I' for Inactive)
REMARK    1  A    between atoms: C_2  and  C_3
REMARK    2  A    between atoms: N_5  and  C_6
REMARK    3  A    between atoms: C_13  and  C_14
REMARK    4  A    between atoms: C_17  and  N_18
REMARK                            x       y       z     vdW  Elec       q    Type
REMARK                         _______ _______ _______ _____ _____    ______ ____
ROOT
ATOM      1  C   UNL     1       5.953   3.960  14.318  0.00  0.00    +0.000 C 
ATOM      2  C   UNL     1       6.376   5.282  14.958  0.00  0.00    +0.000 C 
ATOM      3  C   UNL     1       6.515   4.955  16.441  0.00  0.00    +0.000 C 
ATOM      4  N   UNL     1       5.584   3.862  16.667  0.00  0.00    +0.000 N 
ATOM      5  C   UNL     1       4.676   3.870  17.700  0.00  0.00    +0.000 A 
ATOM      6  N   UNL     1       4.616   4.913  18.541  0.00  0.00    +0.000 NA
ATOM      7  C   UNL     1       3.681   4.868  19.520  0.00  0.00    +0.000 A 
ATOM      8  C   UNL     1       2.812   3.817  19.703  0.00  0.00    +0.000 A 
ATOM      9  C   UNL     1       2.967   2.771  18.814  0.00  0.00    +0.000 A 
ATOM     10  N   UNL     1       3.863   2.804  17.814  0.00  0.00    +0.000 NA
ATOM     11  C   UNL     1       5.104   3.290  15.414  0.00  0.00    +0.000 C 
ENDROOT
BRANCH   8  12
ATOM     12  C   UNL     1       1.856   3.757  20.826  0.00  0.00    +0.000 C 
ATOM     13  N   UNL     1       2.312   3.327  22.045  0.00  0.00    +0.000 N 
ATOM     14  O   UNL     1       0.680   4.077  20.685  0.00  0.00    +0.000 OA
ATOM     15  H   UNL     1       3.291   3.239  22.282  0.00  0.00    +0.000 HD
ATOM     16  H   UNL     1       1.652   3.383  22.810  0.00  0.00    +0.000 HD
ENDBRANCH   8  12
BRANCH   1  19
ATOM     17  C   UNL     1       5.199   3.260  12.063  0.00  0.00    +0.000 C 
ATOM     18  O   UNL     1       5.750   2.167  12.106  0.00  0.00    +0.000 OA
ATOM     19  N   UNL     1       5.206   4.174  13.085  0.00  0.00    +0.000 N 
ATOM     20  H   UNL     1       4.839   5.101  12.913  0.00  0.00    +0.000 HD
BRANCH  17  22
ATOM     21  C   UNL     1       3.275   3.197  10.533  0.00  0.00    +0.000 C 
ATOM     22  C   UNL     1       4.447   3.742  10.873  0.00  0.00    +0.000 C 
ENDBRANCH  17  22
ENDBRANCH   1  19
BRANCH   9  23
ATOM     23  N   UNL     1       2.131   1.652  18.811  0.00  0.00    +0.000 N 
ATOM     24  H   UNL     1       1.971   1.299  19.756  0.00  0.00    +0.000 HD
ATOM     25  H   UNL     1       2.505   0.960  18.170  0.00  0.00    +0.000 HD
ENDBRANCH   9  23
TORSDOF 4
ENDMDL
MODEL 9
REMARK VINA RESULT:      -6.4      2.404      4.050
REMARK  Name = 
REMARK  4 active torsions:
REMARK  status: ('A' for Active; 'I' for Inactive)
REMARK    1  A    between atoms: C_2  and  C_3
REMARK    2  A    between atoms: N_5  and  C_6
REMARK    3  A    between atoms: C_13  and  C_14
REMARK    4  A    between atoms: C_17  and  N_18
REMARK                            x       y       z     vdW  Elec       q    Type
REMARK                         _______ _______ _______ _____ _____    ______ ____
ROOT
ATOM      1  C   UNL     1       6.421   6.876  16.395  0.00  0.00    +0.000 C 
ATOM      2  C   UNL     1       7.035   5.483  16.262  0.00  0.00    +0.000 C 
ATOM      3  C   UNL     1       5.836   4.540  16.280  0.00  0.00    +0.000 C 
ATOM      4  N   UNL     1       4.829   5.238  17.063  0.00  0.00    +0.000 N 
ATOM      5  C   UNL     1       4.149   4.633  18.094  0.00  0.00    +0.000 A 
ATOM      6  N   UNL     1       4.408   3.358  18.421  0.00  0.00    +0.000 NA
ATOM      7  C   UNL     1       3.722   2.834  19.463  0.00  0.00    +0.000 A 
ATOM      8  C   UNL     1       2.777   3.525  20.186  0.00  0.00    +0.000 A 
ATOM      9  C   UNL     1       2.549   4.819  19.760  0.00  0.00    +0.000 A 
ATOM     10  N   UNL     1       3.239   5.375  18.750  0.00  0.00    +0.000 NA
ATOM     11  C   UNL     1       5.183   6.637  17.278  0.00  0.00    +0.000 C 
ENDROOT
BRANCH   8  12
ATOM     12  C   UNL     1       1.986   2.905  21.267  0.00  0.00    +0.000 C 
ATOM     13  N   UNL     1       0.651   2.681  21.049  0.00  0.00    +0.000 N 
ATOM     14  O   UNL     1       2.496   2.596  22.339  0.00  0.00    +0.000 OA
ATOM     15  H   UNL     1       0.212   2.725  20.139  0.00  0.00    +0.000 HD
ATOM     16  H   UNL     1       0.162   2.175  21.777  0.00  0.00    +0.000 HD
ENDBRANCH   8  12
BRANCH   1  19
ATOM     17  C   UNL     1       7.989   7.576  18.183  0.00  0.00    +0.000 C 
ATOM     18  O   UNL     1       7.888   6.536  18.821  0.00  0.00    +0.000 OA
ATOM     19  N   UNL     1       7.357   7.822  16.991  0.00  0.00    +0.000 N 
ATOM     20  H   UNL     1       7.392   8.755  16.603  0.00  0.00    +0.000 HD
BRANCH  17  22
ATOM     21  C   UNL     1       8.635   9.948  18.129  0.00  0.00    +0.000 C 
ATOM     22  C   UNL     1       8.819   8.725  18.635  0.00  0.00    +0.000 C 
ENDBRANCH  17  22
ENDBRANCH   1  19
BRANCH   9  23
ATOM     23  N   UNL     1       1.672   5.687  20.415  0.00  0.00    +0.000 N 
ATOM     24  H   UNL     1       1.839   6.660  20.150  0.00  0.00    +0.000 HD
ATOM     25  H   UNL     1       1.720   5.516  21.413  0.00  0.00    +0.000 HD
ENDBRANCH   9  23
TORSDOF 4
ENDMDL
