MODEL 1
REMARK VINA RESULT:      -8.0      0.000      0.000
REMARK  Name = 
REMARK  8 active torsions:
REMARK  status: ('A' for Active; 'I' for Inactive)
REMARK    1  A    between atoms: C_1  and  O_2
REMARK    2  A    between atoms: O_2  and  C_3
REMARK    3  A    between atoms: C_6  and  C_7
REMARK    4  A    between atoms: C_7  and  N_8
REMARK    5  A    between atoms: N_11  and  C_12
REMARK    6  A    between atoms: C_15  and  C_16
REMARK    7  A    between atoms: C_23  and  O_24
REMARK    8  A    between atoms: O_24  and  C_25
REMARK                            x       y       z     vdW  Elec       q    Type
REMARK                         _______ _______ _______ _____ _____    ______ ____
ROOT
ATOM      1  N   UNL     1       3.707   4.949  19.641  0.00  0.00    +0.000 N 
ATOM      2  C   UNL     1       2.803   5.891  19.212  0.00  0.00    +0.000 C 
ATOM      3  O   UNL     1       2.270   5.826  18.113  0.00  0.00    +0.000 OA
ATOM      4  N   UNL     1       2.638   6.895  20.148  0.00  0.00    +0.000 N 
ATOM      5  H   UNL     1       3.683   4.748  20.628  0.00  0.00    +0.000 HD
ATOM      6  H   UNL     1       3.367   6.965  20.841  0.00  0.00    +0.000 HD
ENDROOT
BRANCH   4   7
ATOM      7  C   UNL     1       1.757   7.992  20.029  0.00  0.00    +0.000 A 
ATOM      8  C   UNL     1       1.748   8.828  18.914  0.00  0.00    +0.000 A 
ATOM      9  C   UNL     1       0.884   9.922  18.844  0.00  0.00    +0.000 A 
ATOM     10  C   UNL     1      -0.004  10.202  19.886  0.00  0.00    +0.000 A 
ATOM     11  C   UNL     1      -0.019   9.347  20.997  0.00  0.00    +0.000 A 
ATOM     12  C   UNL     1       0.851   8.246  21.065  0.00  0.00    +0.000 A 
BRANCH  10  13
ATOM     13  C   UNL     1      -0.897  11.344  19.803  0.00  0.00    +0.000 A 
ATOM     14  C   UNL     1      -0.856  12.607  20.434  0.00  0.00    +0.000 A 
ATOM     15  N   UNL     1      -1.891  13.385  20.104  0.00  0.00    +0.000 NA
ATOM     16  N   UNL     1      -2.601  12.623  19.257  0.00  0.00    +0.000 N 
ATOM     17  C   UNL     1      -2.045  11.396  19.038  0.00  0.00    +0.000 A 
ATOM     18  H   UNL     1      -3.457  13.001  18.868  0.00  0.00    +0.000 HD
ENDBRANCH  10  13
ENDBRANCH   4   7
BRANCH   1  19
ATOM     19  C   UNL     1       4.063   3.839  18.769  0.00  0.00    +0.000 C 
BRANCH  19  23
ATOM     20  C   UNL     1       6.832   4.893  15.603  0.00  0.00    +0.000 A 
ATOM     21  C   UNL     1       5.550   4.449  15.295  0.00  0.00    +0.000 A 
ATOM     22  C   UNL     1       4.657   4.110  16.308  0.00  0.00    +0.000 A 
ATOM     23  C   UNL     1       5.019   4.226  17.659  0.00  0.00    +0.000 A 
ATOM     24  C   UNL     1       6.316   4.681  17.971  0.00  0.00    +0.000 A 
ATOM     25  C   UNL     1       7.216   4.999  16.941  0.00  0.00    +0.000 A 
BRANCH  20  27
ATOM     26  C   UNL     1       7.183   4.675  13.261  0.00  0.00    +0.000 C 
ATOM     27  O   UNL     1       7.602   5.195  14.515  0.00  0.00    +0.000 OA
ENDBRANCH  20  27
BRANCH  24  28
ATOM     28  O   UNL     1       6.617   4.785  19.310  0.00  0.00    +0.000 OA
ATOM     29  C   UNL     1       7.652   5.697  19.679  0.00  0.00    +0.000 C 
ENDBRANCH  24  28
ENDBRANCH  19  23
ENDBRANCH   1  19
TORSDOF 6
ENDMDL
MODEL 2
REMARK VINA RESULT:      -7.8      0.427      1.033
REMARK  Name = 
REMARK  8 active torsions:
REMARK  status: ('A' for Active; 'I' for Inactive)
REMARK    1  A    between atoms: C_1  and  O_2
REMARK    2  A    between atoms: O_2  and  C_3
REMARK    3  A    between atoms: C_6  and  C_7
REMARK    4  A    between atoms: C_7  and  N_8
REMARK    5  A    between atoms: N_11  and  C_12
REMARK    6  A    between atoms: C_15  and  C_16
REMARK    7  A    between atoms: C_23  and  O_24
REMARK    8  A    between atoms: O_24  and  C_25
REMARK                            x       y       z     vdW  Elec       q    Type
REMARK                         _______ _______ _______ _____ _____    ______ ____
ROOT
ATOM      1  N   UNL     1       3.821   5.196  19.662  0.00  0.00    +0.000 N 
ATOM      2  C   UNL     1       2.811   6.036  19.257  0.00  0.00    +0.000 C 
ATOM      3  O   UNL     1       2.196   5.859  18.215  0.00  0.00    +0.000 OA
ATOM      4  N   UNL     1       2.644   7.085  20.143  0.00  0.00    +0.000 N 
ATOM      5  H   UNL     1       3.895   5.059  20.657  0.00  0.00    +0.000 HD
ATOM      6  H   UNL     1       3.419   7.255  20.765  0.00  0.00    +0.000 HD
ENDROOT
BRANCH   4   7
ATOM      7  C   UNL     1       1.670   8.102  20.036  0.00  0.00    +0.000 A 
ATOM      8  C   UNL     1       0.809   8.428  21.083  0.00  0.00    +0.000 A 
ATOM      9  C   UNL     1      -0.162   9.418  20.931  0.00  0.00    +0.000 A 
ATOM     10  C   UNL     1      -0.291  10.118  19.728  0.00  0.00    +0.000 A 
ATOM     11  C   UNL     1       0.592   9.814  18.683  0.00  0.00    +0.000 A 
ATOM     12  C   UNL     1       1.570   8.817  18.838  0.00  0.00    +0.000 A 
BRANCH  10  13
ATOM     13  C   UNL     1      -1.306  11.146  19.581  0.00  0.00    +0.000 A 
ATOM     14  C   UNL     1      -1.710  12.187  20.447  0.00  0.00    +0.000 A 
ATOM     15  N   UNL     1      -2.709  12.920  19.945  0.00  0.00    +0.000 NA
ATOM     16  N   UNL     1      -2.950  12.350  18.754  0.00  0.00    +0.000 N 
ATOM     17  C   UNL     1      -2.133  11.291  18.485  0.00  0.00    +0.000 A 
ATOM     18  H   UNL     1      -3.689  12.733  18.176  0.00  0.00    +0.000 HD
ENDBRANCH  10  13
ENDBRANCH   4   7
BRANCH   1  19
ATOM     19  C   UNL     1       4.192   4.060  18.829  0.00  0.00    +0.000 C 
BRANCH  19  23
ATOM     20  C   UNL     1       6.882   5.065  15.581  0.00  0.00    +0.000 A 
ATOM     21  C   UNL     1       5.723   4.339  15.332  0.00  0.00    +0.000 A 
ATOM     22  C   UNL     1       4.855   4.014  16.371  0.00  0.00    +0.000 A 
ATOM     23  C   UNL     1       5.118   4.427  17.687  0.00  0.00    +0.000 A 
ATOM     24  C   UNL     1       6.290   5.168  17.938  0.00  0.00    +0.000 A 
ATOM     25  C   UNL     1       7.170   5.470  16.886  0.00  0.00    +0.000 A 
BRANCH  20  27
ATOM     26  C   UNL     1       7.226   4.714  13.254  0.00  0.00    +0.000 C 
ATOM     27  O   UNL     1       7.641   5.317  14.472  0.00  0.00    +0.000 OA
ENDBRANCH  20  27
BRANCH  24  28
ATOM     28  O   UNL     1       6.496   5.554  19.242  0.00  0.00    +0.000 OA
ATOM     29  C   UNL     1       7.847   5.633  19.696  0.00  0.00    +0.000 C 
ENDBRANCH  24  28
ENDBRANCH  19  23
ENDBRANCH   1  19
TORSDOF 6
ENDMDL
MODEL 3
REMARK VINA RESULT:      -7.4      0.833      1.470
REMARK  Name = 
REMARK  8 active torsions:
REMARK  status: ('A' for Active; 'I' for Inactive)
REMARK    1  A    between atoms: C_1  and  O_2
REMARK    2  A    between atoms: O_2  and  C_3
REMARK    3  A    between atoms: C_6  and  C_7
REMARK    4  A    between atoms: C_7  and  N_8
REMARK    5  A    between atoms: N_11  and  C_12
REMARK    6  A    between atoms: C_15  and  C_16
REMARK    7  A    between atoms: C_23  and  O_24
REMARK    8  A    between atoms: O_24  and  C_25
REMARK                            x       y       z     vdW  Elec       q    Type
REMARK                         _______ _______ _______ _____ _____    ______ ____
ROOT
ATOM      1  N   UNL     1       4.132   5.513  19.211  0.00  0.00    +0.000 N 
ATOM      2  C   UNL     1       2.950   6.161  18.943  0.00  0.00    +0.000 C 
ATOM      3  O   UNL     1       2.090   5.672  18.223  0.00  0.00    +0.000 OA
ATOM      4  N   UNL     1       2.911   7.406  19.543  0.00  0.00    +0.000 N 
ATOM      5  H   UNL     1       4.506   5.662  20.135  0.00  0.00    +0.000 HD
ATOM      6  H   UNL     1       3.804   7.778  19.829  0.00  0.00    +0.000 HD
ENDROOT
BRANCH   4   7
ATOM      7  C   UNL     1       1.825   8.307  19.493  0.00  0.00    +0.000 A 
ATOM      8  C   UNL     1       1.044   8.603  20.609  0.00  0.00    +0.000 A 
ATOM      9  C   UNL     1      -0.041   9.476  20.514  0.00  0.00    +0.000 A 
ATOM     10  C   UNL     1      -0.367  10.085  19.300  0.00  0.00    +0.000 A 
ATOM     11  C   UNL     1       0.433   9.814  18.181  0.00  0.00    +0.000 A 
ATOM     12  C   UNL     1       1.525   8.936  18.279  0.00  0.00    +0.000 A 
BRANCH  10  13
ATOM     13  C   UNL     1      -1.500  10.990  19.213  0.00  0.00    +0.000 A 
ATOM     14  C   UNL     1      -2.628  10.993  18.362  0.00  0.00    +0.000 A 
ATOM     15  N   UNL     1      -3.447  12.025  18.590  0.00  0.00    +0.000 NA
ATOM     16  N   UNL     1      -2.846  12.687  19.591  0.00  0.00    +0.000 N 
ATOM     17  C   UNL     1      -1.683  12.106  20.005  0.00  0.00    +0.000 A 
ATOM     18  H   UNL     1      -3.283  13.532  19.942  0.00  0.00    +0.000 HD
ENDBRANCH  10  13
ENDBRANCH   4   7
BRANCH   1  19
ATOM     19  C   UNL     1       4.392   4.208  18.618  0.00  0.00    +0.000 C 
BRANCH  19  23
ATOM     20  C   UNL     1       6.466   4.367  14.814  0.00  0.00    +0.000 A 
ATOM     21  C   UNL     1       5.109   4.068  14.860  0.00  0.00    +0.000 A 
ATOM     22  C   UNL     1       4.437   4.017  16.079  0.00  0.00    +0.000 A 
ATOM     23  C   UNL     1       5.107   4.284  17.284  0.00  0.00    +0.000 A 
ATOM     24  C   UNL     1       6.481   4.593  17.236  0.00  0.00    +0.000 A 
ATOM     25  C   UNL     1       7.153   4.619  16.003  0.00  0.00    +0.000 A 
BRANCH  20  27
ATOM     26  C   UNL     1       6.352   3.597  12.567  0.00  0.00    +0.000 C 
ATOM     27  O   UNL     1       6.997   4.389  13.554  0.00  0.00    +0.000 OA
ENDBRANCH  20  27
BRANCH  24  28
ATOM     28  O   UNL     1       7.088   4.854  18.443  0.00  0.00    +0.000 OA
ATOM     29  C   UNL     1       7.588   6.174  18.652  0.00  0.00    +0.000 C 
ENDBRANCH  24  28
ENDBRANCH  19  23
ENDBRANCH   1  19
TORSDOF 6
ENDMDL
MODEL 4
REMARK VINA RESULT:      -7.3      5.729      7.763
REMARK  Name = 
REMARK  8 active torsions:
REMARK  status: ('A' for Active; 'I' for Inactive)
REMARK    1  A    between atoms: C_1  and  O_2
REMARK    2  A    between atoms: O_2  and  C_3
REMARK    3  A    between atoms: C_6  and  C_7
REMARK    4  A    between atoms: C_7  and  N_8
REMARK    5  A    between atoms: N_11  and  C_12
REMARK    6  A    between atoms: C_15  and  C_16
REMARK    7  A    between atoms: C_23  and  O_24
REMARK    8  A    between atoms: O_24  and  C_25
REMARK                            x       y       z     vdW  Elec       q    Type
REMARK                         _______ _______ _______ _____ _____    ______ ____
ROOT
ATOM      1  N   UNL     1       8.026   6.279  18.882  0.00  0.00    +0.000 N 
ATOM      2  C   UNL     1       8.183   7.502  18.276  0.00  0.00    +0.000 C 
ATOM      3  O   UNL     1       7.922   7.680  17.094  0.00  0.00    +0.000 OA
ATOM      4  N   UNL     1       8.703   8.436  19.153  0.00  0.00    +0.000 N 
ATOM      5  H   UNL     1       7.736   6.310  19.847  0.00  0.00    +0.000 HD
ATOM      6  H   UNL     1       9.148   8.058  19.975  0.00  0.00    +0.000 HD
ENDROOT
BRANCH   4   7
ATOM      7  C   UNL     1       8.951   9.793  18.854  0.00  0.00    +0.000 A 
ATOM      8  C   UNL     1       9.924  10.540  19.516  0.00  0.00    +0.000 A 
ATOM      9  C   UNL     1      10.122  11.889  19.215  0.00  0.00    +0.000 A 
ATOM     10  C   UNL     1       9.355  12.525  18.234  0.00  0.00    +0.000 A 
ATOM     11  C   UNL     1       8.396  11.770  17.546  0.00  0.00    +0.000 A 
ATOM     12  C   UNL     1       8.200  10.413  17.849  0.00  0.00    +0.000 A 
BRANCH  10  13
ATOM     13  C   UNL     1       9.569  13.929  17.931  0.00  0.00    +0.000 A 
ATOM     14  C   UNL     1       8.833  15.081  18.289  0.00  0.00    +0.000 A 
ATOM     15  N   UNL     1       9.356  16.205  17.788  0.00  0.00    +0.000 NA
ATOM     16  N   UNL     1      10.430  15.776  17.107  0.00  0.00    +0.000 N 
ATOM     17  C   UNL     1      10.606  14.425  17.168  0.00  0.00    +0.000 A 
ATOM     18  H   UNL     1      10.998  16.460  16.620  0.00  0.00    +0.000 HD
ENDBRANCH  10  13
ENDBRANCH   4   7
BRANCH   1  19
ATOM     19  C   UNL     1       7.545   5.144  18.106  0.00  0.00    +0.000 C 
BRANCH  19  23
ATOM     20  C   UNL     1       3.249   4.580  18.282  0.00  0.00    +0.000 A 
ATOM     21  C   UNL     1       3.923   5.172  19.345  0.00  0.00    +0.000 A 
ATOM     22  C   UNL     1       5.302   5.356  19.294  0.00  0.00    +0.000 A 
ATOM     23  C   UNL     1       6.041   4.969  18.164  0.00  0.00    +0.000 A 
ATOM     24  C   UNL     1       5.356   4.374  17.084  0.00  0.00    +0.000 A 
ATOM     25  C   UNL     1       3.969   4.173  17.157  0.00  0.00    +0.000 A 
BRANCH  20  27
ATOM     26  C   UNL     1       1.444   4.197  19.782  0.00  0.00    +0.000 C 
ATOM     27  O   UNL     1       1.899   4.464  18.463  0.00  0.00    +0.000 OA
ENDBRANCH  20  27
BRANCH  24  28
ATOM     28  O   UNL     1       6.125   4.021  15.999  0.00  0.00    +0.000 OA
ATOM     29  C   UNL     1       5.630   4.366  14.706  0.00  0.00    +0.000 C 
ENDBRANCH  24  28
ENDBRANCH  19  23
ENDBRANCH   1  19
TORSDOF 6
ENDMDL
MODEL 5
REMARK VINA RESULT:      -7.2      5.807      7.864
REMARK  Name = 
REMARK  8 active torsions:
REMARK  status: ('A' for Active; 'I' for Inactive)
REMARK    1  A    between atoms: C_1  and  O_2
REMARK    2  A    between atoms: O_2  and  C_3
REMARK    3  A    between atoms: C_6  and  C_7
REMARK    4  A    between atoms: C_7  and  N_8
REMARK    5  A    between atoms: N_11  and  C_12
REMARK    6  A    between atoms: C_15  and  C_16
REMARK    7  A    between atoms: C_23  and  O_24
REMARK    8  A    between atoms: O_24  and  C_25
REMARK                            x       y       z     vdW  Elec       q    Type
REMARK                         _______ _______ _______ _____ _____    ______ ____
ROOT
ATOM      1  N   UNL     1       7.964   6.396  18.573  0.00  0.00    +0.000 N 
ATOM      2  C   UNL     1       8.121   7.695  18.153  0.00  0.00    +0.000 C 
ATOM      3  O   UNL     1       7.805   8.058  17.029  0.00  0.00    +0.000 OA
ATOM      4  N   UNL     1       8.709   8.474  19.134  0.00  0.00    +0.000 N 
ATOM      5  H   UNL     1       7.725   6.283  19.546  0.00  0.00    +0.000 HD
ATOM      6  H   UNL     1       9.185   7.966  19.863  0.00  0.00    +0.000 HD
ENDROOT
BRANCH   4   7
ATOM      7  C   UNL     1       8.976   9.856  19.033  0.00  0.00    +0.000 A 
ATOM      8  C   UNL     1       8.703  10.590  17.880  0.00  0.00    +0.000 A 
ATOM      9  C   UNL     1       9.009  11.950  17.805  0.00  0.00    +0.000 A 
ATOM     10  C   UNL     1       9.590  12.615  18.888  0.00  0.00    +0.000 A 
ATOM     11  C   UNL     1       9.840  11.888  20.060  0.00  0.00    +0.000 A 
ATOM     12  C   UNL     1       9.530  10.519  20.134  0.00  0.00    +0.000 A 
BRANCH  10  13
ATOM     13  C   UNL     1       9.906  14.029  18.798  0.00  0.00    +0.000 A 
ATOM     14  C   UNL     1       9.090  15.176  18.924  0.00  0.00    +0.000 A 
ATOM     15  N   UNL     1       9.767  16.315  18.752  0.00  0.00    +0.000 NA
ATOM     16  N   UNL     1      11.022  15.902  18.515  0.00  0.00    +0.000 N 
ATOM     17  C   UNL     1      11.159  14.545  18.540  0.00  0.00    +0.000 A 
ATOM     18  H   UNL     1      11.736  16.600  18.341  0.00  0.00    +0.000 HD
ENDBRANCH  10  13
ENDBRANCH   4   7
BRANCH   1  19
ATOM     19  C   UNL     1       7.415   5.403  17.660  0.00  0.00    +0.000 C 
BRANCH  19  23
ATOM     20  C   UNL     1       3.343   4.239  18.587  0.00  0.00    +0.000 A 
ATOM     21  C   UNL     1       4.055   5.054  19.459  0.00  0.00    +0.000 A 
ATOM     22  C   UNL     1       5.363   5.432  19.167  0.00  0.00    +0.000 A 
ATOM     23  C   UNL     1       5.985   5.017  17.978  0.00  0.00    +0.000 A 
ATOM     24  C   UNL     1       5.261   4.195  17.091  0.00  0.00    +0.000 A 
ATOM     25  C   UNL     1       3.950   3.802  17.408  0.00  0.00    +0.000 A 
BRANCH  20  27
ATOM     26  C   UNL     1       1.853   2.672  19.578  0.00  0.00    +0.000 C 
ATOM     27  O   UNL     1       2.070   3.949  18.995  0.00  0.00    +0.000 OA
ENDBRANCH  20  27
BRANCH  24  28
ATOM     28  O   UNL     1       5.913   3.824  15.938  0.00  0.00    +0.000 OA
ATOM     29  C   UNL     1       5.479   4.423  14.718  0.00  0.00    +0.000 C 
ENDBRANCH  24  28
ENDBRANCH  19  23
ENDBRANCH   1  19
TORSDOF 6
ENDMDL
MODEL 6
REMARK VINA RESULT:      -7.1      0.824      1.068
REMARK  Name = 
REMARK  8 active torsions:
REMARK  status: ('A' for Active; 'I' for Inactive)
REMARK    1  A    between atoms: C_1  and  O_2
REMARK    2  A    between atoms: O_2  and  C_3
REMARK    3  A    between atoms: C_6  and  C_7
REMARK    4  A    between atoms: C_7  and  N_8
REMARK    5  A    between atoms: N_11  and  C_12
REMARK    6  A    between atoms: C_15  and  C_16
REMARK    7  A    between atoms: C_23  and  O_24
REMARK    8  A    between atoms: O_24  and  C_25
REMARK                            x       y       z     vdW  Elec       q    Type
REMARK                         _______ _______ _______ _____ _____    ______ ____
ROOT
ATOM      1  N   UNL     1       4.309   4.983  19.079  0.00  0.00    +0.000 N 
ATOM      2  C   UNL     1       3.207   5.767  18.832  0.00  0.00    +0.000 C 
ATOM      3  O   UNL     1       2.416   5.512  17.934  0.00  0.00    +0.000 OA
ATOM      4  N   UNL     1       3.165   6.858  19.681  0.00  0.00    +0.000 N 
ATOM      5  H   UNL     1       4.573   4.904  20.048  0.00  0.00    +0.000 HD
ATOM      6  H   UNL     1       4.035   7.087  20.135  0.00  0.00    +0.000 HD
ENDROOT
BRANCH   4   7
ATOM      7  C   UNL     1       2.147   7.835  19.710  0.00  0.00    +0.000 A 
ATOM      8  C   UNL     1       1.856   8.647  18.615  0.00  0.00    +0.000 A 
ATOM      9  C   UNL     1       0.862   9.625  18.690  0.00  0.00    +0.000 A 
ATOM     10  C   UNL     1       0.125   9.809  19.863  0.00  0.00    +0.000 A 
ATOM     11  C   UNL     1       0.394   8.976  20.957  0.00  0.00    +0.000 A 
ATOM     12  C   UNL     1       1.394   7.992  20.879  0.00  0.00    +0.000 A 
BRANCH  10  13
ATOM     13  C   UNL     1      -0.905  10.831  19.930  0.00  0.00    +0.000 A 
ATOM     14  C   UNL     1      -1.762  11.356  18.936  0.00  0.00    +0.000 A 
ATOM     15  N   UNL     1      -2.569  12.313  19.402  0.00  0.00    +0.000 NA
ATOM     16  N   UNL     1      -2.233  12.406  20.698  0.00  0.00    +0.000 N 
ATOM     17  C   UNL     1      -1.249  11.535  21.066  0.00  0.00    +0.000 A 
ATOM     18  H   UNL     1      -2.713  13.087  21.275  0.00  0.00    +0.000 HD
ENDBRANCH  10  13
ENDBRANCH   4   7
BRANCH   1  19
ATOM     19  C   UNL     1       4.565   3.814  18.248  0.00  0.00    +0.000 C 
BRANCH  19  23
ATOM     20  C   UNL     1       6.679   4.687  14.564  0.00  0.00    +0.000 A 
ATOM     21  C   UNL     1       5.343   4.304  14.532  0.00  0.00    +0.000 A 
ATOM     22  C   UNL     1       4.658   4.024  15.712  0.00  0.00    +0.000 A 
ATOM     23  C   UNL     1       5.293   4.139  16.959  0.00  0.00    +0.000 A 
ATOM     24  C   UNL     1       6.646   4.533  16.992  0.00  0.00    +0.000 A 
ATOM     25  C   UNL     1       7.332   4.791  15.794  0.00  0.00    +0.000 A 
BRANCH  20  27
ATOM     26  C   UNL     1       8.454   5.649  13.308  0.00  0.00    +0.000 C 
ATOM     27  O   UNL     1       7.226   4.936  13.336  0.00  0.00    +0.000 OA
ENDBRANCH  20  27
BRANCH  24  28
ATOM     28  O   UNL     1       7.217   4.638  18.239  0.00  0.00    +0.000 OA
ATOM     29  C   UNL     1       7.734   5.914  18.616  0.00  0.00    +0.000 C 
ENDBRANCH  24  28
ENDBRANCH  19  23
ENDBRANCH   1  19
TORSDOF 6
ENDMDL
MODEL 7
REMARK VINA RESULT:      -7.0      1.252      1.296
REMARK  Name = 
REMARK  8 active torsions:
REMARK  status: ('A' for Active; 'I' for Inactive)
REMARK    1  A    between atoms: C_1  and  O_2
REMARK    2  A    between atoms: O_2  and  C_3
REMARK    3  A    between atoms: C_6  and  C_7
REMARK    4  A    between atoms: C_7  and  N_8
REMARK    5  A    between atoms: N_11  and  C_12
REMARK    6  A    between atoms: C_15  and  C_16
REMARK    7  A    between atoms: C_23  and  O_24
REMARK    8  A    between atoms: O_24  and  C_25
REMARK                            x       y       z     vdW  Elec       q    Type
REMARK                         _______ _______ _______ _____ _____    ______ ____
ROOT
ATOM      1  N   UNL     1       3.787   4.677  19.312  0.00  0.00    +0.000 N 
ATOM      2  C   UNL     1       3.632   6.026  19.103  0.00  0.00    +0.000 C 
ATOM      3  O   UNL     1       4.547   6.731  18.699  0.00  0.00    +0.000 OA
ATOM      4  N   UNL     1       2.361   6.447  19.451  0.00  0.00    +0.000 N 
ATOM      5  H   UNL     1       2.974   4.114  19.113  0.00  0.00    +0.000 HD
ATOM      6  H   UNL     1       1.846   5.820  20.049  0.00  0.00    +0.000 HD
ENDROOT
BRANCH   4   7
ATOM      7  C   UNL     1       1.871   7.765  19.324  0.00  0.00    +0.000 A 
ATOM      8  C   UNL     1       1.885   8.457  18.115  0.00  0.00    +0.000 A 
ATOM      9  C   UNL     1       1.420   9.771  18.034  0.00  0.00    +0.000 A 
ATOM     10  C   UNL     1       0.916  10.424  19.163  0.00  0.00    +0.000 A 
ATOM     11  C   UNL     1       0.872   9.722  20.375  0.00  0.00    +0.000 A 
ATOM     12  C   UNL     1       1.341   8.400  20.454  0.00  0.00    +0.000 A 
BRANCH  10  13
ATOM     13  C   UNL     1       0.437  11.791  19.066  0.00  0.00    +0.000 A 
ATOM     14  C   UNL     1       0.926  12.992  19.628  0.00  0.00    +0.000 A 
ATOM     15  N   UNL     1       0.178  14.054  19.312  0.00  0.00    +0.000 NA
ATOM     16  N   UNL     1      -0.794  13.537  18.546  0.00  0.00    +0.000 N 
ATOM     17  C   UNL     1      -0.681  12.190  18.362  0.00  0.00    +0.000 A 
ATOM     18  H   UNL     1      -1.507  14.160  18.183  0.00  0.00    +0.000 HD
ENDBRANCH  10  13
ENDBRANCH   4   7
BRANCH   1  19
ATOM     19  C   UNL     1       5.077   4.050  19.060  0.00  0.00    +0.000 C 
BRANCH  19  23
ATOM     20  C   UNL     1       6.503   4.494  14.990  0.00  0.00    +0.000 A 
ATOM     21  C   UNL     1       5.180   4.146  15.235  0.00  0.00    +0.000 A 
ATOM     22  C   UNL     1       4.716   4.003  16.540  0.00  0.00    +0.000 A 
ATOM     23  C   UNL     1       5.565   4.225  17.636  0.00  0.00    +0.000 A 
ATOM     24  C   UNL     1       6.905   4.584  17.387  0.00  0.00    +0.000 A 
ATOM     25  C   UNL     1       7.367   4.703  16.067  0.00  0.00    +0.000 A 
BRANCH  20  27
ATOM     26  C   UNL     1       6.295   3.620  12.788  0.00  0.00    +0.000 C 
ATOM     27  O   UNL     1       6.823   4.605  13.665  0.00  0.00    +0.000 OA
ENDBRANCH  20  27
BRANCH  24  28
ATOM     28  O   UNL     1       7.692   4.798  18.496  0.00  0.00    +0.000 OA
ATOM     29  C   UNL     1       7.930   6.152  18.877  0.00  0.00    +0.000 C 
ENDBRANCH  24  28
ENDBRANCH  19  23
ENDBRANCH   1  19
TORSDOF 6
ENDMDL
MODEL 8
REMARK VINA RESULT:      -7.0      3.708     10.074
REMARK  Name = 
REMARK  8 active torsions:
REMARK  status: ('A' for Active; 'I' for Inactive)
REMARK    1  A    between atoms: C_1  and  O_2
REMARK    2  A    between atoms: O_2  and  C_3
REMARK    3  A    between atoms: C_6  and  C_7
REMARK    4  A    between atoms: C_7  and  N_8
REMARK    5  A    between atoms: N_11  and  C_12
REMARK    6  A    between atoms: C_15  and  C_16
REMARK    7  A    between atoms: C_23  and  O_24
REMARK    8  A    between atoms: O_24  and  C_25
REMARK                            x       y       z     vdW  Elec       q    Type
REMARK                         _______ _______ _______ _____ _____    ______ ____
ROOT
ATOM      1  N   UNL     1       0.496  11.034  19.465  0.00  0.00    +0.000 N 
ATOM      2  C   UNL     1       0.781   9.788  18.959  0.00  0.00    +0.000 C 
ATOM      3  O   UNL     1       0.487   9.468  17.816  0.00  0.00    +0.000 OA
ATOM      4  N   UNL     1       1.376   8.982  19.912  0.00  0.00    +0.000 N 
ATOM      5  H   UNL     1       1.174  11.402  20.114  0.00  0.00    +0.000 HD
ATOM      6  H   UNL     1       1.261   9.283  20.868  0.00  0.00    +0.000 HD
ENDROOT
BRANCH   4   7
ATOM      7  C   UNL     1       1.823   7.659  19.705  0.00  0.00    +0.000 A 
ATOM      8  C   UNL     1       1.569   6.631  20.612  0.00  0.00    +0.000 A 
ATOM      9  C   UNL     1       2.053   5.341  20.388  0.00  0.00    +0.000 A 
ATOM     10  C   UNL     1       2.797   5.043  19.243  0.00  0.00    +0.000 A 
ATOM     11  C   UNL     1       3.030   6.066  18.314  0.00  0.00    +0.000 A 
ATOM     12  C   UNL     1       2.541   7.364  18.540  0.00  0.00    +0.000 A 
BRANCH  10  13
ATOM     13  C   UNL     1       3.297   3.698  19.022  0.00  0.00    +0.000 A 
ATOM     14  C   UNL     1       2.747   2.604  18.316  0.00  0.00    +0.000 A 
ATOM     15  N   UNL     1       3.520   1.515  18.365  0.00  0.00    +0.000 NA
ATOM     16  N   UNL     1       4.570   1.907  19.104  0.00  0.00    +0.000 N 
ATOM     17  C   UNL     1       4.489   3.205  19.515  0.00  0.00    +0.000 A 
ATOM     18  H   UNL     1       5.306   1.236  19.293  0.00  0.00    +0.000 HD
ENDBRANCH  10  13
ENDBRANCH   4   7
BRANCH   1  19
ATOM     19  C   UNL     1      -0.189  12.013  18.631  0.00  0.00    +0.000 C 
BRANCH  19  23
ATOM     20  C   UNL     1      -4.450  12.189  19.414  0.00  0.00    +0.000 A 
ATOM     21  C   UNL     1      -3.547  12.725  20.325  0.00  0.00    +0.000 A 
ATOM     22  C   UNL     1      -2.177  12.672  20.079  0.00  0.00    +0.000 A 
ATOM     23  C   UNL     1      -1.678  12.096  18.899  0.00  0.00    +0.000 A 
ATOM     24  C   UNL     1      -2.594  11.558  17.973  0.00  0.00    +0.000 A 
ATOM     25  C   UNL     1      -3.971  11.597  18.243  0.00  0.00    +0.000 A 
BRANCH  20  27
ATOM     26  C   UNL     1      -6.700  11.483  19.107  0.00  0.00    +0.000 C 
ATOM     27  O   UNL     1      -5.762  12.312  19.778  0.00  0.00    +0.000 OA
ENDBRANCH  20  27
BRANCH  24  28
ATOM     28  O   UNL     1      -2.053  11.013  16.831  0.00  0.00    +0.000 OA
ATOM     29  C   UNL     1      -2.907  10.899  15.693  0.00  0.00    +0.000 C 
ENDBRANCH  24  28
ENDBRANCH  19  23
ENDBRANCH   1  19
TORSDOF 6
ENDMDL
MODEL 9
REMARK VINA RESULT:      -7.0      3.706     10.094
REMARK  Name = 
REMARK  8 active torsions:
REMARK  status: ('A' for Active; 'I' for Inactive)
REMARK    1  A    between atoms: C_1  and  O_2
REMARK    2  A    between atoms: O_2  and  C_3
REMARK    3  A    between atoms: C_6  and  C_7
REMARK    4  A    between atoms: C_7  and  N_8
REMARK    5  A    between atoms: N_11  and  C_12
REMARK    6  A    between atoms: C_15  and  C_16
REMARK    7  A    between atoms: C_23  and  O_24
REMARK    8  A    between atoms: O_24  and  C_25
REMARK                            x       y       z     vdW  Elec       q    Type
REMARK                         _______ _______ _______ _____ _____    ______ ____
ROOT
ATOM      1  N   UNL     1       0.535  10.930  19.571  0.00  0.00    +0.000 N 
ATOM      2  C   UNL     1       0.878   9.724  19.009  0.00  0.00    +0.000 C 
ATOM      3  O   UNL     1       0.654   9.467  17.834  0.00  0.00    +0.000 OA
ATOM      4  N   UNL     1       1.439   8.874  19.944  0.00  0.00    +0.000 N 
ATOM      5  H   UNL     1       1.167  11.272  20.278  0.00  0.00    +0.000 HD
ATOM      6  H   UNL     1       1.265   9.114  20.908  0.00  0.00    +0.000 HD
ENDROOT
BRANCH   4   7
ATOM      7  C   UNL     1       1.929   7.576  19.683  0.00  0.00    +0.000 A 
ATOM      8  C   UNL     1       2.687   7.274  18.554  0.00  0.00    +0.000 A 
ATOM      9  C   UNL     1       3.129   5.972  18.312  0.00  0.00    +0.000 A 
ATOM     10  C   UNL     1       2.831   4.937  19.203  0.00  0.00    +0.000 A 
ATOM     11  C   UNL     1       2.094   5.241  20.356  0.00  0.00    +0.000 A 
ATOM     12  C   UNL     1       1.651   6.553  20.597  0.00  0.00    +0.000 A 
BRANCH  10  13
ATOM     13  C   UNL     1       3.294   3.586  18.941  0.00  0.00    +0.000 A 
ATOM     14  C   UNL     1       2.895   2.635  17.974  0.00  0.00    +0.000 A 
ATOM     15  N   UNL     1       3.563   1.482  18.075  0.00  0.00    +0.000 NA
ATOM     16  N   UNL     1       4.395   1.690  19.108  0.00  0.00    +0.000 N 
ATOM     17  C   UNL     1       4.280   2.935  19.655  0.00  0.00    +0.000 A 
ATOM     18  H   UNL     1       5.014   0.938  19.389  0.00  0.00    +0.000 HD
ENDBRANCH  10  13
ENDBRANCH   4   7
BRANCH   1  19
ATOM     19  C   UNL     1      -0.127  11.943  18.760  0.00  0.00    +0.000 C 
BRANCH  19  23
ATOM     20  C   UNL     1      -4.347  12.330  19.677  0.00  0.00    +0.000 A 
ATOM     21  C   UNL     1      -3.389  12.757  20.590  0.00  0.00    +0.000 A 
ATOM     22  C   UNL     1      -2.032  12.636  20.301  0.00  0.00    +0.000 A 
ATOM     23  C   UNL     1      -1.601  12.100  19.076  0.00  0.00    +0.000 A 
ATOM     24  C   UNL     1      -2.572  11.673  18.149  0.00  0.00    +0.000 A 
ATOM     25  C   UNL     1      -3.937  11.779  18.462  0.00  0.00    +0.000 A 
BRANCH  20  27
ATOM     26  C   UNL     1      -5.927  13.698  20.811  0.00  0.00    +0.000 C 
ATOM     27  O   UNL     1      -5.639  12.511  20.086  0.00  0.00    +0.000 OA
ENDBRANCH  20  27
BRANCH  24  28
ATOM     28  O   UNL     1      -2.096  11.163  16.963  0.00  0.00    +0.000 OA
ATOM     29  C   UNL     1      -2.584   9.885  16.556  0.00  0.00    +0.000 C 
ENDBRANCH  24  28
ENDBRANCH  19  23
ENDBRANCH   1  19
TORSDOF 6
ENDMDL
