MODEL 1
REMARK VINA RESULT:      -7.0      0.000      0.000
REMARK  Name = 
REMARK  6 active torsions:
REMARK  status: ('A' for Active; 'I' for Inactive)
REMARK    1  A    between atoms: C_1  and  N_2
REMARK    2  A    between atoms: N_2  and  C_3
REMARK    3  A    between atoms: N_2  and  N_10
REMARK    4  A    between atoms: C_3  and  C_4
REMARK    5  A    between atoms: N_11  and  C_12
REMARK    6  A    between atoms: C_15  and  C_16
REMARK                            x       y       z     vdW  Elec       q    Type
REMARK                         _______ _______ _______ _____ _____    ______ ____
ROOT
ATOM      1  N   UNL     1       3.509   5.321  17.428  0.00  0.00    +0.000 NA
ATOM      2  N   UNL     1       3.728   5.914  18.501  0.00  0.00    +0.000 NA
ENDROOT
BRANCH   2   3
ATOM      3  C   UNL     1       2.914   7.055  18.650  0.00  0.00    +0.000 A 
ATOM      4  C   UNL     1       2.229   7.218  19.860  0.00  0.00    +0.000 A 
ATOM      5  C   UNL     1       1.406   8.330  20.087  0.00  0.00    +0.000 A 
ATOM      6  C   UNL     1       1.262   9.312  19.101  0.00  0.00    +0.000 A 
ATOM      7  C   UNL     1       1.954   9.162  17.892  0.00  0.00    +0.000 A 
ATOM      8  C   UNL     1       2.776   8.050  17.673  0.00  0.00    +0.000 A 
BRANCH   6   9
ATOM      9  C   UNL     1       0.407  10.525  19.264  0.00  0.00    +0.000 C 
ATOM     10  N   UNL     1       0.522  11.538  18.354  0.00  0.00    +0.000 N 
ATOM     11  O   UNL     1      -0.390  10.625  20.188  0.00  0.00    +0.000 OA
ATOM     12  H   UNL     1       1.133  11.542  17.553  0.00  0.00    +0.000 HD
ATOM     13  H   UNL     1      -0.079  12.340  18.494  0.00  0.00    +0.000 HD
ENDBRANCH   6   9
ENDBRANCH   2   3
BRANCH   1  15
ATOM     14  C   UNL     1       5.596   4.369  16.794  0.00  0.00    +0.000 C 
ATOM     15  N   UNL     1       4.238   4.176  17.262  0.00  0.00    +0.000 N 
BRANCH  15  16
ATOM     16  C   UNL     1       3.814   2.869  17.768  0.00  0.00    +0.000 C 
BRANCH  16  17
ATOM     17  C   UNL     1       2.961   2.848  19.018  0.00  0.00    +0.000 A 
ATOM     18  C   UNL     1       3.477   2.697  20.312  0.00  0.00    +0.000 A 
ATOM     19  C   UNL     1       2.632   2.696  21.423  0.00  0.00    +0.000 A 
ATOM     20  C   UNL     1       1.256   2.851  21.261  0.00  0.00    +0.000 A 
ATOM     21  C   UNL     1       0.723   3.004  19.985  0.00  0.00    +0.000 A 
ATOM     22  C   UNL     1       1.569   3.000  18.873  0.00  0.00    +0.000 A 
ENDBRANCH  16  17
ENDBRANCH  15  16
ENDBRANCH   1  15
TORSDOF 5
ENDMDL
MODEL 2
REMARK VINA RESULT:      -7.0      0.371      1.136
REMARK  Name = 
REMARK  6 active torsions:
REMARK  status: ('A' for Active; 'I' for Inactive)
REMARK    1  A    between atoms: C_1  and  N_2
REMARK    2  A    between atoms: N_2  and  C_3
REMARK    3  A    between atoms: N_2  and  N_10
REMARK    4  A    between atoms: C_3  and  C_4
REMARK    5  A    between atoms: N_11  and  C_12
REMARK    6  A    between atoms: C_15  and  C_16
REMARK                            x       y       z     vdW  Elec       q    Type
REMARK                         _______ _______ _______ _____ _____    ______ ____
ROOT
ATOM      1  N   UNL     1       3.447   5.719  17.573  0.00  0.00    +0.000 NA
ATOM      2  N   UNL     1       3.507   6.168  18.733  0.00  0.00    +0.000 NA
ENDROOT
BRANCH   2   3
ATOM      3  C   UNL     1       2.697   7.310  18.900  0.00  0.00    +0.000 A 
ATOM      4  C   UNL     1       2.580   8.195  17.822  0.00  0.00    +0.000 A 
ATOM      5  C   UNL     1       1.787   9.348  17.909  0.00  0.00    +0.000 A 
ATOM      6  C   UNL     1       1.084   9.631  19.085  0.00  0.00    +0.000 A 
ATOM      7  C   UNL     1       1.188   8.745  20.165  0.00  0.00    +0.000 A 
ATOM      8  C   UNL     1       1.979   7.594  20.070  0.00  0.00    +0.000 A 
BRANCH   6   9
ATOM      9  C   UNL     1       0.219  10.836  19.259  0.00  0.00    +0.000 C 
ATOM     10  N   UNL     1      -0.014  11.639  18.178  0.00  0.00    +0.000 N 
ATOM     11  O   UNL     1      -0.282  11.113  20.341  0.00  0.00    +0.000 OA
ATOM     12  H   UNL     1       0.336  11.487  17.246  0.00  0.00    +0.000 HD
ATOM     13  H   UNL     1      -0.612  12.442  18.334  0.00  0.00    +0.000 HD
ENDBRANCH   6   9
ENDBRANCH   2   3
BRANCH   1  15
ATOM     14  C   UNL     1       5.581   4.782  17.095  0.00  0.00    +0.000 C 
ATOM     15  N   UNL     1       4.174   4.578  17.376  0.00  0.00    +0.000 N 
BRANCH  15  16
ATOM     16  C   UNL     1       3.674   3.238  17.690  0.00  0.00    +0.000 C 
BRANCH  16  17
ATOM     17  C   UNL     1       2.887   3.069  18.970  0.00  0.00    +0.000 A 
ATOM     18  C   UNL     1       3.472   2.815  20.218  0.00  0.00    +0.000 A 
ATOM     19  C   UNL     1       2.685   2.679  21.363  0.00  0.00    +0.000 A 
ATOM     20  C   UNL     1       1.298   2.799  21.282  0.00  0.00    +0.000 A 
ATOM     21  C   UNL     1       0.697   3.054  20.054  0.00  0.00    +0.000 A 
ATOM     22  C   UNL     1       1.485   3.185  18.907  0.00  0.00    +0.000 A 
ENDBRANCH  16  17
ENDBRANCH  15  16
ENDBRANCH   1  15
TORSDOF 5
ENDMDL
MODEL 3
REMARK VINA RESULT:      -6.9      3.193      5.648
REMARK  Name = 
REMARK  6 active torsions:
REMARK  status: ('A' for Active; 'I' for Inactive)
REMARK    1  A    between atoms: C_1  and  N_2
REMARK    2  A    between atoms: N_2  and  C_3
REMARK    3  A    between atoms: N_2  and  N_10
REMARK    4  A    between atoms: C_3  and  C_4
REMARK    5  A    between atoms: N_11  and  C_12
REMARK    6  A    between atoms: C_15  and  C_16
REMARK                            x       y       z     vdW  Elec       q    Type
REMARK                         _______ _______ _______ _____ _____    ______ ____
ROOT
ATOM      1  N   UNL     1       2.685   6.718  18.837  0.00  0.00    +0.000 NA
ATOM      2  N   UNL     1       3.772   6.177  19.117  0.00  0.00    +0.000 NA
ENDROOT
BRANCH   2   3
ATOM      3  C   UNL     1       4.501   5.827  17.962  0.00  0.00    +0.000 A 
ATOM      4  C   UNL     1       4.455   4.494  17.537  0.00  0.00    +0.000 A 
ATOM      5  C   UNL     1       5.147   4.071  16.393  0.00  0.00    +0.000 A 
ATOM      6  C   UNL     1       5.895   4.986  15.645  0.00  0.00    +0.000 A 
ATOM      7  C   UNL     1       5.937   6.323  16.058  0.00  0.00    +0.000 A 
ATOM      8  C   UNL     1       5.242   6.740  17.199  0.00  0.00    +0.000 A 
BRANCH   6   9
ATOM      9  C   UNL     1       6.660   4.616  14.416  0.00  0.00    +0.000 C 
ATOM     10  N   UNL     1       6.265   3.520  13.702  0.00  0.00    +0.000 N 
ATOM     11  O   UNL     1       7.622   5.273  14.040  0.00  0.00    +0.000 OA
ATOM     12  H   UNL     1       5.480   2.929  13.918  0.00  0.00    +0.000 HD
ATOM     13  H   UNL     1       6.804   3.306  12.871  0.00  0.00    +0.000 HD
ENDBRANCH   6   9
ENDBRANCH   2   3
BRANCH   1  15
ATOM     14  C   UNL     1       1.642   8.537  19.961  0.00  0.00    +0.000 C 
ATOM     15  N   UNL     1       1.966   7.125  19.926  0.00  0.00    +0.000 N 
BRANCH  15  16
ATOM     16  C   UNL     1       1.318   6.199  20.857  0.00  0.00    +0.000 C 
BRANCH  16  17
ATOM     17  C   UNL     1       1.486   4.718  20.600  0.00  0.00    +0.000 A 
ATOM     18  C   UNL     1       0.902   4.042  19.521  0.00  0.00    +0.000 A 
ATOM     19  C   UNL     1       1.108   2.674  19.338  0.00  0.00    +0.000 A 
ATOM     20  C   UNL     1       1.906   1.956  20.228  0.00  0.00    +0.000 A 
ATOM     21  C   UNL     1       2.497   2.608  21.305  0.00  0.00    +0.000 A 
ATOM     22  C   UNL     1       2.287   3.978  21.490  0.00  0.00    +0.000 A 
ENDBRANCH  16  17
ENDBRANCH  15  16
ENDBRANCH   1  15
TORSDOF 5
ENDMDL
MODEL 4
REMARK VINA RESULT:      -6.9      3.216      5.572
REMARK  Name = 
REMARK  6 active torsions:
REMARK  status: ('A' for Active; 'I' for Inactive)
REMARK    1  A    between atoms: C_1  and  N_2
REMARK    2  A    between atoms: N_2  and  C_3
REMARK    3  A    between atoms: N_2  and  N_10
REMARK    4  A    between atoms: C_3  and  C_4
REMARK    5  A    between atoms: N_11  and  C_12
REMARK    6  A    between atoms: C_15  and  C_16
REMARK                            x       y       z     vdW  Elec       q    Type
REMARK                         _______ _______ _______ _____ _____    ______ ____
ROOT
ATOM      1  N   UNL     1       2.754   6.699  18.855  0.00  0.00    +0.000 NA
ATOM      2  N   UNL     1       3.873   6.239  19.151  0.00  0.00    +0.000 NA
ENDROOT
BRANCH   2   3
ATOM      3  C   UNL     1       4.612   5.869  18.008  0.00  0.00    +0.000 A 
ATOM      4  C   UNL     1       4.149   4.787  17.250  0.00  0.00    +0.000 A 
ATOM      5  C   UNL     1       4.824   4.365  16.097  0.00  0.00    +0.000 A 
ATOM      6  C   UNL     1       5.980   5.031  15.674  0.00  0.00    +0.000 A 
ATOM      7  C   UNL     1       6.442   6.122  16.421  0.00  0.00    +0.000 A 
ATOM      8  C   UNL     1       5.761   6.540  17.570  0.00  0.00    +0.000 A 
BRANCH   6   9
ATOM      9  C   UNL     1       6.756   4.645  14.458  0.00  0.00    +0.000 C 
ATOM     10  N   UNL     1       6.377   3.532  13.762  0.00  0.00    +0.000 N 
ATOM     11  O   UNL     1       7.715   5.304  14.076  0.00  0.00    +0.000 OA
ATOM     12  H   UNL     1       5.595   2.938  13.984  0.00  0.00    +0.000 HD
ATOM     13  H   UNL     1       6.924   3.307  12.940  0.00  0.00    +0.000 HD
ENDBRANCH   6   9
ENDBRANCH   2   3
BRANCH   1  15
ATOM     14  C   UNL     1       1.687   8.533  19.933  0.00  0.00    +0.000 C 
ATOM     15  N   UNL     1       2.021   7.123  19.929  0.00  0.00    +0.000 N 
BRANCH  15  16
ATOM     16  C   UNL     1       1.370   6.211  20.871  0.00  0.00    +0.000 C 
BRANCH  16  17
ATOM     17  C   UNL     1       1.574   4.726  20.661  0.00  0.00    +0.000 A 
ATOM     18  C   UNL     1       2.333   3.915  21.514  0.00  0.00    +0.000 A 
ATOM     19  C   UNL     1       2.471   2.548  21.266  0.00  0.00    +0.000 A 
ATOM     20  C   UNL     1       1.848   1.967  20.162  0.00  0.00    +0.000 A 
ATOM     21  C   UNL     1       1.087   2.754  19.304  0.00  0.00    +0.000 A 
ATOM     22  C   UNL     1       0.953   4.123  19.551  0.00  0.00    +0.000 A 
ENDBRANCH  16  17
ENDBRANCH  15  16
ENDBRANCH   1  15
TORSDOF 5
ENDMDL
MODEL 5
REMARK VINA RESULT:      -6.9      3.186      5.634
REMARK  Name = 
REMARK  6 active torsions:
REMARK  status: ('A' for Active; 'I' for Inactive)
REMARK    1  A    between atoms: C_1  and  N_2
REMARK    2  A    between atoms: N_2  and  C_3
REMARK    3  A    between atoms: N_2  and  N_10
REMARK    4  A    between atoms: C_3  and  C_4
REMARK    5  A    between atoms: N_11  and  C_12
REMARK    6  A    between atoms: C_15  and  C_16
REMARK                            x       y       z     vdW  Elec       q    Type
REMARK                         _______ _______ _______ _____ _____    ______ ____
ROOT
ATOM      1  N   UNL     1       2.686   6.672  18.701  0.00  0.00    +0.000 NA
ATOM      2  N   UNL     1       3.837   6.265  18.947  0.00  0.00    +0.000 NA
ENDROOT
BRANCH   2   3
ATOM      3  C   UNL     1       4.500   5.819  17.785  0.00  0.00    +0.000 A 
ATOM      4  C   UNL     1       4.843   6.772  16.819  0.00  0.00    +0.000 A 
ATOM      5  C   UNL     1       5.510   6.408  15.641  0.00  0.00    +0.000 A 
ATOM      6  C   UNL     1       5.856   5.071  15.413  0.00  0.00    +0.000 A 
ATOM      7  C   UNL     1       5.525   4.113  16.380  0.00  0.00    +0.000 A 
ATOM      8  C   UNL     1       4.862   4.485  17.555  0.00  0.00    +0.000 A 
BRANCH   6   9
ATOM      9  C   UNL     1       6.566   4.601  14.187  0.00  0.00    +0.000 C 
ATOM     10  N   UNL     1       6.198   3.409  13.630  0.00  0.00    +0.000 N 
ATOM     11  O   UNL     1       7.462   5.261  13.675  0.00  0.00    +0.000 OA
ATOM     12  H   UNL     1       5.465   2.806  13.965  0.00  0.00    +0.000 HD
ATOM     13  H   UNL     1       6.698   3.128  12.796  0.00  0.00    +0.000 HD
ENDBRANCH   6   9
ENDBRANCH   2   3
BRANCH   1  15
ATOM     14  C   UNL     1       1.607   8.550  19.686  0.00  0.00    +0.000 C 
ATOM     15  N   UNL     1       2.022   7.165  19.790  0.00  0.00    +0.000 N 
BRANCH  15  16
ATOM     16  C   UNL     1       1.508   6.323  20.872  0.00  0.00    +0.000 C 
BRANCH  16  17
ATOM     17  C   UNL     1       1.642   4.824  20.714  0.00  0.00    +0.000 A 
ATOM     18  C   UNL     1       2.465   4.026  21.519  0.00  0.00    +0.000 A 
ATOM     19  C   UNL     1       2.533   2.645  21.325  0.00  0.00    +0.000 A 
ATOM     20  C   UNL     1       1.775   2.037  20.325  0.00  0.00    +0.000 A 
ATOM     21  C   UNL     1       0.950   2.811  19.516  0.00  0.00    +0.000 A 
ATOM     22  C   UNL     1       0.886   4.194  19.708  0.00  0.00    +0.000 A 
ENDBRANCH  16  17
ENDBRANCH  15  16
ENDBRANCH   1  15
TORSDOF 5
ENDMDL
MODEL 6
REMARK VINA RESULT:      -6.9      0.768      1.321
REMARK  Name = 
REMARK  6 active torsions:
REMARK  status: ('A' for Active; 'I' for Inactive)
REMARK    1  A    between atoms: C_1  and  N_2
REMARK    2  A    between atoms: N_2  and  C_3
REMARK    3  A    between atoms: N_2  and  N_10
REMARK    4  A    between atoms: C_3  and  C_4
REMARK    5  A    between atoms: N_11  and  C_12
REMARK    6  A    between atoms: C_15  and  C_16
REMARK                            x       y       z     vdW  Elec       q    Type
REMARK                         _______ _______ _______ _____ _____    ______ ____
ROOT
ATOM      1  N   UNL     1       3.174   5.284  17.439  0.00  0.00    +0.000 NA
ATOM      2  N   UNL     1       3.727   6.107  18.194  0.00  0.00    +0.000 NA
ENDROOT
BRANCH   2   3
ATOM      3  C   UNL     1       2.886   7.199  18.492  0.00  0.00    +0.000 A 
ATOM      4  C   UNL     1       2.299   7.247  19.762  0.00  0.00    +0.000 A 
ATOM      5  C   UNL     1       1.458   8.304  20.136  0.00  0.00    +0.000 A 
ATOM      6  C   UNL     1       1.196   9.345  19.239  0.00  0.00    +0.000 A 
ATOM      7  C   UNL     1       1.788   9.310  17.970  0.00  0.00    +0.000 A 
ATOM      8  C   UNL     1       2.629   8.253  17.605  0.00  0.00    +0.000 A 
BRANCH   6   9
ATOM      9  C   UNL     1       0.313  10.506  19.559  0.00  0.00    +0.000 C 
ATOM     10  N   UNL     1      -0.438  10.466  20.700  0.00  0.00    +0.000 N 
ATOM     11  O   UNL     1       0.253  11.485  18.826  0.00  0.00    +0.000 OA
ATOM     12  H   UNL     1      -0.445   9.718  21.374  0.00  0.00    +0.000 HD
ATOM     13  H   UNL     1      -1.018  11.275  20.886  0.00  0.00    +0.000 HD
ENDBRANCH   6   9
ENDBRANCH   2   3
BRANCH   1  15
ATOM     14  C   UNL     1       5.122   4.426  16.375  0.00  0.00    +0.000 C 
ATOM     15  N   UNL     1       3.931   4.180  17.164  0.00  0.00    +0.000 N 
BRANCH  15  16
ATOM     16  C   UNL     1       3.743   2.887  17.826  0.00  0.00    +0.000 C 
BRANCH  16  17
ATOM     17  C   UNL     1       2.852   2.852  19.048  0.00  0.00    +0.000 A 
ATOM     18  C   UNL     1       1.453   2.901  18.994  0.00  0.00    +0.000 A 
ATOM     19  C   UNL     1       0.690   2.853  20.163  0.00  0.00    +0.000 A 
ATOM     20  C   UNL     1       1.312   2.751  21.406  0.00  0.00    +0.000 A 
ATOM     21  C   UNL     1       2.700   2.698  21.482  0.00  0.00    +0.000 A 
ATOM     22  C   UNL     1       3.463   2.750  20.312  0.00  0.00    +0.000 A 
ENDBRANCH  16  17
ENDBRANCH  15  16
ENDBRANCH   1  15
TORSDOF 5
ENDMDL
MODEL 7
REMARK VINA RESULT:      -6.8      0.735      1.690
REMARK  Name = 
REMARK  6 active torsions:
REMARK  status: ('A' for Active; 'I' for Inactive)
REMARK    1  A    between atoms: C_1  and  N_2
REMARK    2  A    between atoms: N_2  and  C_3
REMARK    3  A    between atoms: N_2  and  N_10
REMARK    4  A    between atoms: C_3  and  C_4
REMARK    5  A    between atoms: N_11  and  C_12
REMARK    6  A    between atoms: C_15  and  C_16
REMARK                            x       y       z     vdW  Elec       q    Type
REMARK                         _______ _______ _______ _____ _____    ______ ____
ROOT
ATOM      1  N   UNL     1       3.294   5.464  17.498  0.00  0.00    +0.000 NA
ATOM      2  N   UNL     1       3.646   6.079  18.523  0.00  0.00    +0.000 NA
ENDROOT
BRANCH   2   3
ATOM      3  C   UNL     1       2.816   7.188  18.786  0.00  0.00    +0.000 A 
ATOM      4  C   UNL     1       2.651   8.139  17.772  0.00  0.00    +0.000 A 
ATOM      5  C   UNL     1       1.836   9.264  17.954  0.00  0.00    +0.000 A 
ATOM      6  C   UNL     1       1.158   9.453  19.164  0.00  0.00    +0.000 A 
ATOM      7  C   UNL     1       1.308   8.500  20.179  0.00  0.00    +0.000 A 
ATOM      8  C   UNL     1       2.122   7.377  19.989  0.00  0.00    +0.000 A 
BRANCH   6   9
ATOM      9  C   UNL     1       0.271  10.624  19.437  0.00  0.00    +0.000 C 
ATOM     10  N   UNL     1      -0.199  10.809  20.707  0.00  0.00    +0.000 N 
ATOM     11  O   UNL     1      -0.036  11.413  18.554  0.00  0.00    +0.000 OA
ATOM     12  H   UNL     1       0.010  10.228  21.502  0.00  0.00    +0.000 HD
ATOM     13  H   UNL     1      -0.792  11.617  20.854  0.00  0.00    +0.000 HD
ENDBRANCH   6   9
ENDBRANCH   2   3
BRANCH   1  15
ATOM     14  C   UNL     1       5.316   4.592  16.597  0.00  0.00    +0.000 C 
ATOM     15  N   UNL     1       4.037   4.348  17.233  0.00  0.00    +0.000 N 
BRANCH  15  16
ATOM     16  C   UNL     1       3.729   3.025  17.780  0.00  0.00    +0.000 C 
BRANCH  16  17
ATOM     17  C   UNL     1       2.850   2.965  19.009  0.00  0.00    +0.000 A 
ATOM     18  C   UNL     1       1.458   3.125  18.982  0.00  0.00    +0.000 A 
ATOM     19  C   UNL     1       0.706   3.048  20.156  0.00  0.00    +0.000 A 
ATOM     20  C   UNL     1       1.331   2.803  21.378  0.00  0.00    +0.000 A 
ATOM     21  C   UNL     1       2.712   2.638  21.427  0.00  0.00    +0.000 A 
ATOM     22  C   UNL     1       3.464   2.721  20.252  0.00  0.00    +0.000 A 
ENDBRANCH  16  17
ENDBRANCH  15  16
ENDBRANCH   1  15
TORSDOF 5
ENDMDL
MODEL 8
REMARK VINA RESULT:      -6.8      1.781      2.380
REMARK  Name = 
REMARK  6 active torsions:
REMARK  status: ('A' for Active; 'I' for Inactive)
REMARK    1  A    between atoms: C_1  and  N_2
REMARK    2  A    between atoms: N_2  and  C_3
REMARK    3  A    between atoms: N_2  and  N_10
REMARK    4  A    between atoms: C_3  and  C_4
REMARK    5  A    between atoms: N_11  and  C_12
REMARK    6  A    between atoms: C_15  and  C_16
REMARK                            x       y       z     vdW  Elec       q    Type
REMARK                         _______ _______ _______ _____ _____    ______ ____
ROOT
ATOM      1  N   UNL     1       2.939   6.805  18.568  0.00  0.00    +0.000 NA
ATOM      2  N   UNL     1       2.390   7.818  18.096  0.00  0.00    +0.000 NA
ENDROOT
BRANCH   2   3
ATOM      3  C   UNL     1       1.700   8.553  19.082  0.00  0.00    +0.000 A 
ATOM      4  C   UNL     1       1.655   8.029  20.379  0.00  0.00    +0.000 A 
ATOM      5  C   UNL     1       0.995   8.705  21.415  0.00  0.00    +0.000 A 
ATOM      6  C   UNL     1       0.371   9.933  21.169  0.00  0.00    +0.000 A 
ATOM      7  C   UNL     1       0.422  10.470  19.876  0.00  0.00    +0.000 A 
ATOM      8  C   UNL     1       1.085   9.791  18.847  0.00  0.00    +0.000 A 
BRANCH   6   9
ATOM      9  C   UNL     1      -0.351  10.716  22.216  0.00  0.00    +0.000 C 
ATOM     10  N   UNL     1      -1.154  11.750  21.826  0.00  0.00    +0.000 N 
ATOM     11  O   UNL     1      -0.240  10.447  23.405  0.00  0.00    +0.000 OA
ATOM     12  H   UNL     1      -1.324  12.037  20.876  0.00  0.00    +0.000 HD
ATOM     13  H   UNL     1      -1.632  12.252  22.565  0.00  0.00    +0.000 HD
ENDBRANCH   6   9
ENDBRANCH   2   3
BRANCH   1  15
ATOM     14  C   UNL     1       4.744   6.815  17.017  0.00  0.00    +0.000 C 
ATOM     15  N   UNL     1       3.667   6.088  17.659  0.00  0.00    +0.000 N 
BRANCH  15  16
ATOM     16  C   UNL     1       3.579   4.633  17.523  0.00  0.00    +0.000 C 
BRANCH  16  17
ATOM     17  C   UNL     1       2.784   3.880  18.567  0.00  0.00    +0.000 A 
ATOM     18  C   UNL     1       1.457   3.467  18.390  0.00  0.00    +0.000 A 
ATOM     19  C   UNL     1       0.786   2.766  19.393  0.00  0.00    +0.000 A 
ATOM     20  C   UNL     1       1.432   2.460  20.591  0.00  0.00    +0.000 A 
ATOM     21  C   UNL     1       2.750   2.858  20.787  0.00  0.00    +0.000 A 
ATOM     22  C   UNL     1       3.420   3.565  19.783  0.00  0.00    +0.000 A 
ENDBRANCH  16  17
ENDBRANCH  15  16
ENDBRANCH   1  15
TORSDOF 5
ENDMDL
MODEL 9
REMARK VINA RESULT:      -6.8      3.244      7.500
REMARK  Name = 
REMARK  6 active torsions:
REMARK  status: ('A' for Active; 'I' for Inactive)
REMARK    1  A    between atoms: C_1  and  N_2
REMARK    2  A    between atoms: N_2  and  C_3
REMARK    3  A    between atoms: N_2  and  N_10
REMARK    4  A    between atoms: C_3  and  C_4
REMARK    5  A    between atoms: N_11  and  C_12
REMARK    6  A    between atoms: C_15  and  C_16
REMARK                            x       y       z     vdW  Elec       q    Type
REMARK                         _______ _______ _______ _____ _____    ______ ____
ROOT
ATOM      1  N   UNL     1       1.257   7.943  21.004  0.00  0.00    +0.000 NA
ATOM      2  N   UNL     1       1.868   7.838  19.924  0.00  0.00    +0.000 NA
ENDROOT
BRANCH   2   3
ATOM      3  C   UNL     1       2.378   6.538  19.727  0.00  0.00    +0.000 A 
ATOM      4  C   UNL     1       1.955   5.530  20.601  0.00  0.00    +0.000 A 
ATOM      5  C   UNL     1       2.411   4.211  20.465  0.00  0.00    +0.000 A 
ATOM      6  C   UNL     1       3.299   3.876  19.437  0.00  0.00    +0.000 A 
ATOM      7  C   UNL     1       3.718   4.878  18.552  0.00  0.00    +0.000 A 
ATOM      8  C   UNL     1       3.256   6.192  18.692  0.00  0.00    +0.000 A 
BRANCH   6   9
ATOM      9  C   UNL     1       3.831   2.497  19.224  0.00  0.00    +0.000 C 
ATOM     10  N   UNL     1       4.942   2.107  19.917  0.00  0.00    +0.000 N 
ATOM     11  O   UNL     1       3.293   1.717  18.449  0.00  0.00    +0.000 OA
ATOM     12  H   UNL     1       5.444   2.666  20.587  0.00  0.00    +0.000 HD
ATOM     13  H   UNL     1       5.268   1.162  19.750  0.00  0.00    +0.000 HD
ENDBRANCH   6   9
ENDBRANCH   2   3
BRANCH   1  15
ATOM     14  C   UNL     1       0.214   9.410  22.560  0.00  0.00    +0.000 C 
ATOM     15  N   UNL     1       0.698   9.172  21.214  0.00  0.00    +0.000 N 
BRANCH  15  16
ATOM     16  C   UNL     1       0.811  10.283  20.267  0.00  0.00    +0.000 C 
BRANCH  16  17
ATOM     17  C   UNL     1      -0.431  10.673  19.496  0.00  0.00    +0.000 A 
ATOM     18  C   UNL     1      -1.360  11.622  19.942  0.00  0.00    +0.000 A 
ATOM     19  C   UNL     1      -2.480  11.942  19.174  0.00  0.00    +0.000 A 
ATOM     20  C   UNL     1      -2.690  11.322  17.943  0.00  0.00    +0.000 A 
ATOM     21  C   UNL     1      -1.779  10.379  17.480  0.00  0.00    +0.000 A 
ATOM     22  C   UNL     1      -0.660  10.056  18.252  0.00  0.00    +0.000 A 
ENDBRANCH  16  17
ENDBRANCH  15  16
ENDBRANCH   1  15
TORSDOF 5
ENDMDL
