MODEL 1
REMARK VINA RESULT:      -7.3      0.000      0.000
REMARK  Name = 
REMARK  5 active torsions:
REMARK  status: ('A' for Active; 'I' for Inactive)
REMARK    1  A    between atoms: C_2  and  C_4
REMARK    2  A    between atoms: C_4  and  O_5
REMARK    3  A    between atoms: O_5  and  C_6
REMARK    4  A    between atoms: C_6  and  C_8
REMARK    5  A    between atoms: N_10  and  C_11
REMARK                            x       y       z     vdW  Elec       q    Type
REMARK                         _______ _______ _______ _____ _____    ______ ____
ROOT
ATOM      1  C   UNL     1       6.298   4.724  18.747  0.00  0.00    +0.000 C 
ATOM      2  O   UNL     1       6.497   5.376  19.763  0.00  0.00    +0.000 OA
ATOM      3  N   UNL     1       5.175   3.982  18.434  0.00  0.00    +0.000 N 
ATOM      4  H   UNL     1       5.318   3.239  17.735  0.00  0.00    +0.000 HD
ENDROOT
BRANCH   3   5
ATOM      5  C   UNL     1       4.031   3.885  19.214  0.00  0.00    +0.000 A 
ATOM      6  C   UNL     1       3.023   4.759  19.054  0.00  0.00    +0.000 A 
ATOM      7  C   UNL     1       1.727   4.836  19.668  0.00  0.00    +0.000 A 
ATOM      8  C   UNL     1       1.203   4.072  20.634  0.00  0.00    +0.000 A 
ATOM      9  C   UNL     1       1.808   2.980  21.325  0.00  0.00    +0.000 A 
ATOM     10  C   UNL     1       3.003   2.418  21.130  0.00  0.00    +0.000 A 
ATOM     11  C   UNL     1       4.081   2.734  20.168  0.00  0.00    +0.000 A 
ATOM     12  O   UNL     1       5.096   2.032  20.220  0.00  0.00    +0.000 OA
ENDBRANCH   3   5
BRANCH   1  13
ATOM     13  C   UNL     1       7.376   4.646  17.662  0.00  0.00    +0.000 C 
ATOM     14  O   UNL     1       8.435   4.065  17.830  0.00  0.00    +0.000 OA
BRANCH  13  15
ATOM     15  O   UNL     1       6.984   5.368  16.593  0.00  0.00    +0.000 OA
BRANCH  15  16
ATOM     16  C   UNL     1       7.173   4.680  15.343  0.00  0.00    +0.000 C 
BRANCH  16  18
ATOM     17  O   UNL     1       5.869   3.812  13.566  0.00  0.00    +0.000 OA
ATOM     18  C   UNL     1       5.824   4.211  14.776  0.00  0.00    +0.000 C 
ATOM     19  O   UNL     1       4.817   4.271  15.533  0.00  0.00    +0.000 OA
ENDBRANCH  16  18
ENDBRANCH  15  16
ENDBRANCH  13  15
ENDBRANCH   1  13
TORSDOF 5
ENDMDL
MODEL 2
REMARK VINA RESULT:      -7.3      1.474      2.821
REMARK  Name = 
REMARK  5 active torsions:
REMARK  status: ('A' for Active; 'I' for Inactive)
REMARK    1  A    between atoms: C_2  and  C_4
REMARK    2  A    between atoms: C_4  and  O_5
REMARK    3  A    between atoms: O_5  and  C_6
REMARK    4  A    between atoms: C_6  and  C_8
REMARK    5  A    between atoms: N_10  and  C_11
REMARK                            x       y       z     vdW  Elec       q    Type
REMARK                         _______ _______ _______ _____ _____    ______ ____
ROOT
ATOM      1  C   UNL     1       5.090   4.560  16.846  0.00  0.00    +0.000 C 
ATOM      2  O   UNL     1       4.587   5.668  16.983  0.00  0.00    +0.000 OA
ATOM      3  N   UNL     1       4.683   3.377  17.431  0.00  0.00    +0.000 N 
ATOM      4  H   UNL     1       5.404   2.643  17.491  0.00  0.00    +0.000 HD
ENDROOT
BRANCH   3   5
ATOM      5  C   UNL     1       3.577   3.225  18.256  0.00  0.00    +0.000 A 
ATOM      6  C   UNL     1       2.335   3.347  17.758  0.00  0.00    +0.000 A 
ATOM      7  C   UNL     1       1.047   3.170  18.367  0.00  0.00    +0.000 A 
ATOM      8  C   UNL     1       0.746   2.894  19.642  0.00  0.00    +0.000 A 
ATOM      9  C   UNL     1       1.635   2.719  20.744  0.00  0.00    +0.000 A 
ATOM     10  C   UNL     1       2.970   2.719  20.757  0.00  0.00    +0.000 A 
ATOM     11  C   UNL     1       3.953   2.907  19.668  0.00  0.00    +0.000 A 
ATOM     12  O   UNL     1       5.146   2.857  19.983  0.00  0.00    +0.000 OA
ENDBRANCH   3   5
BRANCH   1  13
ATOM     13  C   UNL     1       6.331   4.386  15.966  0.00  0.00    +0.000 C 
ATOM     14  O   UNL     1       6.346   3.652  14.992  0.00  0.00    +0.000 OA
BRANCH  13  15
ATOM     15  O   UNL     1       7.352   5.091  16.493  0.00  0.00    +0.000 OA
BRANCH  15  16
ATOM     16  C   UNL     1       7.774   4.603  17.781  0.00  0.00    +0.000 C 
BRANCH  16  18
ATOM     17  O   UNL     1       7.985   6.877  18.410  0.00  0.00    +0.000 OA
ATOM     18  C   UNL     1       7.675   5.715  18.836  0.00  0.00    +0.000 C 
ATOM     19  O   UNL     1       7.316   5.389  20.000  0.00  0.00    +0.000 OA
ENDBRANCH  16  18
ENDBRANCH  15  16
ENDBRANCH  13  15
ENDBRANCH   1  13
TORSDOF 5
ENDMDL
MODEL 3
REMARK VINA RESULT:      -7.2      0.829      1.043
REMARK  Name = 
REMARK  5 active torsions:
REMARK  status: ('A' for Active; 'I' for Inactive)
REMARK    1  A    between atoms: C_2  and  C_4
REMARK    2  A    between atoms: C_4  and  O_5
REMARK    3  A    between atoms: O_5  and  C_6
REMARK    4  A    between atoms: C_6  and  C_8
REMARK    5  A    between atoms: N_10  and  C_11
REMARK                            x       y       z     vdW  Elec       q    Type
REMARK                         _______ _______ _______ _____ _____    ______ ____
ROOT
ATOM      1  C   UNL     1       6.236   4.841  18.659  0.00  0.00    +0.000 C 
ATOM      2  O   UNL     1       6.238   5.606  19.615  0.00  0.00    +0.000 OA
ATOM      3  N   UNL     1       5.250   3.939  18.311  0.00  0.00    +0.000 N 
ATOM      4  H   UNL     1       5.558   3.157  17.715  0.00  0.00    +0.000 HD
ENDROOT
BRANCH   3   5
ATOM      5  C   UNL     1       4.040   3.771  18.971  0.00  0.00    +0.000 A 
ATOM      6  C   UNL     1       2.965   4.492  18.613  0.00  0.00    +0.000 A 
ATOM      7  C   UNL     1       1.605   4.462  19.075  0.00  0.00    +0.000 A 
ATOM      8  C   UNL     1       1.063   3.732  20.057  0.00  0.00    +0.000 A 
ATOM      9  C   UNL     1       1.704   2.795  20.921  0.00  0.00    +0.000 A 
ATOM     10  C   UNL     1       2.970   2.372  20.915  0.00  0.00    +0.000 A 
ATOM     11  C   UNL     1       4.110   2.731  20.043  0.00  0.00    +0.000 A 
ATOM     12  O   UNL     1       5.186   2.170  20.278  0.00  0.00    +0.000 OA
ENDBRANCH   3   5
BRANCH   1  13
ATOM     13  C   UNL     1       7.435   4.799  17.709  0.00  0.00    +0.000 C 
ATOM     14  O   UNL     1       8.337   3.985  17.826  0.00  0.00    +0.000 OA
BRANCH  13  15
ATOM     15  O   UNL     1       7.345   5.821  16.834  0.00  0.00    +0.000 OA
BRANCH  15  16
ATOM     16  C   UNL     1       6.331   5.622  15.831  0.00  0.00    +0.000 C 
BRANCH  16  18
ATOM     17  O   UNL     1       6.367   3.748  14.384  0.00  0.00    +0.000 OA
ATOM     18  C   UNL     1       6.910   4.878  14.619  0.00  0.00    +0.000 C 
ATOM     19  O   UNL     1       7.851   5.430  13.987  0.00  0.00    +0.000 OA
ENDBRANCH  16  18
ENDBRANCH  15  16
ENDBRANCH  13  15
ENDBRANCH   1  13
TORSDOF 5
ENDMDL
MODEL 4
REMARK VINA RESULT:      -7.2      1.160      2.049
REMARK  Name = 
REMARK  5 active torsions:
REMARK  status: ('A' for Active; 'I' for Inactive)
REMARK    1  A    between atoms: C_2  and  C_4
REMARK    2  A    between atoms: C_4  and  O_5
REMARK    3  A    between atoms: O_5  and  C_6
REMARK    4  A    between atoms: C_6  and  C_8
REMARK    5  A    between atoms: N_10  and  C_11
REMARK                            x       y       z     vdW  Elec       q    Type
REMARK                         _______ _______ _______ _____ _____    ______ ____
ROOT
ATOM      1  C   UNL     1       6.273   4.781  18.679  0.00  0.00    +0.000 C 
ATOM      2  O   UNL     1       6.262   5.542  19.638  0.00  0.00    +0.000 OA
ATOM      3  N   UNL     1       5.324   3.833  18.352  0.00  0.00    +0.000 N 
ATOM      4  H   UNL     1       5.655   3.068  17.745  0.00  0.00    +0.000 HD
ENDROOT
BRANCH   3   5
ATOM      5  C   UNL     1       4.141   3.605  19.041  0.00  0.00    +0.000 A 
ATOM      6  C   UNL     1       4.125   2.806  20.120  0.00  0.00    +0.000 A 
ATOM      7  C   UNL     1       3.072   2.467  21.036  0.00  0.00    +0.000 A 
ATOM      8  C   UNL     1       1.781   2.822  21.008  0.00  0.00    +0.000 A 
ATOM      9  C   UNL     1       1.105   3.624  20.040  0.00  0.00    +0.000 A 
ATOM     10  C   UNL     1       1.602   4.264  18.980  0.00  0.00    +0.000 A 
ATOM     11  C   UNL     1       2.982   4.348  18.454  0.00  0.00    +0.000 A 
ATOM     12  O   UNL     1       3.148   5.025  17.435  0.00  0.00    +0.000 OA
ENDBRANCH   3   5
BRANCH   1  13
ATOM     13  C   UNL     1       7.450   4.800  17.700  0.00  0.00    +0.000 C 
ATOM     14  O   UNL     1       8.378   4.012  17.774  0.00  0.00    +0.000 OA
BRANCH  13  15
ATOM     15  O   UNL     1       7.306   5.839  16.853  0.00  0.00    +0.000 OA
BRANCH  15  16
ATOM     16  C   UNL     1       6.312   5.610  15.836  0.00  0.00    +0.000 C 
BRANCH  16  18
ATOM     17  O   UNL     1       6.411   3.756  14.365  0.00  0.00    +0.000 OA
ATOM     18  C   UNL     1       6.932   4.891  14.629  0.00  0.00    +0.000 C 
ATOM     19  O   UNL     1       7.881   5.464  14.028  0.00  0.00    +0.000 OA
ENDBRANCH  16  18
ENDBRANCH  15  16
ENDBRANCH  13  15
ENDBRANCH   1  13
TORSDOF 5
ENDMDL
MODEL 5
REMARK VINA RESULT:      -7.0      1.679      2.141
REMARK  Name = 
REMARK  5 active torsions:
REMARK  status: ('A' for Active; 'I' for Inactive)
REMARK    1  A    between atoms: C_2  and  C_4
REMARK    2  A    between atoms: C_4  and  O_5
REMARK    3  A    between atoms: O_5  and  C_6
REMARK    4  A    between atoms: C_6  and  C_8
REMARK    5  A    between atoms: N_10  and  C_11
REMARK                            x       y       z     vdW  Elec       q    Type
REMARK                         _______ _______ _______ _____ _____    ______ ____
ROOT
ATOM      1  C   UNL     1       5.844   5.260  18.075  0.00  0.00    +0.000 C 
ATOM      2  O   UNL     1       6.321   4.511  18.917  0.00  0.00    +0.000 OA
ATOM      3  N   UNL     1       4.507   5.513  17.840  0.00  0.00    +0.000 N 
ATOM      4  H   UNL     1       4.284   5.872  16.900  0.00  0.00    +0.000 HD
ENDROOT
BRANCH   3   5
ATOM      5  C   UNL     1       3.447   4.988  18.567  0.00  0.00    +0.000 A 
ATOM      6  C   UNL     1       3.093   5.534  19.742  0.00  0.00    +0.000 A 
ATOM      7  C   UNL     1       2.012   5.235  20.640  0.00  0.00    +0.000 A 
ATOM      8  C   UNL     1       1.095   4.263  20.564  0.00  0.00    +0.000 A 
ATOM      9  C   UNL     1       0.959   3.249  19.569  0.00  0.00    +0.000 A 
ATOM     10  C   UNL     1       1.663   3.068  18.450  0.00  0.00    +0.000 A 
ATOM     11  C   UNL     1       2.799   3.827  17.882  0.00  0.00    +0.000 A 
ATOM     12  O   UNL     1       3.260   3.418  16.812  0.00  0.00    +0.000 OA
ENDBRANCH   3   5
BRANCH   1  13
ATOM     13  C   UNL     1       6.765   6.018  17.115  0.00  0.00    +0.000 C 
ATOM     14  O   UNL     1       6.739   7.233  17.003  0.00  0.00    +0.000 OA
BRANCH  13  15
ATOM     15  O   UNL     1       7.497   5.133  16.410  0.00  0.00    +0.000 OA
BRANCH  15  16
ATOM     16  C   UNL     1       6.717   4.367  15.472  0.00  0.00    +0.000 C 
BRANCH  16  18
ATOM     17  O   UNL     1       6.527   4.021  13.137  0.00  0.00    +0.000 OA
ATOM     18  C   UNL     1       7.102   4.728  14.030  0.00  0.00    +0.000 C 
ATOM     19  O   UNL     1       7.937   5.658  13.860  0.00  0.00    +0.000 OA
ENDBRANCH  16  18
ENDBRANCH  15  16
ENDBRANCH  13  15
ENDBRANCH   1  13
TORSDOF 5
ENDMDL
MODEL 6
REMARK VINA RESULT:      -7.0      1.767      3.172
REMARK  Name = 
REMARK  5 active torsions:
REMARK  status: ('A' for Active; 'I' for Inactive)
REMARK    1  A    between atoms: C_2  and  C_4
REMARK    2  A    between atoms: C_4  and  O_5
REMARK    3  A    between atoms: O_5  and  C_6
REMARK    4  A    between atoms: C_6  and  C_8
REMARK    5  A    between atoms: N_10  and  C_11
REMARK                            x       y       z     vdW  Elec       q    Type
REMARK                         _______ _______ _______ _____ _____    ______ ____
ROOT
ATOM      1  C   UNL     1       4.815   4.946  16.615  0.00  0.00    +0.000 C 
ATOM      2  O   UNL     1       5.087   3.763  16.461  0.00  0.00    +0.000 OA
ATOM      3  N   UNL     1       3.817   5.480  17.406  0.00  0.00    +0.000 N 
ATOM      4  H   UNL     1       3.509   6.429  17.148  0.00  0.00    +0.000 HD
ENDROOT
BRANCH   3   5
ATOM      5  C   UNL     1       2.959   4.754  18.221  0.00  0.00    +0.000 A 
ATOM      6  C   UNL     1       1.939   4.062  17.689  0.00  0.00    +0.000 A 
ATOM      7  C   UNL     1       0.969   3.189  18.289  0.00  0.00    +0.000 A 
ATOM      8  C   UNL     1       0.789   2.887  19.581  0.00  0.00    +0.000 A 
ATOM      9  C   UNL     1       1.512   3.371  20.712  0.00  0.00    +0.000 A 
ATOM     10  C   UNL     1       2.574   4.178  20.751  0.00  0.00    +0.000 A 
ATOM     11  C   UNL     1       3.333   4.838  19.667  0.00  0.00    +0.000 A 
ATOM     12  O   UNL     1       4.288   5.544  20.008  0.00  0.00    +0.000 OA
ENDBRANCH   3   5
BRANCH   1  13
ATOM     13  C   UNL     1       5.606   6.018  15.860  0.00  0.00    +0.000 C 
ATOM     14  O   UNL     1       5.074   6.815  15.104  0.00  0.00    +0.000 OA
BRANCH  13  15
ATOM     15  O   UNL     1       6.920   5.863  16.114  0.00  0.00    +0.000 OA
BRANCH  15  16
ATOM     16  C   UNL     1       7.306   6.332  17.420  0.00  0.00    +0.000 C 
BRANCH  16  18
ATOM     17  O   UNL     1       7.614   5.340  19.549  0.00  0.00    +0.000 OA
ATOM     18  C   UNL     1       7.774   5.160  18.297  0.00  0.00    +0.000 C 
ATOM     19  O   UNL     1       8.269   4.155  17.718  0.00  0.00    +0.000 OA
ENDBRANCH  16  18
ENDBRANCH  15  16
ENDBRANCH  13  15
ENDBRANCH   1  13
TORSDOF 5
ENDMDL
MODEL 7
REMARK VINA RESULT:      -6.9      1.605      2.149
REMARK  Name = 
REMARK  5 active torsions:
REMARK  status: ('A' for Active; 'I' for Inactive)
REMARK    1  A    between atoms: C_2  and  C_4
REMARK    2  A    between atoms: C_4  and  O_5
REMARK    3  A    between atoms: O_5  and  C_6
REMARK    4  A    between atoms: C_6  and  C_8
REMARK    5  A    between atoms: N_10  and  C_11
REMARK                            x       y       z     vdW  Elec       q    Type
REMARK                         _______ _______ _______ _____ _____    ______ ____
ROOT
ATOM      1  C   UNL     1       5.294   4.476  16.771  0.00  0.00    +0.000 C 
ATOM      2  O   UNL     1       4.920   5.622  16.982  0.00  0.00    +0.000 OA
ATOM      3  N   UNL     1       4.768   3.313  17.299  0.00  0.00    +0.000 N 
ATOM      4  H   UNL     1       5.404   2.502  17.301  0.00  0.00    +0.000 HD
ENDROOT
BRANCH   3   5
ATOM      5  C   UNL     1       3.667   3.236  18.140  0.00  0.00    +0.000 A 
ATOM      6  C   UNL     1       2.429   3.436  17.659  0.00  0.00    +0.000 A 
ATOM      7  C   UNL     1       1.140   3.345  18.287  0.00  0.00    +0.000 A 
ATOM      8  C   UNL     1       0.840   3.094  19.568  0.00  0.00    +0.000 A 
ATOM      9  C   UNL     1       1.732   2.866  20.658  0.00  0.00    +0.000 A 
ATOM     10  C   UNL     1       3.064   2.780  20.652  0.00  0.00    +0.000 A 
ATOM     11  C   UNL     1       4.042   2.900  19.549  0.00  0.00    +0.000 A 
ATOM     12  O   UNL     1       5.234   2.775  19.847  0.00  0.00    +0.000 OA
ENDBRANCH   3   5
BRANCH   1  13
ATOM     13  C   UNL     1       6.492   4.218  15.854  0.00  0.00    +0.000 C 
ATOM     14  O   UNL     1       7.609   4.646  16.096  0.00  0.00    +0.000 OA
BRANCH  13  15
ATOM     15  O   UNL     1       6.078   3.544  14.762  0.00  0.00    +0.000 OA
BRANCH  15  16
ATOM     16  C   UNL     1       6.518   4.138  13.526  0.00  0.00    +0.000 C 
BRANCH  16  18
ATOM     17  O   UNL     1       4.734   3.485  12.111  0.00  0.00    +0.000 OA
ATOM     18  C   UNL     1       5.983   3.342  12.326  0.00  0.00    +0.000 C 
ATOM     19  O   UNL     1       6.801   2.629  11.683  0.00  0.00    +0.000 OA
ENDBRANCH  16  18
ENDBRANCH  15  16
ENDBRANCH  13  15
ENDBRANCH   1  13
TORSDOF 5
ENDMDL
MODEL 8
REMARK VINA RESULT:      -6.9      1.418      2.014
REMARK  Name = 
REMARK  5 active torsions:
REMARK  status: ('A' for Active; 'I' for Inactive)
REMARK    1  A    between atoms: C_2  and  C_4
REMARK    2  A    between atoms: C_4  and  O_5
REMARK    3  A    between atoms: O_5  and  C_6
REMARK    4  A    between atoms: C_6  and  C_8
REMARK    5  A    between atoms: N_10  and  C_11
REMARK                            x       y       z     vdW  Elec       q    Type
REMARK                         _______ _______ _______ _____ _____    ______ ____
ROOT
ATOM      1  C   UNL     1       5.807   4.648  18.679  0.00  0.00    +0.000 C 
ATOM      2  O   UNL     1       5.404   5.726  19.096  0.00  0.00    +0.000 OA
ATOM      3  N   UNL     1       5.154   3.432  18.735  0.00  0.00    +0.000 N 
ATOM      4  H   UNL     1       5.761   2.602  18.667  0.00  0.00    +0.000 HD
ENDROOT
BRANCH   3   5
ATOM      5  C   UNL     1       3.879   3.224  19.242  0.00  0.00    +0.000 A 
ATOM      6  C   UNL     1       3.702   2.941  20.543  0.00  0.00    +0.000 A 
ATOM      7  C   UNL     1       2.509   2.756  21.320  0.00  0.00    +0.000 A 
ATOM      8  C   UNL     1       1.231   2.753  20.920  0.00  0.00    +0.000 A 
ATOM      9  C   UNL     1       0.717   2.918  19.599  0.00  0.00    +0.000 A 
ATOM     10  C   UNL     1       1.373   3.181  18.466  0.00  0.00    +0.000 A 
ATOM     11  C   UNL     1       2.815   3.373  18.200  0.00  0.00    +0.000 A 
ATOM     12  O   UNL     1       3.138   3.607  17.031  0.00  0.00    +0.000 OA
ENDBRANCH   3   5
BRANCH   1  13
ATOM     13  C   UNL     1       7.190   4.545  18.032  0.00  0.00    +0.000 C 
ATOM     14  O   UNL     1       8.218   4.801  18.638  0.00  0.00    +0.000 OA
BRANCH  13  15
ATOM     15  O   UNL     1       7.051   4.220  16.732  0.00  0.00    +0.000 OA
BRANCH  15  16
ATOM     16  C   UNL     1       7.056   5.363  15.856  0.00  0.00    +0.000 C 
BRANCH  16  18
ATOM     17  O   UNL     1       5.160   6.635  15.226  0.00  0.00    +0.000 OA
ATOM     18  C   UNL     1       5.710   5.489  15.126  0.00  0.00    +0.000 C 
ATOM     19  O   UNL     1       5.275   4.473  14.519  0.00  0.00    +0.000 OA
ENDBRANCH  16  18
ENDBRANCH  15  16
ENDBRANCH  13  15
ENDBRANCH   1  13
TORSDOF 5
ENDMDL
MODEL 9
REMARK VINA RESULT:      -6.9      2.265      5.597
REMARK  Name = 
REMARK  5 active torsions:
REMARK  status: ('A' for Active; 'I' for Inactive)
REMARK    1  A    between atoms: C_2  and  C_4
REMARK    2  A    between atoms: C_4  and  O_5
REMARK    3  A    between atoms: O_5  and  C_6
REMARK    4  A    between atoms: C_6  and  C_8
REMARK    5  A    between atoms: N_10  and  C_11
REMARK                            x       y       z     vdW  Elec       q    Type
REMARK                         _______ _______ _______ _____ _____    ______ ____
ROOT
ATOM      1  C   UNL     1       3.912   2.985  19.930  0.00  0.00    +0.000 C 
ATOM      2  O   UNL     1       4.546   1.940  19.868  0.00  0.00    +0.000 OA
ATOM      3  N   UNL     1       4.075   4.110  19.145  0.00  0.00    +0.000 N 
ATOM      4  H   UNL     1       3.720   4.988  19.552  0.00  0.00    +0.000 HD
ENDROOT
BRANCH   3   5
ATOM      5  C   UNL     1       4.971   4.237  18.093  0.00  0.00    +0.000 A 
ATOM      6  C   UNL     1       4.618   3.870  16.850  0.00  0.00    +0.000 A 
ATOM      7  C   UNL     1       5.316   3.963  15.598  0.00  0.00    +0.000 A 
ATOM      8  C   UNL     1       6.560   4.390  15.355  0.00  0.00    +0.000 A 
ATOM      9  C   UNL     1       7.536   4.855  16.287  0.00  0.00    +0.000 A 
ATOM     10  C   UNL     1       7.421   5.039  17.604  0.00  0.00    +0.000 A 
ATOM     11  C   UNL     1       6.281   4.820  18.521  0.00  0.00    +0.000 A 
ATOM     12  O   UNL     1       6.469   5.080  19.714  0.00  0.00    +0.000 OA
ENDBRANCH   3   5
BRANCH   1  13
ATOM     13  C   UNL     1       2.818   3.157  20.986  0.00  0.00    +0.000 C 
ATOM     14  O   UNL     1       2.766   2.471  21.994  0.00  0.00    +0.000 OA
BRANCH  13  15
ATOM     15  O   UNL     1       1.940   4.091  20.570  0.00  0.00    +0.000 OA
BRANCH  15  16
ATOM     16  C   UNL     1       0.675   3.540  20.157  0.00  0.00    +0.000 C 
BRANCH  16  18
ATOM     17  O   UNL     1       0.274   1.942  18.456  0.00  0.00    +0.000 OA
ATOM     18  C   UNL     1       0.730   3.112  18.683  0.00  0.00    +0.000 C 
ATOM     19  O   UNL     1       1.215   3.927  17.853  0.00  0.00    +0.000 OA
ENDBRANCH  16  18
ENDBRANCH  15  16
ENDBRANCH  13  15
ENDBRANCH   1  13
TORSDOF 5
ENDMDL
