MODEL 1
REMARK VINA RESULT:      -7.8      0.000      0.000
REMARK  Name = 
REMARK  5 active torsions:
REMARK  status: ('A' for Active; 'I' for Inactive)
REMARK    1  A    between atoms: N_2  and  C_4
REMARK    2  A    between atoms: C_8  and  N_9
REMARK    3  A    between atoms: N_9  and  S_10
REMARK    4  A    between atoms: S_10  and  C_13
REMARK    5  A    between atoms: C_18  and  N_19
REMARK                            x       y       z     vdW  Elec       q    Type
REMARK                         _______ _______ _______ _____ _____    ______ ____
ROOT
ATOM      1  S   UNL     1       4.872   4.830  18.585  0.00  0.00    +0.000 S 
ATOM      2  O   UNL     1       5.939   4.700  19.550  0.00  0.00    +0.000 OA
ATOM      3  O   UNL     1       4.588   6.105  17.959  0.00  0.00    +0.000 OA
ENDROOT
BRANCH   1   4
ATOM      4  C   UNL     1       3.392   4.285  19.396  0.00  0.00    +0.000 A 
ATOM      5  C   UNL     1       2.464   5.255  19.809  0.00  0.00    +0.000 A 
ATOM      6  C   UNL     1       1.340   4.885  20.556  0.00  0.00    +0.000 A 
ATOM      7  C   UNL     1       1.129   3.549  20.894  0.00  0.00    +0.000 A 
ATOM      8  C   UNL     1       2.046   2.578  20.495  0.00  0.00    +0.000 A 
ATOM      9  C   UNL     1       3.182   2.955  19.756  0.00  0.00    +0.000 A 
BRANCH   9  10
ATOM     10  N   UNL     1       4.103   1.898  19.389  0.00  0.00    +0.000 N 
ATOM     11  O   UNL     1       3.831   1.218  18.391  0.00  0.00    +0.000 OA
ATOM     12  O   UNL     1       5.050   1.689  20.162  0.00  0.00    +0.000 OA
ENDBRANCH   9  10
ENDBRANCH   1   4
BRANCH   1  13
ATOM     13  N   UNL     1       5.159   3.720  17.375  0.00  0.00    +0.000 N 
ATOM     14  H   UNL     1       5.021   2.737  17.609  0.00  0.00    +0.000 HD
BRANCH  13  19
ATOM     15  C   UNL     1       6.121   3.936  13.813  0.00  0.00    +0.000 A 
ATOM     16  C   UNL     1       7.227   4.795  13.885  0.00  0.00    +0.000 A 
ATOM     17  C   UNL     1       7.607   5.325  15.119  0.00  0.00    +0.000 A 
ATOM     18  C   UNL     1       6.895   4.984  16.265  0.00  0.00    +0.000 A 
ATOM     19  C   UNL     1       5.818   4.100  16.188  0.00  0.00    +0.000 A 
ATOM     20  C   UNL     1       5.402   3.589  14.963  0.00  0.00    +0.000 A 
BRANCH  15  22
ATOM     21  O   UNL     1       6.589   2.765  11.868  0.00  0.00    +0.000 OA
ATOM     22  N   UNL     1       5.727   3.375  12.517  0.00  0.00    +0.000 N 
ATOM     23  O   UNL     1       4.557   3.544  12.145  0.00  0.00    +0.000 OA
ENDBRANCH  15  22
ENDBRANCH  13  19
ENDBRANCH   1  13
TORSDOF 5
ENDMDL
MODEL 2
REMARK VINA RESULT:      -7.7      2.313      3.057
REMARK  Name = 
REMARK  5 active torsions:
REMARK  status: ('A' for Active; 'I' for Inactive)
REMARK    1  A    between atoms: N_2  and  C_4
REMARK    2  A    between atoms: C_8  and  N_9
REMARK    3  A    between atoms: N_9  and  S_10
REMARK    4  A    between atoms: S_10  and  C_13
REMARK    5  A    between atoms: C_18  and  N_19
REMARK                            x       y       z     vdW  Elec       q    Type
REMARK                         _______ _______ _______ _____ _____    ______ ____
ROOT
ATOM      1  S   UNL     1       2.468   3.004  17.810  0.00  0.00    +0.000 S 
ATOM      2  O   UNL     1       2.225   3.348  16.428  0.00  0.00    +0.000 OA
ATOM      3  O   UNL     1       1.717   1.948  18.456  0.00  0.00    +0.000 OA
ENDROOT
BRANCH   1   4
ATOM      4  C   UNL     1       2.227   4.491  18.746  0.00  0.00    +0.000 A 
ATOM      5  C   UNL     1       2.220   5.716  18.060  0.00  0.00    +0.000 A 
ATOM      6  C   UNL     1       2.151   6.922  18.765  0.00  0.00    +0.000 A 
ATOM      7  C   UNL     1       2.085   6.919  20.158  0.00  0.00    +0.000 A 
ATOM      8  C   UNL     1       2.097   5.709  20.852  0.00  0.00    +0.000 A 
ATOM      9  C   UNL     1       2.180   4.499  20.140  0.00  0.00    +0.000 A 
BRANCH   9  10
ATOM     10  N   UNL     1       2.205   3.280  20.923  0.00  0.00    +0.000 N 
ATOM     11  O   UNL     1       1.153   2.925  21.470  0.00  0.00    +0.000 OA
ATOM     12  O   UNL     1       3.309   2.733  21.069  0.00  0.00    +0.000 OA
ENDBRANCH   9  10
ENDBRANCH   1   4
BRANCH   1  13
ATOM     13  N   UNL     1       4.088   2.639  17.953  0.00  0.00    +0.000 N 
ATOM     14  H   UNL     1       4.327   1.793  18.471  0.00  0.00    +0.000 HD
BRANCH  13  19
ATOM     15  C   UNL     1       6.519   4.636  16.013  0.00  0.00    +0.000 A 
ATOM     16  C   UNL     1       7.109   5.402  17.029  0.00  0.00    +0.000 A 
ATOM     17  C   UNL     1       6.654   5.271  18.342  0.00  0.00    +0.000 A 
ATOM     18  C   UNL     1       5.632   4.373  18.631  0.00  0.00    +0.000 A 
ATOM     19  C   UNL     1       5.075   3.589  17.618  0.00  0.00    +0.000 A 
ATOM     20  C   UNL     1       5.491   3.731  16.299  0.00  0.00    +0.000 A 
BRANCH  15  22
ATOM     21  O   UNL     1       7.904   5.594  14.420  0.00  0.00    +0.000 OA
ATOM     22  N   UNL     1       7.003   4.770  14.635  0.00  0.00    +0.000 N 
ATOM     23  O   UNL     1       6.483   4.055  13.767  0.00  0.00    +0.000 OA
ENDBRANCH  15  22
ENDBRANCH  13  19
ENDBRANCH   1  13
TORSDOF 5
ENDMDL
MODEL 3
REMARK VINA RESULT:      -7.7      2.156      2.753
REMARK  Name = 
REMARK  5 active torsions:
REMARK  status: ('A' for Active; 'I' for Inactive)
REMARK    1  A    between atoms: N_2  and  C_4
REMARK    2  A    between atoms: C_8  and  N_9
REMARK    3  A    between atoms: N_9  and  S_10
REMARK    4  A    between atoms: S_10  and  C_13
REMARK    5  A    between atoms: C_18  and  N_19
REMARK                            x       y       z     vdW  Elec       q    Type
REMARK                         _______ _______ _______ _____ _____    ______ ____
ROOT
ATOM      1  S   UNL     1       5.662   6.469  16.394  0.00  0.00    +0.000 S 
ATOM      2  O   UNL     1       6.846   6.971  17.052  0.00  0.00    +0.000 OA
ATOM      3  O   UNL     1       5.068   7.186  15.285  0.00  0.00    +0.000 OA
ENDROOT
BRANCH   1   4
ATOM      4  C   UNL     1       4.424   6.296  17.652  0.00  0.00    +0.000 A 
ATOM      5  C   UNL     1       3.240   7.043  17.528  0.00  0.00    +0.000 A 
ATOM      6  C   UNL     1       2.286   7.031  18.550  0.00  0.00    +0.000 A 
ATOM      7  C   UNL     1       2.499   6.275  19.702  0.00  0.00    +0.000 A 
ATOM      8  C   UNL     1       3.672   5.534  19.840  0.00  0.00    +0.000 A 
ATOM      9  C   UNL     1       4.636   5.559  18.816  0.00  0.00    +0.000 A 
BRANCH   9  10
ATOM     10  N   UNL     1       5.839   4.780  19.031  0.00  0.00    +0.000 N 
ATOM     11  O   UNL     1       6.725   5.274  19.741  0.00  0.00    +0.000 OA
ATOM     12  O   UNL     1       5.933   3.714  18.405  0.00  0.00    +0.000 OA
ENDBRANCH   9  10
ENDBRANCH   1   4
BRANCH   1  13
ATOM     13  N   UNL     1       5.999   4.920  15.878  0.00  0.00    +0.000 N 
ATOM     14  H   UNL     1       6.136   4.213  16.599  0.00  0.00    +0.000 HD
BRANCH  13  19
ATOM     15  C   UNL     1       5.993   3.523  12.455  0.00  0.00    +0.000 A 
ATOM     16  C   UNL     1       7.150   4.113  11.923  0.00  0.00    +0.000 A 
ATOM     17  C   UNL     1       7.889   5.003  12.702  0.00  0.00    +0.000 A 
ATOM     18  C   UNL     1       7.481   5.286  14.002  0.00  0.00    +0.000 A 
ATOM     19  C   UNL     1       6.349   4.667  14.535  0.00  0.00    +0.000 A 
ATOM     20  C   UNL     1       5.580   3.803  13.763  0.00  0.00    +0.000 A 
BRANCH  15  22
ATOM     21  O   UNL     1       5.734   1.482  11.389  0.00  0.00    +0.000 OA
ATOM     22  N   UNL     1       5.221   2.583  11.638  0.00  0.00    +0.000 N 
ATOM     23  O   UNL     1       4.103   2.942  11.243  0.00  0.00    +0.000 OA
ENDBRANCH  15  22
ENDBRANCH  13  19
ENDBRANCH   1  13
TORSDOF 5
ENDMDL
MODEL 4
REMARK VINA RESULT:      -7.7      2.753      4.157
REMARK  Name = 
REMARK  5 active torsions:
REMARK  status: ('A' for Active; 'I' for Inactive)
REMARK    1  A    between atoms: N_2  and  C_4
REMARK    2  A    between atoms: C_8  and  N_9
REMARK    3  A    between atoms: N_9  and  S_10
REMARK    4  A    between atoms: S_10  and  C_13
REMARK    5  A    between atoms: C_18  and  N_19
REMARK                            x       y       z     vdW  Elec       q    Type
REMARK                         _______ _______ _______ _____ _____    ______ ____
ROOT
ATOM      1  S   UNL     1       2.502   3.001  17.759  0.00  0.00    +0.000 S 
ATOM      2  O   UNL     1       2.139   3.338  16.402  0.00  0.00    +0.000 OA
ATOM      3  O   UNL     1       1.844   1.915  18.456  0.00  0.00    +0.000 OA
ENDROOT
BRANCH   1   4
ATOM      4  C   UNL     1       2.277   4.474  18.720  0.00  0.00    +0.000 A 
ATOM      5  C   UNL     1       2.253   5.709  18.049  0.00  0.00    +0.000 A 
ATOM      6  C   UNL     1       2.196   6.905  18.772  0.00  0.00    +0.000 A 
ATOM      7  C   UNL     1       2.159   6.883  20.166  0.00  0.00    +0.000 A 
ATOM      8  C   UNL     1       2.187   5.665  20.843  0.00  0.00    +0.000 A 
ATOM      9  C   UNL     1       2.258   4.464  20.114  0.00  0.00    +0.000 A 
BRANCH   9  10
ATOM     10  N   UNL     1       2.302   3.235  20.881  0.00  0.00    +0.000 N 
ATOM     11  O   UNL     1       1.265   2.877  21.453  0.00  0.00    +0.000 OA
ATOM     12  O   UNL     1       3.408   2.683  20.987  0.00  0.00    +0.000 OA
ENDBRANCH   9  10
ENDBRANCH   1   4
BRANCH   1  13
ATOM     13  N   UNL     1       4.141   2.698  17.775  0.00  0.00    +0.000 N 
ATOM     14  H   UNL     1       4.448   1.840  18.233  0.00  0.00    +0.000 HD
BRANCH  13  19
ATOM     15  C   UNL     1       6.733   5.323  18.020  0.00  0.00    +0.000 A 
ATOM     16  C   UNL     1       6.792   5.766  16.691  0.00  0.00    +0.000 A 
ATOM     17  C   UNL     1       5.996   5.151  15.724  0.00  0.00    +0.000 A 
ATOM     18  C   UNL     1       5.143   4.114  16.090  0.00  0.00    +0.000 A 
ATOM     19  C   UNL     1       5.065   3.704  17.422  0.00  0.00    +0.000 A 
ATOM     20  C   UNL     1       5.875   4.282  18.394  0.00  0.00    +0.000 A 
BRANCH  15  22
ATOM     21  O   UNL     1       8.174   7.003  18.707  0.00  0.00    +0.000 OA
ATOM     22  N   UNL     1       7.564   5.975  19.036  0.00  0.00    +0.000 N 
ATOM     23  O   UNL     1       7.611   5.461  20.163  0.00  0.00    +0.000 OA
ENDBRANCH  15  22
ENDBRANCH  13  19
ENDBRANCH   1  13
TORSDOF 5
ENDMDL
MODEL 5
REMARK VINA RESULT:      -7.6      2.410      3.031
REMARK  Name = 
REMARK  5 active torsions:
REMARK  status: ('A' for Active; 'I' for Inactive)
REMARK    1  A    between atoms: N_2  and  C_4
REMARK    2  A    between atoms: C_8  and  N_9
REMARK    3  A    between atoms: N_9  and  S_10
REMARK    4  A    between atoms: S_10  and  C_13
REMARK    5  A    between atoms: C_18  and  N_19
REMARK                            x       y       z     vdW  Elec       q    Type
REMARK                         _______ _______ _______ _____ _____    ______ ____
ROOT
ATOM      1  S   UNL     1       6.059   6.266  16.296  0.00  0.00    +0.000 S 
ATOM      2  O   UNL     1       6.967   7.150  16.989  0.00  0.00    +0.000 OA
ATOM      3  O   UNL     1       5.181   6.768  15.259  0.00  0.00    +0.000 OA
ENDROOT
BRANCH   1   4
ATOM      4  C   UNL     1       5.049   5.508  17.540  0.00  0.00    +0.000 A 
ATOM      5  C   UNL     1       3.654   5.526  17.368  0.00  0.00    +0.000 A 
ATOM      6  C   UNL     1       2.811   5.047  18.376  0.00  0.00    +0.000 A 
ATOM      7  C   UNL     1       3.347   4.542  19.560  0.00  0.00    +0.000 A 
ATOM      8  C   UNL     1       4.729   4.523  19.745  0.00  0.00    +0.000 A 
ATOM      9  C   UNL     1       5.574   5.019  18.736  0.00  0.00    +0.000 A 
BRANCH   9  10
ATOM     10  N   UNL     1       6.998   4.986  19.000  0.00  0.00    +0.000 N 
ATOM     11  O   UNL     1       7.708   4.305  18.248  0.00  0.00    +0.000 OA
ATOM     12  O   UNL     1       7.389   5.566  20.024  0.00  0.00    +0.000 OA
ENDBRANCH   9  10
ENDBRANCH   1   4
BRANCH   1  13
ATOM     13  N   UNL     1       6.969   5.033  15.640  0.00  0.00    +0.000 N 
ATOM     14  H   UNL     1       7.658   4.593  16.251  0.00  0.00    +0.000 HD
BRANCH  13  19
ATOM     15  C   UNL     1       6.178   3.634  12.312  0.00  0.00    +0.000 A 
ATOM     16  C   UNL     1       7.116   4.303  11.510  0.00  0.00    +0.000 A 
ATOM     17  C   UNL     1       7.968   5.244  12.088  0.00  0.00    +0.000 A 
ATOM     18  C   UNL     1       7.890   5.499  13.453  0.00  0.00    +0.000 A 
ATOM     19  C   UNL     1       6.978   4.803  14.249  0.00  0.00    +0.000 A 
ATOM     20  C   UNL     1       6.097   3.886  13.686  0.00  0.00    +0.000 A 
BRANCH  15  22
ATOM     21  O   UNL     1       4.125   2.988  11.452  0.00  0.00    +0.000 OA
ATOM     22  N   UNL     1       5.288   2.640  11.704  0.00  0.00    +0.000 N 
ATOM     23  O   UNL     1       5.748   1.512  11.480  0.00  0.00    +0.000 OA
ENDBRANCH  15  22
ENDBRANCH  13  19
ENDBRANCH   1  13
TORSDOF 5
ENDMDL
MODEL 6
REMARK VINA RESULT:      -7.6      1.932      2.552
REMARK  Name = 
REMARK  5 active torsions:
REMARK  status: ('A' for Active; 'I' for Inactive)
REMARK    1  A    between atoms: N_2  and  C_4
REMARK    2  A    between atoms: C_8  and  N_9
REMARK    3  A    between atoms: N_9  and  S_10
REMARK    4  A    between atoms: S_10  and  C_13
REMARK    5  A    between atoms: C_18  and  N_19
REMARK                            x       y       z     vdW  Elec       q    Type
REMARK                         _______ _______ _______ _____ _____    ______ ____
ROOT
ATOM      1  S   UNL     1       5.474   6.363  16.470  0.00  0.00    +0.000 S 
ATOM      2  O   UNL     1       6.725   6.577  17.161  0.00  0.00    +0.000 OA
ATOM      3  O   UNL     1       5.050   7.252  15.408  0.00  0.00    +0.000 OA
ENDROOT
BRANCH   1   4
ATOM      4  C   UNL     1       4.208   6.360  17.711  0.00  0.00    +0.000 A 
ATOM      5  C   UNL     1       3.335   7.458  17.773  0.00  0.00    +0.000 A 
ATOM      6  C   UNL     1       2.396   7.559  18.805  0.00  0.00    +0.000 A 
ATOM      7  C   UNL     1       2.317   6.566  19.782  0.00  0.00    +0.000 A 
ATOM      8  C   UNL     1       3.183   5.474  19.735  0.00  0.00    +0.000 A 
ATOM      9  C   UNL     1       4.134   5.383  18.703  0.00  0.00    +0.000 A 
BRANCH   9  10
ATOM     10  N   UNL     1       5.013   4.231  18.724  0.00  0.00    +0.000 N 
ATOM     11  O   UNL     1       4.631   3.205  18.146  0.00  0.00    +0.000 OA
ATOM     12  O   UNL     1       6.044   4.329  19.406  0.00  0.00    +0.000 OA
ENDBRANCH   9  10
ENDBRANCH   1   4
BRANCH   1  13
ATOM     13  N   UNL     1       5.507   4.813  15.855  0.00  0.00    +0.000 N 
ATOM     14  H   UNL     1       5.344   4.052  16.514  0.00  0.00    +0.000 HD
BRANCH  13  19
ATOM     15  C   UNL     1       5.871   3.432  12.446  0.00  0.00    +0.000 A 
ATOM     16  C   UNL     1       7.089   4.006  12.052  0.00  0.00    +0.000 A 
ATOM     17  C   UNL     1       7.747   4.882  12.916  0.00  0.00    +0.000 A 
ATOM     18  C   UNL     1       7.198   5.165  14.163  0.00  0.00    +0.000 A 
ATOM     19  C   UNL     1       6.004   4.560  14.559  0.00  0.00    +0.000 A 
ATOM     20  C   UNL     1       5.315   3.712  13.699  0.00  0.00    +0.000 A 
BRANCH  15  22
ATOM     21  O   UNL     1       4.079   2.852  11.094  0.00  0.00    +0.000 OA
ATOM     22  N   UNL     1       5.183   2.507  11.540  0.00  0.00    +0.000 N 
ATOM     23  O   UNL     1       5.744   1.434  11.274  0.00  0.00    +0.000 OA
ENDBRANCH  15  22
ENDBRANCH  13  19
ENDBRANCH   1  13
TORSDOF 5
ENDMDL
MODEL 7
REMARK VINA RESULT:      -7.6      2.154      2.872
REMARK  Name = 
REMARK  5 active torsions:
REMARK  status: ('A' for Active; 'I' for Inactive)
REMARK    1  A    between atoms: N_2  and  C_4
REMARK    2  A    between atoms: C_8  and  N_9
REMARK    3  A    between atoms: N_9  and  S_10
REMARK    4  A    between atoms: S_10  and  C_13
REMARK    5  A    between atoms: C_18  and  N_19
REMARK                            x       y       z     vdW  Elec       q    Type
REMARK                         _______ _______ _______ _____ _____    ______ ____
ROOT
ATOM      1  S   UNL     1       5.191   5.188  17.249  0.00  0.00    +0.000 S 
ATOM      2  O   UNL     1       5.879   5.597  18.452  0.00  0.00    +0.000 OA
ATOM      3  O   UNL     1       4.746   6.167  16.278  0.00  0.00    +0.000 OA
ENDROOT
BRANCH   1   4
ATOM      4  C   UNL     1       3.772   4.263  17.772  0.00  0.00    +0.000 A 
ATOM      5  C   UNL     1       3.722   2.892  17.468  0.00  0.00    +0.000 A 
ATOM      6  C   UNL     1       2.575   2.145  17.754  0.00  0.00    +0.000 A 
ATOM      7  C   UNL     1       1.469   2.754  18.348  0.00  0.00    +0.000 A 
ATOM      8  C   UNL     1       1.504   4.115  18.650  0.00  0.00    +0.000 A 
ATOM      9  C   UNL     1       2.654   4.866  18.348  0.00  0.00    +0.000 A 
BRANCH   9  10
ATOM     10  N   UNL     1       2.617   6.278  18.672  0.00  0.00    +0.000 N 
ATOM     11  O   UNL     1       2.955   6.616  19.814  0.00  0.00    +0.000 OA
ATOM     12  O   UNL     1       2.153   7.036  17.807  0.00  0.00    +0.000 OA
ENDBRANCH   9  10
ENDBRANCH   1   4
BRANCH   1  13
ATOM     13  N   UNL     1       6.175   4.098  16.460  0.00  0.00    +0.000 N 
ATOM     14  H   UNL     1       6.730   3.472  17.043  0.00  0.00    +0.000 HD
BRANCH  13  19
ATOM     15  C   UNL     1       5.985   3.621  12.800  0.00  0.00    +0.000 A 
ATOM     16  C   UNL     1       7.053   4.421  12.369  0.00  0.00    +0.000 A 
ATOM     17  C   UNL     1       7.793   5.143  13.306  0.00  0.00    +0.000 A 
ATOM     18  C   UNL     1       7.473   5.051  14.657  0.00  0.00    +0.000 A 
ATOM     19  C   UNL     1       6.431   4.224  15.079  0.00  0.00    +0.000 A 
ATOM     20  C   UNL     1       5.660   3.523  14.158  0.00  0.00    +0.000 A 
BRANCH  15  22
ATOM     21  O   UNL     1       4.152   3.353  11.405  0.00  0.00    +0.000 OA
ATOM     22  N   UNL     1       5.213   2.857  11.815  0.00  0.00    +0.000 N 
ATOM     23  O   UNL     1       5.662   1.761  11.451  0.00  0.00    +0.000 OA
ENDBRANCH  15  22
ENDBRANCH  13  19
ENDBRANCH   1  13
TORSDOF 5
ENDMDL
MODEL 8
REMARK VINA RESULT:      -7.5      1.490      1.879
REMARK  Name = 
REMARK  5 active torsions:
REMARK  status: ('A' for Active; 'I' for Inactive)
REMARK    1  A    between atoms: N_2  and  C_4
REMARK    2  A    between atoms: C_8  and  N_9
REMARK    3  A    between atoms: N_9  and  S_10
REMARK    4  A    between atoms: S_10  and  C_13
REMARK    5  A    between atoms: C_18  and  N_19
REMARK                            x       y       z     vdW  Elec       q    Type
REMARK                         _______ _______ _______ _____ _____    ______ ____
ROOT
ATOM      1  S   UNL     1       4.227   5.046  18.603  0.00  0.00    +0.000 S 
ATOM      2  O   UNL     1       5.275   5.413  19.528  0.00  0.00    +0.000 OA
ATOM      3  O   UNL     1       3.582   6.045  17.778  0.00  0.00    +0.000 OA
ENDROOT
BRANCH   1   4
ATOM      4  C   UNL     1       2.971   4.241  19.561  0.00  0.00    +0.000 A 
ATOM      5  C   UNL     1       3.125   4.195  20.956  0.00  0.00    +0.000 A 
ATOM      6  C   UNL     1       2.223   3.471  21.744  0.00  0.00    +0.000 A 
ATOM      7  C   UNL     1       1.160   2.791  21.151  0.00  0.00    +0.000 A 
ATOM      8  C   UNL     1       0.999   2.825  19.766  0.00  0.00    +0.000 A 
ATOM      9  C   UNL     1       1.916   3.542  18.976  0.00  0.00    +0.000 A 
BRANCH   9  10
ATOM     10  N   UNL     1       1.700   3.521  17.543  0.00  0.00    +0.000 N 
ATOM     11  O   UNL     1       2.351   2.706  16.875  0.00  0.00    +0.000 OA
ATOM     12  O   UNL     1       0.948   4.391  17.079  0.00  0.00    +0.000 OA
ENDBRANCH   9  10
ENDBRANCH   1   4
BRANCH   1  13
ATOM     13  N   UNL     1       4.846   3.872  17.593  0.00  0.00    +0.000 N 
ATOM     14  H   UNL     1       4.818   2.911  17.932  0.00  0.00    +0.000 HD
BRANCH  13  19
ATOM     15  C   UNL     1       6.079   4.061  14.113  0.00  0.00    +0.000 A 
ATOM     16  C   UNL     1       7.224   4.854  14.277  0.00  0.00    +0.000 A 
ATOM     17  C   UNL     1       7.541   5.351  15.542  0.00  0.00    +0.000 A 
ATOM     18  C   UNL     1       6.729   5.043  16.628  0.00  0.00    +0.000 A 
ATOM     19  C   UNL     1       5.611   4.223  16.462  0.00  0.00    +0.000 A 
ATOM     20  C   UNL     1       5.259   3.747  15.203  0.00  0.00    +0.000 A 
BRANCH  15  22
ATOM     21  O   UNL     1       4.560   3.556  12.437  0.00  0.00    +0.000 OA
ATOM     22  N   UNL     1       5.750   3.534  12.786  0.00  0.00    +0.000 N 
ATOM     23  O   UNL     1       6.678   3.097  12.091  0.00  0.00    +0.000 OA
ENDBRANCH  15  22
ENDBRANCH  13  19
ENDBRANCH   1  13
TORSDOF 5
ENDMDL
MODEL 9
REMARK VINA RESULT:      -7.4      3.275      6.926
REMARK  Name = 
REMARK  5 active torsions:
REMARK  status: ('A' for Active; 'I' for Inactive)
REMARK    1  A    between atoms: N_2  and  C_4
REMARK    2  A    between atoms: C_8  and  N_9
REMARK    3  A    between atoms: N_9  and  S_10
REMARK    4  A    between atoms: S_10  and  C_13
REMARK    5  A    between atoms: C_18  and  N_19
REMARK                            x       y       z     vdW  Elec       q    Type
REMARK                         _______ _______ _______ _____ _____    ______ ____
ROOT
ATOM      1  S   UNL     1       4.840   4.592  19.031  0.00  0.00    +0.000 S 
ATOM      2  O   UNL     1       5.437   5.695  19.749  0.00  0.00    +0.000 OA
ATOM      3  O   UNL     1       4.979   3.232  19.509  0.00  0.00    +0.000 OA
ENDROOT
BRANCH   1   4
ATOM      4  C   UNL     1       5.489   4.656  17.382  0.00  0.00    +0.000 A 
ATOM      5  C   UNL     1       4.671   4.218  16.327  0.00  0.00    +0.000 A 
ATOM      6  C   UNL     1       5.178   4.138  15.026  0.00  0.00    +0.000 A 
ATOM      7  C   UNL     1       6.500   4.495  14.763  0.00  0.00    +0.000 A 
ATOM      8  C   UNL     1       7.324   4.926  15.803  0.00  0.00    +0.000 A 
ATOM      9  C   UNL     1       6.815   4.992  17.112  0.00  0.00    +0.000 A 
BRANCH   9  10
ATOM     10  N   UNL     1       7.730   5.430  18.147  0.00  0.00    +0.000 N 
ATOM     11  O   UNL     1       7.920   6.647  18.269  0.00  0.00    +0.000 OA
ATOM     12  O   UNL     1       8.332   4.544  18.772  0.00  0.00    +0.000 OA
ENDBRANCH   9  10
ENDBRANCH   1   4
BRANCH   1  13
ATOM     13  N   UNL     1       3.211   4.918  18.886  0.00  0.00    +0.000 N 
ATOM     14  H   UNL     1       2.619   4.165  18.536  0.00  0.00    +0.000 HD
BRANCH  13  19
ATOM     15  C   UNL     1       1.601   7.979  20.189  0.00  0.00    +0.000 A 
ATOM     16  C   UNL     1       1.687   8.824  19.072  0.00  0.00    +0.000 A 
ATOM     17  C   UNL     1       2.322   8.371  17.915  0.00  0.00    +0.000 A 
ATOM     18  C   UNL     1       2.849   7.084  17.876  0.00  0.00    +0.000 A 
ATOM     19  C   UNL     1       2.727   6.239  18.980  0.00  0.00    +0.000 A 
ATOM     20  C   UNL     1       2.128   6.684  20.154  0.00  0.00    +0.000 A 
BRANCH  15  22
ATOM     21  O   UNL     1       1.623   9.003  22.269  0.00  0.00    +0.000 OA
ATOM     22  N   UNL     1       0.927   8.453  21.402  0.00  0.00    +0.000 N 
ATOM     23  O   UNL     1      -0.296   8.277  21.491  0.00  0.00    +0.000 OA
ENDBRANCH  15  22
ENDBRANCH  13  19
ENDBRANCH   1  13
TORSDOF 5
ENDMDL
