MODEL 1
REMARK VINA RESULT:      -6.4      0.000      0.000
REMARK  Name = 
REMARK  9 active torsions:
REMARK  status: ('A' for Active; 'I' for Inactive)
REMARK    1  A    between atoms: C_1  and  C_2
REMARK    2  A    between atoms: C_2  and  O_4
REMARK    3  A    between atoms: O_4  and  C_5
REMARK    4  A    between atoms: C_7  and  O_8
REMARK    5  A    between atoms: O_8  and  C_9
REMARK    6  A    between atoms: C_9  and  C_10
REMARK    7  A    between atoms: C_12  and  O_13
REMARK    8  A    between atoms: O_13  and  C_14
REMARK    9  A    between atoms: C_14  and  C_15
REMARK                            x       y       z     vdW  Elec       q    Type
REMARK                         _______ _______ _______ _____ _____    ______ ____
ROOT
ATOM      1  C   UNL     1      -2.844  14.180  21.991  0.00  0.00    +0.000 A 
ATOM      2  C   UNL     1      -4.227  14.297  21.775  0.00  0.00    +0.000 A 
ATOM      3  C   UNL     1      -4.872  13.457  20.874  0.00  0.00    +0.000 A 
ATOM      4  C   UNL     1      -4.089  12.626  20.081  0.00  0.00    +0.000 A 
ATOM      5  C   UNL     1      -2.690  12.536  20.239  0.00  0.00    +0.000 A 
ATOM      6  C   UNL     1      -2.078  13.221  21.302  0.00  0.00    +0.000 A 
ATOM      7  C   UNL     1      -0.728  12.744  21.799  0.00  0.00    +0.000 C 
ATOM      8  C   UNL     1       0.169  12.028  20.772  0.00  0.00    +0.000 C 
ATOM      9  C   UNL     1       1.461  12.799  20.560  0.00  0.00    +0.000 C 
ATOM     10  O   UNL     1       2.413  12.721  21.328  0.00  0.00    +0.000 OA
ATOM     11  C   UNL     1       1.389  13.676  19.318  0.00  0.00    +0.000 C 
ATOM     12  C   UNL     1       2.532  13.369  18.323  0.00  0.00    +0.000 C 
ATOM     13  C   UNL     1       3.303  14.672  18.052  0.00  0.00    +0.000 C 
ATOM     14  C   UNL     1       2.647  15.670  18.947  0.00  0.00    +0.000 A 
ATOM     15  C   UNL     1       3.004  17.002  19.100  0.00  0.00    +0.000 A 
ATOM     16  C   UNL     1       2.225  17.810  19.930  0.00  0.00    +0.000 A 
ATOM     17  C   UNL     1       1.114  17.282  20.587  0.00  0.00    +0.000 A 
ATOM     18  C   UNL     1       0.774  15.933  20.449  0.00  0.00    +0.000 A 
ATOM     19  C   UNL     1       1.548  15.133  19.620  0.00  0.00    +0.000 A 
ATOM     20  C   UNL     1       0.052  13.259  18.728  0.00  0.00    +0.000 C 
ATOM     21  O   UNL     1      -0.528  13.823  17.812  0.00  0.00    +0.000 OA
ATOM     22  C   UNL     1      -0.399  11.947  19.355  0.00  0.00    +0.000 C 
ATOM     23  C   UNL     1      -1.887  11.661  19.315  0.00  0.00    +0.000 C 
ENDROOT
BRANCH   1  24
ATOM     24  O   UNL     1      -2.257  14.961  23.009  0.00  0.00    +0.000 OA
BRANCH  24  26
ATOM     25  C   UNL     1      -1.600  15.255  25.268  0.00  0.00    +0.000 C 
ATOM     26  C   UNL     1      -2.536  14.561  24.322  0.00  0.00    +0.000 C 
ATOM     27  O   UNL     1      -3.372  13.738  24.672  0.00  0.00    +0.000 OA
ENDBRANCH  24  26
ENDBRANCH   1  24
BRANCH   3  28
ATOM     28  O   UNL     1      -6.268  13.472  20.714  0.00  0.00    +0.000 OA
BRANCH  28  29
ATOM     29  C   UNL     1      -7.049  12.619  21.502  0.00  0.00    +0.000 C 
ATOM     30  C   UNL     1      -7.912  13.453  22.402  0.00  0.00    +0.000 C 
ATOM     31  O   UNL     1      -7.061  11.395  21.487  0.00  0.00    +0.000 OA
ENDBRANCH  28  29
ENDBRANCH   3  28
BRANCH   4  32
ATOM     32  O   UNL     1      -4.636  11.700  19.089  0.00  0.00    +0.000 OA
BRANCH  32  33
ATOM     33  C   UNL     1      -5.397  11.168  18.026  0.00  0.00    +0.000 C 
ATOM     34  C   UNL     1      -4.701  11.208  16.707  0.00  0.00    +0.000 C 
ATOM     35  O   UNL     1      -6.548  10.786  18.187  0.00  0.00    +0.000 OA
ENDBRANCH  32  33
ENDBRANCH   4  32
TORSDOF 6
ENDMDL
MODEL 2
REMARK VINA RESULT:      -6.4      2.219      7.932
REMARK  Name = 
REMARK  9 active torsions:
REMARK  status: ('A' for Active; 'I' for Inactive)
REMARK    1  A    between atoms: C_1  and  C_2
REMARK    2  A    between atoms: C_2  and  O_4
REMARK    3  A    between atoms: O_4  and  C_5
REMARK    4  A    between atoms: C_7  and  O_8
REMARK    5  A    between atoms: O_8  and  C_9
REMARK    6  A    between atoms: C_9  and  C_10
REMARK    7  A    between atoms: C_12  and  O_13
REMARK    8  A    between atoms: O_13  and  C_14
REMARK    9  A    between atoms: C_14  and  C_15
REMARK                            x       y       z     vdW  Elec       q    Type
REMARK                         _______ _______ _______ _____ _____    ______ ____
ROOT
ATOM      1  C   UNL     1      -0.227  11.951  20.891  0.00  0.00    +0.000 A 
ATOM      2  C   UNL     1       0.959  12.373  20.267  0.00  0.00    +0.000 A 
ATOM      3  C   UNL     1       1.647  13.484  20.742  0.00  0.00    +0.000 A 
ATOM      4  C   UNL     1       1.043  14.252  21.731  0.00  0.00    +0.000 A 
ATOM      5  C   UNL     1      -0.178  13.879  22.331  0.00  0.00    +0.000 A 
ATOM      6  C   UNL     1      -0.749  12.639  22.002  0.00  0.00    +0.000 A 
ATOM      7  C   UNL     1      -1.725  12.003  22.972  0.00  0.00    +0.000 C 
ATOM      8  C   UNL     1      -2.521  12.963  23.876  0.00  0.00    +0.000 C 
ATOM      9  C   UNL     1      -4.011  12.839  23.607  0.00  0.00    +0.000 C 
ATOM     10  O   UNL     1      -4.699  11.945  24.085  0.00  0.00    +0.000 OA
ATOM     11  C   UNL     1      -4.499  13.930  22.666  0.00  0.00    +0.000 C 
ATOM     12  C   UNL     1      -5.651  14.757  23.280  0.00  0.00    +0.000 C 
ATOM     13  C   UNL     1      -6.856  14.698  22.326  0.00  0.00    +0.000 C 
ATOM     14  C   UNL     1      -6.404  13.785  21.235  0.00  0.00    +0.000 A 
ATOM     15  C   UNL     1      -7.149  13.376  20.138  0.00  0.00    +0.000 A 
ATOM     16  C   UNL     1      -6.534  12.576  19.174  0.00  0.00    +0.000 A 
ATOM     17  C   UNL     1      -5.200  12.199  19.319  0.00  0.00    +0.000 A 
ATOM     18  C   UNL     1      -4.460  12.592  20.438  0.00  0.00    +0.000 A 
ATOM     19  C   UNL     1      -5.074  13.391  21.393  0.00  0.00    +0.000 A 
ATOM     20  C   UNL     1      -3.253  14.789  22.523  0.00  0.00    +0.000 C 
ATOM     21  O   UNL     1      -3.102  15.694  21.715  0.00  0.00    +0.000 OA
ATOM     22  C   UNL     1      -2.266  14.449  23.632  0.00  0.00    +0.000 C 
ATOM     23  C   UNL     1      -0.812  14.778  23.358  0.00  0.00    +0.000 C 
ENDROOT
BRANCH   1  24
ATOM     24  O   UNL     1      -0.817  10.745  20.459  0.00  0.00    +0.000 OA
BRANCH  24  26
ATOM     25  C   UNL     1      -0.253   8.849  21.768  0.00  0.00    +0.000 C 
ATOM     26  C   UNL     1       0.007   9.613  20.502  0.00  0.00    +0.000 C 
ATOM     27  O   UNL     1       0.853   9.295  19.677  0.00  0.00    +0.000 OA
ENDBRANCH  24  26
ENDBRANCH   1  24
BRANCH   3  28
ATOM     28  O   UNL     1       2.890  13.869  20.212  0.00  0.00    +0.000 OA
BRANCH  28  29
ATOM     29  C   UNL     1       2.920  14.643  19.047  0.00  0.00    +0.000 C 
ATOM     30  C   UNL     1       4.278  14.520  18.423  0.00  0.00    +0.000 C 
ATOM     31  O   UNL     1       2.011  15.318  18.579  0.00  0.00    +0.000 OA
ENDBRANCH  28  29
ENDBRANCH   3  28
BRANCH   4  32
ATOM     32  O   UNL     1       1.652  15.448  22.314  0.00  0.00    +0.000 OA
BRANCH  32  33
ATOM     33  C   UNL     1       2.606  16.404  22.725  0.00  0.00    +0.000 C 
ATOM     34  C   UNL     1       3.016  17.349  21.646  0.00  0.00    +0.000 C 
ATOM     35  O   UNL     1       3.091  16.387  23.848  0.00  0.00    +0.000 OA
ENDBRANCH  32  33
ENDBRANCH   4  32
TORSDOF 6
ENDMDL
MODEL 3
REMARK VINA RESULT:      -6.4      1.052      1.370
REMARK  Name = 
REMARK  9 active torsions:
REMARK  status: ('A' for Active; 'I' for Inactive)
REMARK    1  A    between atoms: C_1  and  C_2
REMARK    2  A    between atoms: C_2  and  O_4
REMARK    3  A    between atoms: O_4  and  C_5
REMARK    4  A    between atoms: C_7  and  O_8
REMARK    5  A    between atoms: O_8  and  C_9
REMARK    6  A    between atoms: C_9  and  C_10
REMARK    7  A    between atoms: C_12  and  O_13
REMARK    8  A    between atoms: O_13  and  C_14
REMARK    9  A    between atoms: C_14  and  C_15
REMARK                            x       y       z     vdW  Elec       q    Type
REMARK                         _______ _______ _______ _____ _____    ______ ____
ROOT
ATOM      1  C   UNL     1      -2.792  13.392  22.187  0.00  0.00    +0.000 A 
ATOM      2  C   UNL     1      -4.175  13.399  21.938  0.00  0.00    +0.000 A 
ATOM      3  C   UNL     1      -4.681  12.867  20.757  0.00  0.00    +0.000 A 
ATOM      4  C   UNL     1      -3.776  12.490  19.772  0.00  0.00    +0.000 A 
ATOM      5  C   UNL     1      -2.381  12.530  19.977  0.00  0.00    +0.000 A 
ATOM      6  C   UNL     1      -1.888  12.855  21.252  0.00  0.00    +0.000 A 
ATOM      7  C   UNL     1      -0.490  12.410  21.631  0.00  0.00    +0.000 C 
ATOM      8  C   UNL     1       0.514  12.238  20.476  0.00  0.00    +0.000 C 
ATOM      9  C   UNL     1       1.684  13.193  20.638  0.00  0.00    +0.000 C 
ATOM     10  O   UNL     1       2.628  12.965  21.386  0.00  0.00    +0.000 OA
ATOM     11  C   UNL     1       1.504  14.443  19.789  0.00  0.00    +0.000 C 
ATOM     12  C   UNL     1       2.692  14.669  18.826  0.00  0.00    +0.000 C 
ATOM     13  C   UNL     1       3.272  16.069  19.088  0.00  0.00    +0.000 C 
ATOM     14  C   UNL     1       2.467  16.581  20.236  0.00  0.00    +0.000 A 
ATOM     15  C   UNL     1       2.627  17.801  20.878  0.00  0.00    +0.000 A 
ATOM     16  C   UNL     1       1.728  18.144  21.889  0.00  0.00    +0.000 A 
ATOM     17  C   UNL     1       0.697  17.276  22.242  0.00  0.00    +0.000 A 
ATOM     18  C   UNL     1       0.555  16.037  21.610  0.00  0.00    +0.000 A 
ATOM     19  C   UNL     1       1.448  15.699  20.601  0.00  0.00    +0.000 A 
ATOM     20  C   UNL     1       0.248  14.100  19.004  0.00  0.00    +0.000 C 
ATOM     21  O   UNL     1      -0.395  14.878  18.314  0.00  0.00    +0.000 OA
ATOM     22  C   UNL     1      -0.017  12.603  19.091  0.00  0.00    +0.000 C 
ATOM     23  C   UNL     1      -1.448  12.162  18.855  0.00  0.00    +0.000 C 
ENDROOT
BRANCH   1  24
ATOM     24  O   UNL     1      -2.338  13.819  23.452  0.00  0.00    +0.000 OA
BRANCH  24  26
ATOM     25  C   UNL     1      -3.147  15.190  25.209  0.00  0.00    +0.000 C 
ATOM     26  C   UNL     1      -2.644  15.142  23.796  0.00  0.00    +0.000 C 
ATOM     27  O   UNL     1      -2.571  16.121  23.065  0.00  0.00    +0.000 OA
ENDBRANCH  24  26
ENDBRANCH   1  24
BRANCH   3  28
ATOM     28  O   UNL     1      -6.062  12.759  20.524  0.00  0.00    +0.000 OA
BRANCH  28  29
ATOM     29  C   UNL     1      -6.764  11.693  21.096  0.00  0.00    +0.000 C 
ATOM     30  C   UNL     1      -7.088  10.698  20.021  0.00  0.00    +0.000 C 
ATOM     31  O   UNL     1      -7.077  11.554  22.271  0.00  0.00    +0.000 OA
ENDBRANCH  28  29
ENDBRANCH   3  28
BRANCH   4  32
ATOM     32  O   UNL     1      -4.171  11.924  18.482  0.00  0.00    +0.000 OA
BRANCH  32  33
ATOM     33  C   UNL     1      -4.756  11.771  17.206  0.00  0.00    +0.000 C 
ATOM     34  C   UNL     1      -3.879  11.076  16.219  0.00  0.00    +0.000 C 
ATOM     35  O   UNL     1      -5.854  12.242  16.942  0.00  0.00    +0.000 OA
ENDBRANCH  32  33
ENDBRANCH   4  32
TORSDOF 6
ENDMDL
MODEL 4
REMARK VINA RESULT:      -6.4      2.150      7.935
REMARK  Name = 
REMARK  9 active torsions:
REMARK  status: ('A' for Active; 'I' for Inactive)
REMARK    1  A    between atoms: C_1  and  C_2
REMARK    2  A    between atoms: C_2  and  O_4
REMARK    3  A    between atoms: O_4  and  C_5
REMARK    4  A    between atoms: C_7  and  O_8
REMARK    5  A    between atoms: O_8  and  C_9
REMARK    6  A    between atoms: C_9  and  C_10
REMARK    7  A    between atoms: C_12  and  O_13
REMARK    8  A    between atoms: O_13  and  C_14
REMARK    9  A    between atoms: C_14  and  C_15
REMARK                            x       y       z     vdW  Elec       q    Type
REMARK                         _______ _______ _______ _____ _____    ______ ____
ROOT
ATOM      1  C   UNL     1      -0.638  12.159  20.937  0.00  0.00    +0.000 A 
ATOM      2  C   UNL     1       0.554  12.606  20.342  0.00  0.00    +0.000 A 
ATOM      3  C   UNL     1       1.275  13.652  20.906  0.00  0.00    +0.000 A 
ATOM      4  C   UNL     1       0.699  14.344  21.966  0.00  0.00    +0.000 A 
ATOM      5  C   UNL     1      -0.526  13.949  22.543  0.00  0.00    +0.000 A 
ATOM      6  C   UNL     1      -1.133  12.759  22.111  0.00  0.00    +0.000 A 
ATOM      7  C   UNL     1      -2.117  12.063  23.030  0.00  0.00    +0.000 C 
ATOM      8  C   UNL     1      -2.880  12.958  24.024  0.00  0.00    +0.000 C 
ATOM      9  C   UNL     1      -4.374  12.896  23.761  0.00  0.00    +0.000 C 
ATOM     10  O   UNL     1      -5.082  11.981  24.165  0.00  0.00    +0.000 OA
ATOM     11  C   UNL     1      -4.842  14.080  22.926  0.00  0.00    +0.000 C 
ATOM     12  C   UNL     1      -5.967  14.876  23.623  0.00  0.00    +0.000 C 
ATOM     13  C   UNL     1      -7.181  14.934  22.680  0.00  0.00    +0.000 C 
ATOM     14  C   UNL     1      -6.761  14.110  21.508  0.00  0.00    +0.000 A 
ATOM     15  C   UNL     1      -7.526  13.821  20.386  0.00  0.00    +0.000 A 
ATOM     16  C   UNL     1      -6.939  13.094  19.349  0.00  0.00    +0.000 A 
ATOM     17  C   UNL     1      -5.614  12.672  19.445  0.00  0.00    +0.000 A 
ATOM     18  C   UNL     1      -4.856  12.945  20.587  0.00  0.00    +0.000 A 
ATOM     19  C   UNL     1      -5.441  13.671  21.616  0.00  0.00    +0.000 A 
ATOM     20  C   UNL     1      -3.575  14.916  22.847  0.00  0.00    +0.000 C 
ATOM     21  O   UNL     1      -3.407  15.885  22.122  0.00  0.00    +0.000 OA
ATOM     22  C   UNL     1      -2.588  14.454  23.911  0.00  0.00    +0.000 C 
ATOM     23  C   UNL     1      -1.129  14.769  23.653  0.00  0.00    +0.000 C 
ENDROOT
BRANCH   1  24
ATOM     24  O   UNL     1      -1.262  11.012  20.406  0.00  0.00    +0.000 OA
BRANCH  24  26
ATOM     25  C   UNL     1      -2.169  11.763  18.348  0.00  0.00    +0.000 C 
ATOM     26  C   UNL     1      -1.176  10.857  19.017  0.00  0.00    +0.000 C 
ATOM     27  O   UNL     1      -0.450  10.078  18.414  0.00  0.00    +0.000 OA
ENDBRANCH  24  26
ENDBRANCH   1  24
BRANCH   3  28
ATOM     28  O   UNL     1       2.523  14.051  20.400  0.00  0.00    +0.000 OA
BRANCH  28  29
ATOM     29  C   UNL     1       2.670  14.226  19.020  0.00  0.00    +0.000 C 
ATOM     30  C   UNL     1       2.040  15.530  18.631  0.00  0.00    +0.000 C 
ATOM     31  O   UNL     1       3.218  13.469  18.229  0.00  0.00    +0.000 OA
ENDBRANCH  28  29
ENDBRANCH   3  28
BRANCH   4  32
ATOM     32  O   UNL     1       1.343  15.467  22.647  0.00  0.00    +0.000 OA
BRANCH  32  33
ATOM     33  C   UNL     1       2.171  16.579  22.912  0.00  0.00    +0.000 C 
ATOM     34  C   UNL     1       2.340  17.497  21.747  0.00  0.00    +0.000 C 
ATOM     35  O   UNL     1       2.745  16.713  23.984  0.00  0.00    +0.000 OA
ENDBRANCH  32  33
ENDBRANCH   4  32
TORSDOF 6
ENDMDL
MODEL 5
REMARK VINA RESULT:      -6.4      2.569      5.944
REMARK  Name = 
REMARK  9 active torsions:
REMARK  status: ('A' for Active; 'I' for Inactive)
REMARK    1  A    between atoms: C_1  and  C_2
REMARK    2  A    between atoms: C_2  and  O_4
REMARK    3  A    between atoms: O_4  and  C_5
REMARK    4  A    between atoms: C_7  and  O_8
REMARK    5  A    between atoms: O_8  and  C_9
REMARK    6  A    between atoms: C_9  and  C_10
REMARK    7  A    between atoms: C_12  and  O_13
REMARK    8  A    between atoms: O_13  and  C_14
REMARK    9  A    between atoms: C_14  and  C_15
REMARK                            x       y       z     vdW  Elec       q    Type
REMARK                         _______ _______ _______ _____ _____    ______ ____
ROOT
ATOM      1  C   UNL     1      -2.328  13.352  21.927  0.00  0.00    +0.000 A 
ATOM      2  C   UNL     1      -2.217  14.461  22.782  0.00  0.00    +0.000 A 
ATOM      3  C   UNL     1      -1.597  15.627  22.345  0.00  0.00    +0.000 A 
ATOM      4  C   UNL     1      -0.951  15.601  21.115  0.00  0.00    +0.000 A 
ATOM      5  C   UNL     1      -0.999  14.477  20.265  0.00  0.00    +0.000 A 
ATOM      6  C   UNL     1      -1.815  13.389  20.617  0.00  0.00    +0.000 A 
ATOM      7  C   UNL     1      -2.284  12.444  19.529  0.00  0.00    +0.000 C 
ATOM      8  C   UNL     1      -1.375  12.311  18.294  0.00  0.00    +0.000 C 
ATOM      9  C   UNL     1      -0.875  10.884  18.149  0.00  0.00    +0.000 C 
ATOM     10  O   UNL     1      -1.550   9.992  17.648  0.00  0.00    +0.000 OA
ATOM     11  C   UNL     1       0.525  10.723  18.724  0.00  0.00    +0.000 C 
ATOM     12  C   UNL     1       1.521  10.162  17.683  0.00  0.00    +0.000 C 
ATOM     13  C   UNL     1       2.155   8.883  18.256  0.00  0.00    +0.000 C 
ATOM     14  C   UNL     1       1.460   8.694  19.564  0.00  0.00    +0.000 A 
ATOM     15  C   UNL     1       1.653   7.651  20.458  0.00  0.00    +0.000 A 
ATOM     16  C   UNL     1       0.967   7.679  21.673  0.00  0.00    +0.000 A 
ATOM     17  C   UNL     1       0.108   8.735  21.974  0.00  0.00    +0.000 A 
ATOM     18  C   UNL     1      -0.102   9.771  21.059  0.00  0.00    +0.000 A 
ATOM     19  C   UNL     1       0.585   9.742  19.853  0.00  0.00    +0.000 A 
ATOM     20  C   UNL     1       0.879  12.160  19.069  0.00  0.00    +0.000 C 
ATOM     21  O   UNL     1       1.845  12.517  19.728  0.00  0.00    +0.000 OA
ATOM     22  C   UNL     1      -0.073  13.109  18.354  0.00  0.00    +0.000 C 
ATOM     23  C   UNL     1      -0.235  14.485  18.968  0.00  0.00    +0.000 C 
ENDROOT
BRANCH   1  24
ATOM     24  O   UNL     1      -3.080  12.242  22.366  0.00  0.00    +0.000 OA
BRANCH  24  26
ATOM     25  C   UNL     1      -5.255  12.894  21.680  0.00  0.00    +0.000 C 
ATOM     26  C   UNL     1      -4.369  12.525  22.835  0.00  0.00    +0.000 C 
ATOM     27  O   UNL     1      -4.736  12.530  24.002  0.00  0.00    +0.000 OA
ENDBRANCH  24  26
ENDBRANCH   1  24
BRANCH   3  28
ATOM     28  O   UNL     1      -1.565  16.790  23.133  0.00  0.00    +0.000 OA
BRANCH  28  29
ATOM     29  C   UNL     1      -0.998  16.727  24.411  0.00  0.00    +0.000 C 
ATOM     30  C   UNL     1      -2.000  17.231  25.407  0.00  0.00    +0.000 C 
ATOM     31  O   UNL     1       0.121  16.330  24.709  0.00  0.00    +0.000 OA
ENDBRANCH  28  29
ENDBRANCH   3  28
BRANCH   4  32
ATOM     32  O   UNL     1      -0.255  16.752  20.540  0.00  0.00    +0.000 OA
BRANCH  32  33
ATOM     33  C   UNL     1       0.728  17.729  20.271  0.00  0.00    +0.000 C 
ATOM     34  C   UNL     1       0.979  17.949  18.817  0.00  0.00    +0.000 C 
ATOM     35  O   UNL     1       1.355  18.275  21.169  0.00  0.00    +0.000 OA
ENDBRANCH  32  33
ENDBRANCH   4  32
TORSDOF 6
ENDMDL
MODEL 6
REMARK VINA RESULT:      -6.4      2.080      7.954
REMARK  Name = 
REMARK  9 active torsions:
REMARK  status: ('A' for Active; 'I' for Inactive)
REMARK    1  A    between atoms: C_1  and  C_2
REMARK    2  A    between atoms: C_2  and  O_4
REMARK    3  A    between atoms: O_4  and  C_5
REMARK    4  A    between atoms: C_7  and  O_8
REMARK    5  A    between atoms: O_8  and  C_9
REMARK    6  A    between atoms: C_9  and  C_10
REMARK    7  A    between atoms: C_12  and  O_13
REMARK    8  A    between atoms: O_13  and  C_14
REMARK    9  A    between atoms: C_14  and  C_15
REMARK                            x       y       z     vdW  Elec       q    Type
REMARK                         _______ _______ _______ _____ _____    ______ ____
ROOT
ATOM      1  C   UNL     1      -0.814  12.578  19.817  0.00  0.00    +0.000 A 
ATOM      2  C   UNL     1       0.037  13.176  18.873  0.00  0.00    +0.000 A 
ATOM      3  C   UNL     1       0.629  14.406  19.138  0.00  0.00    +0.000 A 
ATOM      4  C   UNL     1       0.224  15.093  20.276  0.00  0.00    +0.000 A 
ATOM      5  C   UNL     1      -0.675  14.537  21.210  0.00  0.00    +0.000 A 
ATOM      6  C   UNL     1      -1.092  13.205  21.046  0.00  0.00    +0.000 A 
ATOM      7  C   UNL     1      -1.604  12.445  22.254  0.00  0.00    +0.000 C 
ATOM      8  C   UNL     1      -2.248  13.285  23.372  0.00  0.00    +0.000 C 
ATOM      9  C   UNL     1      -3.703  12.896  23.563  0.00  0.00    +0.000 C 
ATOM     10  O   UNL     1      -4.049  11.914  24.211  0.00  0.00    +0.000 OA
ATOM     11  C   UNL     1      -4.636  13.852  22.832  0.00  0.00    +0.000 C 
ATOM     12  C   UNL     1      -5.677  14.488  23.780  0.00  0.00    +0.000 C 
ATOM     13  C   UNL     1      -7.082  14.187  23.232  0.00  0.00    +0.000 C 
ATOM     14  C   UNL     1      -6.825  13.327  22.040  0.00  0.00    +0.000 A 
ATOM     15  C   UNL     1      -7.781  12.757  21.211  0.00  0.00    +0.000 A 
ATOM     16  C   UNL     1      -7.352  12.040  20.093  0.00  0.00    +0.000 A 
ATOM     17  C   UNL     1      -5.991  11.905  19.822  0.00  0.00    +0.000 A 
ATOM     18  C   UNL     1      -5.032  12.460  20.673  0.00  0.00    +0.000 A 
ATOM     19  C   UNL     1      -5.462  13.175  21.783  0.00  0.00    +0.000 A 
ATOM     20  C   UNL     1      -3.661  14.907  22.336  0.00  0.00    +0.000 C 
ATOM     21  O   UNL     1      -3.920  15.795  21.537  0.00  0.00    +0.000 OA
ATOM     22  C   UNL     1      -2.343  14.784  23.089  0.00  0.00    +0.000 C 
ATOM     23  C   UNL     1      -1.120  15.349  22.396  0.00  0.00    +0.000 C 
ENDROOT
BRANCH   1  24
ATOM     24  O   UNL     1      -1.285  11.273  19.562  0.00  0.00    +0.000 OA
BRANCH  24  26
ATOM     25  C   UNL     1       0.385   9.866  20.486  0.00  0.00    +0.000 C 
ATOM     26  C   UNL     1      -0.307  10.324  19.236  0.00  0.00    +0.000 C 
ATOM     27  O   UNL     1      -0.005   9.945  18.112  0.00  0.00    +0.000 OA
ENDBRANCH  24  26
ENDBRANCH   1  24
BRANCH   3  28
ATOM     28  O   UNL     1       1.568  14.981  18.265  0.00  0.00    +0.000 OA
BRANCH  28  29
ATOM     29  C   UNL     1       2.930  14.748  18.486  0.00  0.00    +0.000 C 
ATOM     30  C   UNL     1       3.722  15.539  17.488  0.00  0.00    +0.000 C 
ATOM     31  O   UNL     1       3.432  14.030  19.342  0.00  0.00    +0.000 OA
ENDBRANCH  28  29
ENDBRANCH   3  28
BRANCH   4  32
ATOM     32  O   UNL     1       0.760  16.397  20.670  0.00  0.00    +0.000 OA
BRANCH  32  33
ATOM     33  C   UNL     1       1.493  17.603  20.666  0.00  0.00    +0.000 C 
ATOM     34  C   UNL     1       1.412  18.362  21.947  0.00  0.00    +0.000 C 
ATOM     35  O   UNL     1       2.070  18.001  19.663  0.00  0.00    +0.000 OA
ENDBRANCH  32  33
ENDBRANCH   4  32
TORSDOF 6
ENDMDL
MODEL 7
REMARK VINA RESULT:      -6.3      2.705      5.765
REMARK  Name = 
REMARK  9 active torsions:
REMARK  status: ('A' for Active; 'I' for Inactive)
REMARK    1  A    between atoms: C_1  and  C_2
REMARK    2  A    between atoms: C_2  and  O_4
REMARK    3  A    between atoms: O_4  and  C_5
REMARK    4  A    between atoms: C_7  and  O_8
REMARK    5  A    between atoms: O_8  and  C_9
REMARK    6  A    between atoms: C_9  and  C_10
REMARK    7  A    between atoms: C_12  and  O_13
REMARK    8  A    between atoms: O_13  and  C_14
REMARK    9  A    between atoms: C_14  and  C_15
REMARK                            x       y       z     vdW  Elec       q    Type
REMARK                         _______ _______ _______ _____ _____    ______ ____
ROOT
ATOM      1  C   UNL     1      -2.026  13.398  22.264  0.00  0.00    +0.000 A 
ATOM      2  C   UNL     1      -1.818  14.523  23.079  0.00  0.00    +0.000 A 
ATOM      3  C   UNL     1      -1.274  15.687  22.548  0.00  0.00    +0.000 A 
ATOM      4  C   UNL     1      -0.791  15.646  21.245  0.00  0.00    +0.000 A 
ATOM      5  C   UNL     1      -0.936  14.507  20.426  0.00  0.00    +0.000 A 
ATOM      6  C   UNL     1      -1.686  13.417  20.898  0.00  0.00    +0.000 A 
ATOM      7  C   UNL     1      -2.282  12.449  19.895  0.00  0.00    +0.000 C 
ATOM      8  C   UNL     1      -1.537  12.303  18.555  0.00  0.00    +0.000 C 
ATOM      9  C   UNL     1      -1.044  10.879  18.369  0.00  0.00    +0.000 C 
ATOM     10  O   UNL     1      -1.768   9.972  17.975  0.00  0.00    +0.000 OA
ATOM     11  C   UNL     1       0.421  10.741  18.761  0.00  0.00    +0.000 C 
ATOM     12  C   UNL     1       1.280  10.172  17.610  0.00  0.00    +0.000 C 
ATOM     13  C   UNL     1       1.998   8.909  18.116  0.00  0.00    +0.000 C 
ATOM     14  C   UNL     1       1.480   8.737  19.506  0.00  0.00    +0.000 A 
ATOM     15  C   UNL     1       1.799   7.711  20.384  0.00  0.00    +0.000 A 
ATOM     16  C   UNL     1       1.275   7.753  21.677  0.00  0.00    +0.000 A 
ATOM     17  C   UNL     1       0.450   8.806  22.069  0.00  0.00    +0.000 A 
ATOM     18  C   UNL     1       0.111   9.824  21.173  0.00  0.00    +0.000 A 
ATOM     19  C   UNL     1       0.637   9.781  19.889  0.00  0.00    +0.000 A 
ATOM     20  C   UNL     1       0.799  12.188  19.035  0.00  0.00    +0.000 C 
ATOM     21  O   UNL     1       1.838  12.565  19.557  0.00  0.00    +0.000 OA
ATOM     22  C   UNL     1      -0.249  13.115  18.433  0.00  0.00    +0.000 C 
ATOM     23  C   UNL     1      -0.345  14.500  19.041  0.00  0.00    +0.000 C 
ENDROOT
BRANCH   1  24
ATOM     24  O   UNL     1      -2.702  12.289  22.814  0.00  0.00    +0.000 OA
BRANCH  24  26
ATOM     25  C   UNL     1      -4.257  12.463  24.596  0.00  0.00    +0.000 C 
ATOM     26  C   UNL     1      -4.057  12.485  23.108  0.00  0.00    +0.000 C 
ATOM     27  O   UNL     1      -4.969  12.608  22.301  0.00  0.00    +0.000 OA
ENDBRANCH  24  26
ENDBRANCH   1  24
BRANCH   3  28
ATOM     28  O   UNL     1      -1.153  16.864  23.306  0.00  0.00    +0.000 OA
BRANCH  28  29
ATOM     29  C   UNL     1      -2.271  17.694  23.451  0.00  0.00    +0.000 C 
ATOM     30  C   UNL     1      -2.626  17.771  24.906  0.00  0.00    +0.000 C 
ATOM     31  O   UNL     1      -2.881  18.280  22.567  0.00  0.00    +0.000 OA
ENDBRANCH  28  29
ENDBRANCH   3  28
BRANCH   4  32
ATOM     32  O   UNL     1      -0.189  16.794  20.566  0.00  0.00    +0.000 OA
BRANCH  32  33
ATOM     33  C   UNL     1      -0.034  17.978  19.813  0.00  0.00    +0.000 C 
ATOM     34  C   UNL     1      -1.266  18.395  19.084  0.00  0.00    +0.000 C 
ATOM     35  O   UNL     1       1.046  18.547  19.726  0.00  0.00    +0.000 OA
ENDBRANCH  32  33
ENDBRANCH   4  32
TORSDOF 6
ENDMDL
MODEL 8
REMARK VINA RESULT:      -6.3      2.149      8.111
REMARK  Name = 
REMARK  9 active torsions:
REMARK  status: ('A' for Active; 'I' for Inactive)
REMARK    1  A    between atoms: C_1  and  C_2
REMARK    2  A    between atoms: C_2  and  O_4
REMARK    3  A    between atoms: O_4  and  C_5
REMARK    4  A    between atoms: C_7  and  O_8
REMARK    5  A    between atoms: O_8  and  C_9
REMARK    6  A    between atoms: C_9  and  C_10
REMARK    7  A    between atoms: C_12  and  O_13
REMARK    8  A    between atoms: O_13  and  C_14
REMARK    9  A    between atoms: C_14  and  C_15
REMARK                            x       y       z     vdW  Elec       q    Type
REMARK                         _______ _______ _______ _____ _____    ______ ____
ROOT
ATOM      1  C   UNL     1      -0.612  12.458  21.023  0.00  0.00    +0.000 A 
ATOM      2  C   UNL     1       0.508  13.019  20.388  0.00  0.00    +0.000 A 
ATOM      3  C   UNL     1       1.117  14.156  20.909  0.00  0.00    +0.000 A 
ATOM      4  C   UNL     1       0.489  14.806  21.965  0.00  0.00    +0.000 A 
ATOM      5  C   UNL     1      -0.671  14.292  22.581  0.00  0.00    +0.000 A 
ATOM      6  C   UNL     1      -1.147  13.029  22.193  0.00  0.00    +0.000 A 
ATOM      7  C   UNL     1      -2.026  12.251  23.153  0.00  0.00    +0.000 C 
ATOM      8  C   UNL     1      -2.865  13.081  24.142  0.00  0.00    +0.000 C 
ATOM      9  C   UNL     1      -4.348  12.843  23.917  0.00  0.00    +0.000 C 
ATOM     10  O   UNL     1      -4.939  11.865  24.360  0.00  0.00    +0.000 OA
ATOM     11  C   UNL     1      -4.965  13.943  23.064  0.00  0.00    +0.000 C 
ATOM     12  C   UNL     1      -6.158  14.626  23.769  0.00  0.00    +0.000 C 
ATOM     13  C   UNL     1      -7.390  14.520  22.853  0.00  0.00    +0.000 C 
ATOM     14  C   UNL     1      -6.905  13.718  21.692  0.00  0.00    +0.000 A 
ATOM     15  C   UNL     1      -7.655  13.313  20.597  0.00  0.00    +0.000 A 
ATOM     16  C   UNL     1      -7.011  12.630  19.564  0.00  0.00    +0.000 A 
ATOM     17  C   UNL     1      -5.645  12.363  19.638  0.00  0.00    +0.000 A 
ATOM     18  C   UNL     1      -4.899  12.751  20.755  0.00  0.00    +0.000 A 
ATOM     19  C   UNL     1      -5.541  13.434  21.779  0.00  0.00    +0.000 A 
ATOM     20  C   UNL     1      -3.803  14.915  22.934  0.00  0.00    +0.000 C 
ATOM     21  O   UNL     1      -3.761  15.877  22.182  0.00  0.00    +0.000 OA
ATOM     22  C   UNL     1      -2.748  14.596  23.985  0.00  0.00    +0.000 C 
ATOM     23  C   UNL     1      -1.340  15.067  23.684  0.00  0.00    +0.000 C 
ENDROOT
BRANCH   1  24
ATOM     24  O   UNL     1      -1.113  11.232  20.536  0.00  0.00    +0.000 OA
BRANCH  24  26
ATOM     25  C   UNL     1      -0.637  10.187  18.462  0.00  0.00    +0.000 C 
ATOM     26  C   UNL     1      -1.464  11.213  19.180  0.00  0.00    +0.000 C 
ATOM     27  O   UNL     1      -2.277  11.941  18.626  0.00  0.00    +0.000 OA
ENDBRANCH  24  26
ENDBRANCH   1  24
BRANCH   3  28
ATOM     28  O   UNL     1       2.301  14.680  20.364  0.00  0.00    +0.000 OA
BRANCH  28  29
ATOM     29  C   UNL     1       3.526  14.329  20.941  0.00  0.00    +0.000 C 
ATOM     30  C   UNL     1       4.628  15.001  20.177  0.00  0.00    +0.000 C 
ATOM     31  O   UNL     1       3.711  13.602  21.909  0.00  0.00    +0.000 OA
ENDBRANCH  28  29
ENDBRANCH   3  28
BRANCH   4  32
ATOM     32  O   UNL     1       1.016  16.013  22.602  0.00  0.00    +0.000 OA
BRANCH  32  33
ATOM     33  C   UNL     1       1.874  16.911  23.272  0.00  0.00    +0.000 C 
ATOM     34  C   UNL     1       2.647  17.802  22.359  0.00  0.00    +0.000 C 
ATOM     35  O   UNL     1       2.008  16.887  24.488  0.00  0.00    +0.000 OA
ENDBRANCH  32  33
ENDBRANCH   4  32
TORSDOF 6
ENDMDL
MODEL 9
REMARK VINA RESULT:      -6.2      2.510      8.103
REMARK  Name = 
REMARK  9 active torsions:
REMARK  status: ('A' for Active; 'I' for Inactive)
REMARK    1  A    between atoms: C_1  and  C_2
REMARK    2  A    between atoms: C_2  and  O_4
REMARK    3  A    between atoms: O_4  and  C_5
REMARK    4  A    between atoms: C_7  and  O_8
REMARK    5  A    between atoms: O_8  and  C_9
REMARK    6  A    between atoms: C_9  and  C_10
REMARK    7  A    between atoms: C_12  and  O_13
REMARK    8  A    between atoms: O_13  and  C_14
REMARK    9  A    between atoms: C_14  and  C_15
REMARK                            x       y       z     vdW  Elec       q    Type
REMARK                         _______ _______ _______ _____ _____    ______ ____
ROOT
ATOM      1  C   UNL     1      -0.697  12.261  21.337  0.00  0.00    +0.000 A 
ATOM      2  C   UNL     1       0.430  12.789  20.686  0.00  0.00    +0.000 A 
ATOM      3  C   UNL     1       0.990  13.989  21.108  0.00  0.00    +0.000 A 
ATOM      4  C   UNL     1       0.309  14.724  22.071  0.00  0.00    +0.000 A 
ATOM      5  C   UNL     1      -0.859  14.240  22.698  0.00  0.00    +0.000 A 
ATOM      6  C   UNL     1      -1.288  12.931  22.425  0.00  0.00    +0.000 A 
ATOM      7  C   UNL     1      -2.180  12.229  23.430  0.00  0.00    +0.000 C 
ATOM      8  C   UNL     1      -3.075  13.129  24.302  0.00  0.00    +0.000 C 
ATOM      9  C   UNL     1      -4.542  12.827  24.053  0.00  0.00    +0.000 C 
ATOM     10  O   UNL     1      -5.123  11.881  24.574  0.00  0.00    +0.000 OA
ATOM     11  C   UNL     1      -5.156  13.816  23.073  0.00  0.00    +0.000 C 
ATOM     12  C   UNL     1      -6.392  14.532  23.666  0.00  0.00    +0.000 C 
ATOM     13  C   UNL     1      -7.587  14.298  22.726  0.00  0.00    +0.000 C 
ATOM     14  C   UNL     1      -7.040  13.397  21.669  0.00  0.00    +0.000 A 
ATOM     15  C   UNL     1      -7.740  12.863  20.596  0.00  0.00    +0.000 A 
ATOM     16  C   UNL     1      -7.043  12.098  19.660  0.00  0.00    +0.000 A 
ATOM     17  C   UNL     1      -5.674  11.880  19.806  0.00  0.00    +0.000 A 
ATOM     18  C   UNL     1      -4.978  12.400  20.901  0.00  0.00    +0.000 A 
ATOM     19  C   UNL     1      -5.673  13.164  21.829  0.00  0.00    +0.000 A 
ATOM     20  C   UNL     1      -4.017  14.804  22.884  0.00  0.00    +0.000 C 
ATOM     21  O   UNL     1      -3.973  15.686  22.039  0.00  0.00    +0.000 OA
ATOM     22  C   UNL     1      -2.991  14.624  23.996  0.00  0.00    +0.000 C 
ATOM     23  C   UNL     1      -1.586  15.103  23.695  0.00  0.00    +0.000 C 
ENDROOT
BRANCH   1  24
ATOM     24  O   UNL     1      -1.149  10.979  20.961  0.00  0.00    +0.000 OA
BRANCH  24  26
ATOM     25  C   UNL     1      -0.038   9.450  22.393  0.00  0.00    +0.000 C 
ATOM     26  C   UNL     1      -0.188   9.960  20.990  0.00  0.00    +0.000 C 
ATOM     27  O   UNL     1       0.479   9.561  20.045  0.00  0.00    +0.000 OA
ENDBRANCH  24  26
ENDBRANCH   1  24
BRANCH   3  28
ATOM     28  O   UNL     1       2.179  14.490  20.551  0.00  0.00    +0.000 OA
BRANCH  28  29
ATOM     29  C   UNL     1       3.362  14.408  21.294  0.00  0.00    +0.000 C 
ATOM     30  C   UNL     1       4.098  15.709  21.170  0.00  0.00    +0.000 C 
ATOM     31  O   UNL     1       3.763  13.457  21.952  0.00  0.00    +0.000 OA
ENDBRANCH  28  29
ENDBRANCH   3  28
BRANCH   4  32
ATOM     32  O   UNL     1       0.781  16.004  22.600  0.00  0.00    +0.000 OA
BRANCH  32  33
ATOM     33  C   UNL     1       1.363  16.975  23.443  0.00  0.00    +0.000 C 
ATOM     34  C   UNL     1       0.722  18.319  23.348  0.00  0.00    +0.000 C 
ATOM     35  O   UNL     1       2.350  16.728  24.123  0.00  0.00    +0.000 OA
ENDBRANCH  32  33
ENDBRANCH   4  32
TORSDOF 6
ENDMDL
