MODEL 1
REMARK VINA RESULT:      -7.1      0.000      0.000
REMARK  Name = 
REMARK  4 active torsions:
REMARK  status: ('A' for Active; 'I' for Inactive)
REMARK    1  A    between atoms: C_1  and  N_2
REMARK    2  A    between atoms: N_2  and  C_3
REMARK    3  A    between atoms: C_6  and  C_7
REMARK    4  A    between atoms: C_9  and  C_10
REMARK                            x       y       z     vdW  Elec       q    Type
REMARK                         _______ _______ _______ _____ _____    ______ ____
ROOT
ATOM      1  C   UNL     1       5.321   4.269  16.106  0.00  0.00    +0.000 A 
ATOM      2  C   UNL     1       5.081   3.796  14.804  0.00  0.00    +0.000 A 
ATOM      3  C   UNL     1       6.022   3.987  13.774  0.00  0.00    +0.000 A 
ATOM      4  C   UNL     1       7.225   4.652  14.065  0.00  0.00    +0.000 A 
ATOM      5  C   UNL     1       7.481   5.111  15.355  0.00  0.00    +0.000 A 
ATOM      6  C   UNL     1       6.536   4.919  16.360  0.00  0.00    +0.000 A 
ATOM      7  F   UNL     1       6.832   5.374  17.588  0.00  0.00    +0.000 F 
ENDROOT
BRANCH   1  13
ATOM      8  C   UNL     1       2.393   7.068  19.338  0.00  0.00    +0.000 C 
ATOM      9  N   UNL     1       2.198   5.642  19.541  0.00  0.00    +0.000 N 
ATOM     10  C   UNL     1       1.731   5.201  20.846  0.00  0.00    +0.000 C 
ATOM     11  C   UNL     1       2.894   4.786  18.732  0.00  0.00    +0.000 A 
ATOM     12  N   UNL     1       3.755   5.176  17.811  0.00  0.00    +0.000 NA
ATOM     13  C   UNL     1       4.302   4.093  17.138  0.00  0.00    +0.000 A 
ATOM     14  C   UNL     1       3.847   2.864  17.561  0.00  0.00    +0.000 A 
ATOM     15  S   UNL     1       2.707   3.060  18.814  0.00  0.00    +0.000 S 
ENDBRANCH   1  13
BRANCH   3  16
ATOM     16  C   UNL     1       5.760   3.503  12.368  0.00  0.00    +0.000 C 
ATOM     17  F   UNL     1       4.501   3.763  11.921  0.00  0.00    +0.000 F 
ATOM     18  F   UNL     1       6.603   4.070  11.461  0.00  0.00    +0.000 F 
ATOM     19  F   UNL     1       5.932   2.157  12.243  0.00  0.00    +0.000 F 
ENDBRANCH   3  16
TORSDOF 2
ENDMDL
MODEL 2
REMARK VINA RESULT:      -7.1      3.977      5.473
REMARK  Name = 
REMARK  4 active torsions:
REMARK  status: ('A' for Active; 'I' for Inactive)
REMARK    1  A    between atoms: C_1  and  N_2
REMARK    2  A    between atoms: N_2  and  C_3
REMARK    3  A    between atoms: C_6  and  C_7
REMARK    4  A    between atoms: C_9  and  C_10
REMARK                            x       y       z     vdW  Elec       q    Type
REMARK                         _______ _______ _______ _____ _____    ______ ____
ROOT
ATOM      1  C   UNL     1       2.907   6.410  18.200  0.00  0.00    +0.000 A 
ATOM      2  C   UNL     1       2.217   5.208  18.436  0.00  0.00    +0.000 A 
ATOM      3  C   UNL     1       2.775   3.966  18.079  0.00  0.00    +0.000 A 
ATOM      4  C   UNL     1       4.048   3.935  17.487  0.00  0.00    +0.000 A 
ATOM      5  C   UNL     1       4.748   5.119  17.262  0.00  0.00    +0.000 A 
ATOM      6  C   UNL     1       4.178   6.340  17.617  0.00  0.00    +0.000 A 
ATOM      7  F   UNL     1       4.895   7.450  17.385  0.00  0.00    +0.000 F 
ENDROOT
BRANCH   1  13
ATOM      8  C   UNL     1       1.095   8.981  22.318  0.00  0.00    +0.000 C 
ATOM      9  N   UNL     1       0.866   9.718  21.087  0.00  0.00    +0.000 N 
ATOM     10  C   UNL     1      -0.228  10.677  21.063  0.00  0.00    +0.000 C 
ATOM     11  C   UNL     1       1.322   9.162  19.922  0.00  0.00    +0.000 A 
ATOM     12  N   UNL     1       1.916   7.987  19.848  0.00  0.00    +0.000 NA
ATOM     13  C   UNL     1       2.278   7.683  18.543  0.00  0.00    +0.000 A 
ATOM     14  C   UNL     1       1.947   8.648  17.616  0.00  0.00    +0.000 A 
ATOM     15  S   UNL     1       1.182   9.963  18.385  0.00  0.00    +0.000 S 
ENDBRANCH   1  13
BRANCH   3  16
ATOM     16  C   UNL     1       2.029   2.672  18.308  0.00  0.00    +0.000 C 
ATOM     17  F   UNL     1       2.316   2.075  19.497  0.00  0.00    +0.000 F 
ATOM     18  F   UNL     1       0.679   2.845  18.293  0.00  0.00    +0.000 F 
ATOM     19  F   UNL     1       2.295   1.743  17.348  0.00  0.00    +0.000 F 
ENDBRANCH   3  16
TORSDOF 2
ENDMDL
MODEL 3
REMARK VINA RESULT:      -7.0      4.088      5.869
REMARK  Name = 
REMARK  4 active torsions:
REMARK  status: ('A' for Active; 'I' for Inactive)
REMARK    1  A    between atoms: C_1  and  N_2
REMARK    2  A    between atoms: N_2  and  C_3
REMARK    3  A    between atoms: C_6  and  C_7
REMARK    4  A    between atoms: C_9  and  C_10
REMARK                            x       y       z     vdW  Elec       q    Type
REMARK                         _______ _______ _______ _____ _____    ______ ____
ROOT
ATOM      1  C   UNL     1       2.693   6.186  18.436  0.00  0.00    +0.000 A 
ATOM      2  C   UNL     1       1.962   5.081  18.907  0.00  0.00    +0.000 A 
ATOM      3  C   UNL     1       2.384   3.764  18.644  0.00  0.00    +0.000 A 
ATOM      4  C   UNL     1       3.563   3.560  17.908  0.00  0.00    +0.000 A 
ATOM      5  C   UNL     1       4.304   4.648  17.450  0.00  0.00    +0.000 A 
ATOM      6  C   UNL     1       3.868   5.944  17.715  0.00  0.00    +0.000 A 
ATOM      7  F   UNL     1       4.620   6.957  17.257  0.00  0.00    +0.000 F 
ENDROOT
BRANCH   1  13
ATOM      8  C   UNL     1       1.030   9.157  22.343  0.00  0.00    +0.000 C 
ATOM      9  N   UNL     1       0.935   9.850  21.069  0.00  0.00    +0.000 N 
ATOM     10  C   UNL     1      -0.041  10.923  20.951  0.00  0.00    +0.000 C 
ATOM     11  C   UNL     1       1.368   9.186  19.953  0.00  0.00    +0.000 A 
ATOM     12  N   UNL     1       1.826   7.949  19.961  0.00  0.00    +0.000 NA
ATOM     13  C   UNL     1       2.201   7.538  18.690  0.00  0.00    +0.000 A 
ATOM     14  C   UNL     1       2.018   8.484  17.705  0.00  0.00    +0.000 A 
ATOM     15  S   UNL     1       1.379   9.915  18.375  0.00  0.00    +0.000 S 
ENDBRANCH   1  13
BRANCH   3  16
ATOM     16  C   UNL     1       1.591   2.572  19.125  0.00  0.00    +0.000 C 
ATOM     17  F   UNL     1       0.403   2.404  18.481  0.00  0.00    +0.000 F 
ATOM     18  F   UNL     1       2.270   1.402  18.968  0.00  0.00    +0.000 F 
ATOM     19  F   UNL     1       1.290   2.651  20.451  0.00  0.00    +0.000 F 
ENDBRANCH   3  16
TORSDOF 2
ENDMDL
MODEL 4
REMARK VINA RESULT:      -7.0      2.008      2.708
REMARK  Name = 
REMARK  4 active torsions:
REMARK  status: ('A' for Active; 'I' for Inactive)
REMARK    1  A    between atoms: C_1  and  N_2
REMARK    2  A    between atoms: N_2  and  C_3
REMARK    3  A    between atoms: C_6  and  C_7
REMARK    4  A    between atoms: C_9  and  C_10
REMARK                            x       y       z     vdW  Elec       q    Type
REMARK                         _______ _______ _______ _____ _____    ______ ____
ROOT
ATOM      1  C   UNL     1       5.164   5.404  17.841  0.00  0.00    +0.000 A 
ATOM      2  C   UNL     1       5.080   5.098  16.471  0.00  0.00    +0.000 A 
ATOM      3  C   UNL     1       6.204   4.644  15.756  0.00  0.00    +0.000 A 
ATOM      4  C   UNL     1       7.424   4.484  16.434  0.00  0.00    +0.000 A 
ATOM      5  C   UNL     1       7.515   4.769  17.795  0.00  0.00    +0.000 A 
ATOM      6  C   UNL     1       6.394   5.223  18.485  0.00  0.00    +0.000 A 
ATOM      7  F   UNL     1       6.533   5.477  19.796  0.00  0.00    +0.000 F 
ENDROOT
BRANCH   1  13
ATOM      8  C   UNL     1       2.011   9.516  17.857  0.00  0.00    +0.000 C 
ATOM      9  N   UNL     1       1.672   8.581  18.917  0.00  0.00    +0.000 N 
ATOM     10  C   UNL     1       0.977   9.101  20.084  0.00  0.00    +0.000 C 
ATOM     11  C   UNL     1       2.413   7.434  19.009  0.00  0.00    +0.000 A 
ATOM     12  N   UNL     1       3.433   7.148  18.223  0.00  0.00    +0.000 NA
ATOM     13  C   UNL     1       3.988   5.917  18.540  0.00  0.00    +0.000 A 
ATOM     14  C   UNL     1       3.375   5.263  19.587  0.00  0.00    +0.000 A 
ATOM     15  S   UNL     1       2.076   6.195  20.181  0.00  0.00    +0.000 S 
ENDBRANCH   1  13
BRANCH   3  16
ATOM     16  C   UNL     1       6.126   4.336  14.279  0.00  0.00    +0.000 C 
ATOM     17  F   UNL     1       6.991   5.064  13.519  0.00  0.00    +0.000 F 
ATOM     18  F   UNL     1       6.400   3.030  14.009  0.00  0.00    +0.000 F 
ATOM     19  F   UNL     1       4.887   4.570  13.766  0.00  0.00    +0.000 F 
ENDBRANCH   3  16
TORSDOF 2
ENDMDL
MODEL 5
REMARK VINA RESULT:      -6.9      1.303      1.781
REMARK  Name = 
REMARK  4 active torsions:
REMARK  status: ('A' for Active; 'I' for Inactive)
REMARK    1  A    between atoms: C_1  and  N_2
REMARK    2  A    between atoms: N_2  and  C_3
REMARK    3  A    between atoms: C_6  and  C_7
REMARK    4  A    between atoms: C_9  and  C_10
REMARK                            x       y       z     vdW  Elec       q    Type
REMARK                         _______ _______ _______ _____ _____    ______ ____
ROOT
ATOM      1  C   UNL     1       5.427   4.833  16.056  0.00  0.00    +0.000 A 
ATOM      2  C   UNL     1       5.086   4.232  14.831  0.00  0.00    +0.000 A 
ATOM      3  C   UNL     1       6.020   4.136  13.782  0.00  0.00    +0.000 A 
ATOM      4  C   UNL     1       7.316   4.640  13.975  0.00  0.00    +0.000 A 
ATOM      5  C   UNL     1       7.671   5.223  15.190  0.00  0.00    +0.000 A 
ATOM      6  C   UNL     1       6.733   5.315  16.215  0.00  0.00    +0.000 A 
ATOM      7  F   UNL     1       7.125   5.879  17.368  0.00  0.00    +0.000 F 
ENDROOT
BRANCH   1  13
ATOM      8  C   UNL     1       2.457   1.871  19.098  0.00  0.00    +0.000 C 
ATOM      9  N   UNL     1       2.178   3.283  19.293  0.00  0.00    +0.000 N 
ATOM     10  C   UNL     1       0.864   3.652  19.799  0.00  0.00    +0.000 C 
ATOM     11  C   UNL     1       2.914   4.181  18.568  0.00  0.00    +0.000 A 
ATOM     12  N   UNL     1       3.828   3.839  17.680  0.00  0.00    +0.000 NA
ATOM     13  C   UNL     1       4.419   4.956  17.106  0.00  0.00    +0.000 A 
ATOM     14  C   UNL     1       3.940   6.161  17.569  0.00  0.00    +0.000 A 
ATOM     15  S   UNL     1       2.737   5.900  18.749  0.00  0.00    +0.000 S 
ENDBRANCH   1  13
BRANCH   3  16
ATOM     16  C   UNL     1       5.652   3.514  12.455  0.00  0.00    +0.000 C 
ATOM     17  F   UNL     1       4.350   3.697  12.103  0.00  0.00    +0.000 F 
ATOM     18  F   UNL     1       6.391   4.016  11.428  0.00  0.00    +0.000 F 
ATOM     19  F   UNL     1       5.860   2.168  12.439  0.00  0.00    +0.000 F 
ENDBRANCH   3  16
TORSDOF 2
ENDMDL
MODEL 6
REMARK VINA RESULT:      -6.9      3.528      4.986
REMARK  Name = 
REMARK  4 active torsions:
REMARK  status: ('A' for Active; 'I' for Inactive)
REMARK    1  A    between atoms: C_1  and  N_2
REMARK    2  A    between atoms: N_2  and  C_3
REMARK    3  A    between atoms: C_6  and  C_7
REMARK    4  A    between atoms: C_9  and  C_10
REMARK                            x       y       z     vdW  Elec       q    Type
REMARK                         _______ _______ _______ _____ _____    ______ ____
ROOT
ATOM      1  C   UNL     1       3.441   6.312  17.994  0.00  0.00    +0.000 A 
ATOM      2  C   UNL     1       4.840   6.381  17.866  0.00  0.00    +0.000 A 
ATOM      3  C   UNL     1       5.604   5.230  17.593  0.00  0.00    +0.000 A 
ATOM      4  C   UNL     1       4.948   3.998  17.435  0.00  0.00    +0.000 A 
ATOM      5  C   UNL     1       3.561   3.921  17.544  0.00  0.00    +0.000 A 
ATOM      6  C   UNL     1       2.821   5.068  17.820  0.00  0.00    +0.000 A 
ATOM      7  F   UNL     1       1.488   4.942  17.909  0.00  0.00    +0.000 F 
ENDROOT
BRANCH   1  13
ATOM      8  C   UNL     1       0.967   8.506  21.984  0.00  0.00    +0.000 C 
ATOM      9  N   UNL     1       0.836   9.300  20.773  0.00  0.00    +0.000 N 
ATOM     10  C   UNL     1      -0.314  10.184  20.664  0.00  0.00    +0.000 C 
ATOM     11  C   UNL     1       1.466   8.846  19.647  0.00  0.00    +0.000 A 
ATOM     12  N   UNL     1       2.149   7.718  19.586  0.00  0.00    +0.000 NA
ATOM     13  C   UNL     1       2.686   7.518  18.322  0.00  0.00    +0.000 A 
ATOM     14  C   UNL     1       2.400   8.514  17.413  0.00  0.00    +0.000 A 
ATOM     15  S   UNL     1       1.455   9.727  18.149  0.00  0.00    +0.000 S 
ENDBRANCH   1  13
BRANCH   3  16
ATOM     16  C   UNL     1       7.109   5.293  17.478  0.00  0.00    +0.000 C 
ATOM     17  F   UNL     1       7.756   5.199  18.672  0.00  0.00    +0.000 F 
ATOM     18  F   UNL     1       7.609   4.292  16.702  0.00  0.00    +0.000 F 
ATOM     19  F   UNL     1       7.537   6.454  16.909  0.00  0.00    +0.000 F 
ENDBRANCH   3  16
TORSDOF 2
ENDMDL
MODEL 7
REMARK VINA RESULT:      -6.9      4.488      6.511
REMARK  Name = 
REMARK  4 active torsions:
REMARK  status: ('A' for Active; 'I' for Inactive)
REMARK    1  A    between atoms: C_1  and  N_2
REMARK    2  A    between atoms: N_2  and  C_3
REMARK    3  A    between atoms: C_6  and  C_7
REMARK    4  A    between atoms: C_9  and  C_10
REMARK                            x       y       z     vdW  Elec       q    Type
REMARK                         _______ _______ _______ _____ _____    ______ ____
ROOT
ATOM      1  C   UNL     1       2.812   6.253  19.172  0.00  0.00    +0.000 A 
ATOM      2  C   UNL     1       2.185   5.237  19.914  0.00  0.00    +0.000 A 
ATOM      3  C   UNL     1       2.712   3.932  19.952  0.00  0.00    +0.000 A 
ATOM      4  C   UNL     1       3.893   3.653  19.244  0.00  0.00    +0.000 A 
ATOM      5  C   UNL     1       4.532   4.657  18.518  0.00  0.00    +0.000 A 
ATOM      6  C   UNL     1       3.993   5.940  18.487  0.00  0.00    +0.000 A 
ATOM      7  F   UNL     1       4.649   6.873  17.779  0.00  0.00    +0.000 F 
ENDROOT
BRANCH   1  13
ATOM      8  C   UNL     1       0.416   9.673  22.241  0.00  0.00    +0.000 C 
ATOM      9  N   UNL     1       0.473  10.140  20.866  0.00  0.00    +0.000 N 
ATOM     10  C   UNL     1      -0.534  11.096  20.432  0.00  0.00    +0.000 C 
ATOM     11  C   UNL     1       1.105   9.341  19.952  0.00  0.00    +0.000 A 
ATOM     12  N   UNL     1       1.627   8.163  20.236  0.00  0.00    +0.000 NA
ATOM     13  C   UNL     1       2.211   7.584  19.119  0.00  0.00    +0.000 A 
ATOM     14  C   UNL     1       2.124   8.339  17.970  0.00  0.00    +0.000 A 
ATOM     15  S   UNL     1       1.311   9.803  18.289  0.00  0.00    +0.000 S 
ENDBRANCH   1  13
BRANCH   3  16
ATOM     16  C   UNL     1       2.031   2.829  20.727  0.00  0.00    +0.000 C 
ATOM     17  F   UNL     1       1.765   1.718  19.986  0.00  0.00    +0.000 F 
ATOM     18  F   UNL     1       2.777   2.403  21.784  0.00  0.00    +0.000 F 
ATOM     19  F   UNL     1       0.837   3.225  21.251  0.00  0.00    +0.000 F 
ENDBRANCH   3  16
TORSDOF 2
ENDMDL
MODEL 8
REMARK VINA RESULT:      -6.8      4.821      8.222
REMARK  Name = 
REMARK  4 active torsions:
REMARK  status: ('A' for Active; 'I' for Inactive)
REMARK    1  A    between atoms: C_1  and  N_2
REMARK    2  A    between atoms: N_2  and  C_3
REMARK    3  A    between atoms: C_6  and  C_7
REMARK    4  A    between atoms: C_9  and  C_10
REMARK                            x       y       z     vdW  Elec       q    Type
REMARK                         _______ _______ _______ _____ _____    ______ ____
ROOT
ATOM      1  C   UNL     1       2.041   7.652  19.489  0.00  0.00    +0.000 A 
ATOM      2  C   UNL     1       1.468   7.934  20.741  0.00  0.00    +0.000 A 
ATOM      3  C   UNL     1       0.817   9.158  20.986  0.00  0.00    +0.000 A 
ATOM      4  C   UNL     1       0.731  10.103  19.950  0.00  0.00    +0.000 A 
ATOM      5  C   UNL     1       1.280   9.828  18.699  0.00  0.00    +0.000 A 
ATOM      6  C   UNL     1       1.926   8.614  18.477  0.00  0.00    +0.000 A 
ATOM      7  F   UNL     1       2.433   8.395  17.254  0.00  0.00    +0.000 F 
ENDROOT
BRANCH   1  13
ATOM      8  C   UNL     1       2.204   2.824  21.364  0.00  0.00    +0.000 C 
ATOM      9  N   UNL     1       3.216   3.033  20.342  0.00  0.00    +0.000 N 
ATOM     10  C   UNL     1       4.397   2.185  20.373  0.00  0.00    +0.000 C 
ATOM     11  C   UNL     1       3.266   4.262  19.742  0.00  0.00    +0.000 A 
ATOM     12  N   UNL     1       2.480   5.273  20.063  0.00  0.00    +0.000 NA
ATOM     13  C   UNL     1       2.748   6.390  19.285  0.00  0.00    +0.000 A 
ATOM     14  C   UNL     1       3.757   6.218  18.362  0.00  0.00    +0.000 A 
ATOM     15  S   UNL     1       4.376   4.633  18.457  0.00  0.00    +0.000 S 
ENDBRANCH   1  13
BRANCH   3  16
ATOM     16  C   UNL     1       0.221   9.477  22.337  0.00  0.00    +0.000 C 
ATOM     17  F   UNL     1      -0.868   8.722  22.650  0.00  0.00    +0.000 F 
ATOM     18  F   UNL     1       1.111   9.289  23.351  0.00  0.00    +0.000 F 
ATOM     19  F   UNL     1      -0.181  10.775  22.432  0.00  0.00    +0.000 F 
ENDBRANCH   3  16
TORSDOF 2
ENDMDL
MODEL 9
REMARK VINA RESULT:      -6.8      1.814      2.299
REMARK  Name = 
REMARK  4 active torsions:
REMARK  status: ('A' for Active; 'I' for Inactive)
REMARK    1  A    between atoms: C_1  and  N_2
REMARK    2  A    between atoms: N_2  and  C_3
REMARK    3  A    between atoms: C_6  and  C_7
REMARK    4  A    between atoms: C_9  and  C_10
REMARK                            x       y       z     vdW  Elec       q    Type
REMARK                         _______ _______ _______ _____ _____    ______ ____
ROOT
ATOM      1  C   UNL     1       5.637   4.506  14.948  0.00  0.00    +0.000 A 
ATOM      2  C   UNL     1       4.885   3.909  13.921  0.00  0.00    +0.000 A 
ATOM      3  C   UNL     1       5.416   3.748  12.628  0.00  0.00    +0.000 A 
ATOM      4  C   UNL     1       6.727   4.183  12.370  0.00  0.00    +0.000 A 
ATOM      5  C   UNL     1       7.488   4.761  13.384  0.00  0.00    +0.000 A 
ATOM      6  C   UNL     1       6.944   4.918  14.657  0.00  0.00    +0.000 A 
ATOM      7  F   UNL     1       7.719   5.475  15.600  0.00  0.00    +0.000 F 
ENDROOT
BRANCH   1  13
ATOM      8  C   UNL     1       3.571   1.759  18.826  0.00  0.00    +0.000 C 
ATOM      9  N   UNL     1       3.490   3.187  19.082  0.00  0.00    +0.000 N 
ATOM     10  C   UNL     1       2.447   3.656  19.981  0.00  0.00    +0.000 C 
ATOM     11  C   UNL     1       4.025   4.030  18.146  0.00  0.00    +0.000 A 
ATOM     12  N   UNL     1       4.570   3.626  17.015  0.00  0.00    +0.000 NA
ATOM     13  C   UNL     1       5.037   4.697  16.266  0.00  0.00    +0.000 A 
ATOM     14  C   UNL     1       4.836   5.931  16.844  0.00  0.00    +0.000 A 
ATOM     15  S   UNL     1       4.062   5.755  18.353  0.00  0.00    +0.000 S 
ENDBRANCH   1  13
BRANCH   3  16
ATOM     16  C   UNL     1       4.604   3.130  11.514  0.00  0.00    +0.000 C 
ATOM     17  F   UNL     1       3.326   2.823  11.869  0.00  0.00    +0.000 F 
ATOM     18  F   UNL     1       4.505   3.949  10.431  0.00  0.00    +0.000 F 
ATOM     19  F   UNL     1       5.154   1.971  11.054  0.00  0.00    +0.000 F 
ENDBRANCH   3  16
TORSDOF 2
ENDMDL
