MODEL 1
REMARK VINA RESULT:      -7.7      0.000      0.000
REMARK  Name = 
REMARK  3 active torsions:
REMARK  status: ('A' for Active; 'I' for Inactive)
REMARK    1  A    between atoms: C_1  and  C_2
REMARK    2  A    between atoms: C_2  and  C_4
REMARK    3  A    between atoms: C_16  and  O_17
REMARK                            x       y       z     vdW  Elec       q    Type
REMARK                         _______ _______ _______ _____ _____    ______ ____
ROOT
ATOM      1  C   UNL     1       5.430   5.218  16.191  0.00  0.00    +0.000 A 
ATOM      2  C   UNL     1       5.022   6.639  16.418  0.00  0.00    +0.000 A 
ATOM      3  N   UNL     1       4.156   7.076  17.277  0.00  0.00    +0.000 NA
ATOM      4  C   UNL     1       3.552   6.139  18.054  0.00  0.00    +0.000 A 
ATOM      5  N   UNL     1       2.632   6.337  18.973  0.00  0.00    +0.000 NA
ATOM      6  C   UNL     1       2.324   5.108  19.472  0.00  0.00    +0.000 A 
ATOM      7  C   UNL     1       1.389   4.784  20.470  0.00  0.00    +0.000 A 
ATOM      8  C   UNL     1       1.210   3.450  20.833  0.00  0.00    +0.000 A 
ATOM      9  C   UNL     1       1.958   2.449  20.215  0.00  0.00    +0.000 A 
ATOM     10  C   UNL     1       2.905   2.750  19.230  0.00  0.00    +0.000 A 
ATOM     11  C   UNL     1       3.069   4.099  18.856  0.00  0.00    +0.000 A 
ATOM     12  N   UNL     1       3.861   4.779  17.934  0.00  0.00    +0.000 N 
ATOM     13  C   UNL     1       4.813   4.325  16.995  0.00  0.00    +0.000 A 
ENDROOT
BRANCH   1  15
ATOM     14  C   UNL     1       6.027   4.070  13.928  0.00  0.00    +0.000 C 
ATOM     15  C   UNL     1       6.419   4.907  15.118  0.00  0.00    +0.000 C 
ATOM     16  O   UNL     1       7.565   5.353  15.210  0.00  0.00    +0.000 OA
ENDBRANCH   1  15
BRANCH  13  17
ATOM     17  O   UNL     1       5.113   2.976  16.886  0.00  0.00    +0.000 OA
ATOM     18  H   UNL     1       4.451   2.456  17.362  0.00  0.00    +0.000 HD
ENDBRANCH  13  17
TORSDOF 2
ENDMDL
MODEL 2
REMARK VINA RESULT:      -7.4      1.703      1.889
REMARK  Name = 
REMARK  3 active torsions:
REMARK  status: ('A' for Active; 'I' for Inactive)
REMARK    1  A    between atoms: C_1  and  C_2
REMARK    2  A    between atoms: C_2  and  C_4
REMARK    3  A    between atoms: C_16  and  O_17
REMARK                            x       y       z     vdW  Elec       q    Type
REMARK                         _______ _______ _______ _____ _____    ______ ____
ROOT
ATOM      1  C   UNL     1       5.708   6.053  17.746  0.00  0.00    +0.000 A 
ATOM      2  C   UNL     1       4.625   7.010  17.358  0.00  0.00    +0.000 A 
ATOM      3  N   UNL     1       3.384   6.977  17.726  0.00  0.00    +0.000 NA
ATOM      4  C   UNL     1       3.027   5.959  18.554  0.00  0.00    +0.000 A 
ATOM      5  N   UNL     1       1.831   5.707  19.039  0.00  0.00    +0.000 NA
ATOM      6  C   UNL     1       1.960   4.587  19.801  0.00  0.00    +0.000 A 
ATOM      7  C   UNL     1       0.964   3.908  20.526  0.00  0.00    +0.000 A 
ATOM      8  C   UNL     1       1.300   2.759  21.240  0.00  0.00    +0.000 A 
ATOM      9  C   UNL     1       2.613   2.292  21.238  0.00  0.00    +0.000 A 
ATOM     10  C   UNL     1       3.624   2.959  20.537  0.00  0.00    +0.000 A 
ATOM     11  C   UNL     1       3.274   4.112  19.804  0.00  0.00    +0.000 A 
ATOM     12  N   UNL     1       3.959   5.009  18.988  0.00  0.00    +0.000 N 
ATOM     13  C   UNL     1       5.309   5.068  18.579  0.00  0.00    +0.000 A 
ENDROOT
BRANCH   1  15
ATOM     14  C   UNL     1       7.845   7.509  17.417  0.00  0.00    +0.000 C 
ATOM     15  C   UNL     1       7.077   6.234  17.180  0.00  0.00    +0.000 C 
ATOM     16  O   UNL     1       7.580   5.321  16.522  0.00  0.00    +0.000 OA
ENDBRANCH   1  15
BRANCH  13  17
ATOM     17  O   UNL     1       6.223   4.122  19.016  0.00  0.00    +0.000 OA
ATOM     18  H   UNL     1       6.540   3.602  18.265  0.00  0.00    +0.000 HD
ENDBRANCH  13  17
TORSDOF 2
ENDMDL
MODEL 3
REMARK VINA RESULT:      -7.3      1.090      1.139
REMARK  Name = 
REMARK  3 active torsions:
REMARK  status: ('A' for Active; 'I' for Inactive)
REMARK    1  A    between atoms: C_1  and  C_2
REMARK    2  A    between atoms: C_2  and  C_4
REMARK    3  A    between atoms: C_16  and  O_17
REMARK                            x       y       z     vdW  Elec       q    Type
REMARK                         _______ _______ _______ _____ _____    ______ ____
ROOT
ATOM      1  C   UNL     1       5.638   5.719  17.144  0.00  0.00    +0.000 A 
ATOM      2  C   UNL     1       4.670   6.845  16.963  0.00  0.00    +0.000 A 
ATOM      3  N   UNL     1       3.526   6.994  17.552  0.00  0.00    +0.000 NA
ATOM      4  C   UNL     1       3.166   6.017  18.427  0.00  0.00    +0.000 A 
ATOM      5  N   UNL     1       2.052   5.939  19.121  0.00  0.00    +0.000 NA
ATOM      6  C   UNL     1       2.136   4.788  19.843  0.00  0.00    +0.000 A 
ATOM      7  C   UNL     1       1.192   4.250  20.735  0.00  0.00    +0.000 A 
ATOM      8  C   UNL     1       1.464   3.040  21.372  0.00  0.00    +0.000 A 
ATOM      9  C   UNL     1       2.664   2.375  21.129  0.00  0.00    +0.000 A 
ATOM     10  C   UNL     1       3.625   2.899  20.258  0.00  0.00    +0.000 A 
ATOM     11  C   UNL     1       3.337   4.115  19.605  0.00  0.00    +0.000 A 
ATOM     12  N   UNL     1       3.998   4.920  18.681  0.00  0.00    +0.000 N 
ATOM     13  C   UNL     1       5.244   4.782  18.032  0.00  0.00    +0.000 A 
ENDROOT
BRANCH   1  15
ATOM     14  C   UNL     1       7.085   4.704  15.227  0.00  0.00    +0.000 C 
ATOM     15  C   UNL     1       6.895   5.704  16.338  0.00  0.00    +0.000 C 
ATOM     16  O   UNL     1       7.777   6.529  16.586  0.00  0.00    +0.000 OA
ENDBRANCH   1  15
BRANCH  13  17
ATOM     17  O   UNL     1       6.060   3.691  18.292  0.00  0.00    +0.000 OA
ATOM     18  H   UNL     1       5.517   2.902  18.426  0.00  0.00    +0.000 HD
ENDBRANCH  13  17
TORSDOF 2
ENDMDL
MODEL 4
REMARK VINA RESULT:      -7.1      2.088      2.770
REMARK  Name = 
REMARK  3 active torsions:
REMARK  status: ('A' for Active; 'I' for Inactive)
REMARK    1  A    between atoms: C_1  and  C_2
REMARK    2  A    between atoms: C_2  and  C_4
REMARK    3  A    between atoms: C_16  and  O_17
REMARK                            x       y       z     vdW  Elec       q    Type
REMARK                         _______ _______ _______ _____ _____    ______ ____
ROOT
ATOM      1  C   UNL     1       6.026   5.430  17.832  0.00  0.00    +0.000 A 
ATOM      2  C   UNL     1       5.757   4.853  16.478  0.00  0.00    +0.000 A 
ATOM      3  N   UNL     1       4.735   4.141  16.121  0.00  0.00    +0.000 NA
ATOM      4  C   UNL     1       3.810   3.888  17.085  0.00  0.00    +0.000 A 
ATOM      5  N   UNL     1       2.711   3.176  16.968  0.00  0.00    +0.000 NA
ATOM      6  C   UNL     1       2.116   3.195  18.192  0.00  0.00    +0.000 A 
ATOM      7  C   UNL     1       0.918   2.572  18.587  0.00  0.00    +0.000 A 
ATOM      8  C   UNL     1       0.482   2.702  19.905  0.00  0.00    +0.000 A 
ATOM      9  C   UNL     1       1.224   3.448  20.818  0.00  0.00    +0.000 A 
ATOM     10  C   UNL     1       2.409   4.089  20.444  0.00  0.00    +0.000 A 
ATOM     11  C   UNL     1       2.854   3.941  19.115  0.00  0.00    +0.000 A 
ATOM     12  N   UNL     1       3.955   4.384  18.386  0.00  0.00    +0.000 N 
ATOM     13  C   UNL     1       5.074   5.165  18.751  0.00  0.00    +0.000 A 
ENDROOT
BRANCH   1  15
ATOM     14  C   UNL     1       7.557   7.476  17.316  0.00  0.00    +0.000 C 
ATOM     15  C   UNL     1       7.289   6.193  18.059  0.00  0.00    +0.000 C 
ATOM     16  O   UNL     1       8.110   5.766  18.874  0.00  0.00    +0.000 OA
ENDBRANCH   1  15
BRANCH  13  17
ATOM     17  O   UNL     1       5.206   5.651  20.042  0.00  0.00    +0.000 OA
ATOM     18  H   UNL     1       4.338   5.902  20.387  0.00  0.00    +0.000 HD
ENDBRANCH  13  17
TORSDOF 2
ENDMDL
MODEL 5
REMARK VINA RESULT:      -7.1      1.744      5.293
REMARK  Name = 
REMARK  3 active torsions:
REMARK  status: ('A' for Active; 'I' for Inactive)
REMARK    1  A    between atoms: C_1  and  C_2
REMARK    2  A    between atoms: C_2  and  C_4
REMARK    3  A    between atoms: C_16  and  O_17
REMARK                            x       y       z     vdW  Elec       q    Type
REMARK                         _______ _______ _______ _____ _____    ______ ____
ROOT
ATOM      1  C   UNL     1       3.068   3.734  20.139  0.00  0.00    +0.000 A 
ATOM      2  C   UNL     1       2.660   5.168  20.257  0.00  0.00    +0.000 A 
ATOM      3  N   UNL     1       2.932   6.129  19.432  0.00  0.00    +0.000 NA
ATOM      4  C   UNL     1       3.672   5.796  18.341  0.00  0.00    +0.000 A 
ATOM      5  N   UNL     1       4.089   6.596  17.385  0.00  0.00    +0.000 NA
ATOM      6  C   UNL     1       4.799   5.819  16.523  0.00  0.00    +0.000 A 
ATOM      7  C   UNL     1       5.458   6.207  15.342  0.00  0.00    +0.000 A 
ATOM      8  C   UNL     1       6.150   5.252  14.600  0.00  0.00    +0.000 A 
ATOM      9  C   UNL     1       6.181   3.924  15.021  0.00  0.00    +0.000 A 
ATOM     10  C   UNL     1       5.520   3.512  16.183  0.00  0.00    +0.000 A 
ATOM     11  C   UNL     1       4.836   4.486  16.939  0.00  0.00    +0.000 A 
ATOM     12  N   UNL     1       4.104   4.482  18.124  0.00  0.00    +0.000 N 
ATOM     13  C   UNL     1       3.789   3.449  19.033  0.00  0.00    +0.000 A 
ENDROOT
BRANCH   1  15
ATOM     14  C   UNL     1       1.264   2.674  21.693  0.00  0.00    +0.000 C 
ATOM     15  C   UNL     1       2.691   2.778  21.221  0.00  0.00    +0.000 C 
ATOM     16  O   UNL     1       3.562   2.063  21.721  0.00  0.00    +0.000 OA
ENDBRANCH   1  15
BRANCH  13  17
ATOM     17  O   UNL     1       4.221   2.151  18.807  0.00  0.00    +0.000 OA
ATOM     18  H   UNL     1       4.820   2.134  18.047  0.00  0.00    +0.000 HD
ENDBRANCH  13  17
TORSDOF 2
ENDMDL
MODEL 6
REMARK VINA RESULT:      -7.0      2.103      3.201
REMARK  Name = 
REMARK  3 active torsions:
REMARK  status: ('A' for Active; 'I' for Inactive)
REMARK    1  A    between atoms: C_1  and  C_2
REMARK    2  A    between atoms: C_2  and  C_4
REMARK    3  A    between atoms: C_16  and  O_17
REMARK                            x       y       z     vdW  Elec       q    Type
REMARK                         _______ _______ _______ _____ _____    ______ ____
ROOT
ATOM      1  C   UNL     1       5.766   5.051  16.161  0.00  0.00    +0.000 A 
ATOM      2  C   UNL     1       5.767   4.024  17.248  0.00  0.00    +0.000 A 
ATOM      3  N   UNL     1       5.079   4.047  18.346  0.00  0.00    +0.000 NA
ATOM      4  C   UNL     1       4.272   5.126  18.529  0.00  0.00    +0.000 A 
ATOM      5  N   UNL     1       3.503   5.380  19.564  0.00  0.00    +0.000 NA
ATOM      6  C   UNL     1       2.898   6.572  19.304  0.00  0.00    +0.000 A 
ATOM      7  C   UNL     1       1.988   7.280  20.109  0.00  0.00    +0.000 A 
ATOM      8  C   UNL     1       1.489   8.503  19.664  0.00  0.00    +0.000 A 
ATOM      9  C   UNL     1       1.885   9.014  18.429  0.00  0.00    +0.000 A 
ATOM     10  C   UNL     1       2.777   8.319  17.605  0.00  0.00    +0.000 A 
ATOM     11  C   UNL     1       3.290   7.091  18.068  0.00  0.00    +0.000 A 
ATOM     12  N   UNL     1       4.186   6.146  17.574  0.00  0.00    +0.000 N 
ATOM     13  C   UNL     1       4.940   6.096  16.380  0.00  0.00    +0.000 A 
ENDROOT
BRANCH   1  15
ATOM     14  C   UNL     1       6.313   3.889  13.892  0.00  0.00    +0.000 C 
ATOM     15  C   UNL     1       6.666   4.865  14.984  0.00  0.00    +0.000 C 
ATOM     16  O   UNL     1       7.701   5.531  14.909  0.00  0.00    +0.000 OA
ENDBRANCH   1  15
BRANCH  13  17
ATOM     17  O   UNL     1       4.846   7.111  15.441  0.00  0.00    +0.000 OA
ATOM     18  H   UNL     1       5.219   7.926  15.803  0.00  0.00    +0.000 HD
ENDBRANCH  13  17
TORSDOF 2
ENDMDL
MODEL 7
REMARK VINA RESULT:      -6.9      1.688      2.041
REMARK  Name = 
REMARK  3 active torsions:
REMARK  status: ('A' for Active; 'I' for Inactive)
REMARK    1  A    between atoms: C_1  and  C_2
REMARK    2  A    between atoms: C_2  and  C_4
REMARK    3  A    between atoms: C_16  and  O_17
REMARK                            x       y       z     vdW  Elec       q    Type
REMARK                         _______ _______ _______ _____ _____    ______ ____
ROOT
ATOM      1  C   UNL     1       6.468   4.572  16.031  0.00  0.00    +0.000 A 
ATOM      2  C   UNL     1       7.361   4.674  17.226  0.00  0.00    +0.000 A 
ATOM      3  N   UNL     1       7.016   4.570  18.471  0.00  0.00    +0.000 NA
ATOM      4  C   UNL     1       5.698   4.346  18.715  0.00  0.00    +0.000 A 
ATOM      5  N   UNL     1       5.112   4.227  19.886  0.00  0.00    +0.000 NA
ATOM      6  C   UNL     1       3.791   4.026  19.630  0.00  0.00    +0.000 A 
ATOM      7  C   UNL     1       2.743   3.849  20.551  0.00  0.00    +0.000 A 
ATOM      8  C   UNL     1       1.443   3.668  20.082  0.00  0.00    +0.000 A 
ATOM      9  C   UNL     1       1.187   3.656  18.712  0.00  0.00    +0.000 A 
ATOM     10  C   UNL     1       2.216   3.814  17.777  0.00  0.00    +0.000 A 
ATOM     11  C   UNL     1       3.526   4.013  18.258  0.00  0.00    +0.000 A 
ATOM     12  N   UNL     1       4.771   4.225  17.672  0.00  0.00    +0.000 N 
ATOM     13  C   UNL     1       5.170   4.336  16.322  0.00  0.00    +0.000 A 
ENDROOT
BRANCH   1  15
ATOM     14  C   UNL     1       6.569   3.937  13.504  0.00  0.00    +0.000 C 
ATOM     15  C   UNL     1       7.049   4.764  14.669  0.00  0.00    +0.000 C 
ATOM     16  O   UNL     1       7.923   5.618  14.504  0.00  0.00    +0.000 OA
ENDBRANCH   1  15
BRANCH  13  17
ATOM     17  O   UNL     1       4.244   4.213  15.298  0.00  0.00    +0.000 OA
ATOM     18  H   UNL     1       3.726   5.027  15.228  0.00  0.00    +0.000 HD
ENDBRANCH  13  17
TORSDOF 2
ENDMDL
MODEL 8
REMARK VINA RESULT:      -6.9      1.957      5.455
REMARK  Name = 
REMARK  3 active torsions:
REMARK  status: ('A' for Active; 'I' for Inactive)
REMARK    1  A    between atoms: C_1  and  C_2
REMARK    2  A    between atoms: C_2  and  C_4
REMARK    3  A    between atoms: C_16  and  O_17
REMARK                            x       y       z     vdW  Elec       q    Type
REMARK                         _______ _______ _______ _____ _____    ______ ____
ROOT
ATOM      1  C   UNL     1       2.477   3.790  19.134  0.00  0.00    +0.000 A 
ATOM      2  C   UNL     1       3.125   4.831  19.991  0.00  0.00    +0.000 A 
ATOM      3  N   UNL     1       4.166   5.545  19.701  0.00  0.00    +0.000 NA
ATOM      4  C   UNL     1       4.732   5.321  18.486  0.00  0.00    +0.000 A 
ATOM      5  N   UNL     1       5.799   5.902  17.983  0.00  0.00    +0.000 NA
ATOM      6  C   UNL     1       5.989   5.347  16.754  0.00  0.00    +0.000 A 
ATOM      7  C   UNL     1       7.004   5.625  15.822  0.00  0.00    +0.000 A 
ATOM      8  C   UNL     1       7.032   4.931  14.613  0.00  0.00    +0.000 A 
ATOM      9  C   UNL     1       6.057   3.976  14.331  0.00  0.00    +0.000 A 
ATOM     10  C   UNL     1       5.029   3.694  15.237  0.00  0.00    +0.000 A 
ATOM     11  C   UNL     1       5.016   4.388  16.464  0.00  0.00    +0.000 A 
ATOM     12  N   UNL     1       4.206   4.375  17.597  0.00  0.00    +0.000 N 
ATOM     13  C   UNL     1       3.065   3.613  17.931  0.00  0.00    +0.000 A 
ENDROOT
BRANCH   1  15
ATOM     14  C   UNL     1       1.121   2.839  21.147  0.00  0.00    +0.000 C 
ATOM     15  C   UNL     1       1.301   3.039  19.664  0.00  0.00    +0.000 C 
ATOM     16  O   UNL     1       0.469   2.590  18.873  0.00  0.00    +0.000 OA
ENDBRANCH   1  15
BRANCH  13  17
ATOM     17  O   UNL     1       2.553   2.680  17.043  0.00  0.00    +0.000 OA
ATOM     18  H   UNL     1       1.587   2.673  17.098  0.00  0.00    +0.000 HD
ENDBRANCH  13  17
TORSDOF 2
ENDMDL
MODEL 9
REMARK VINA RESULT:      -6.8      1.733      2.051
REMARK  Name = 
REMARK  3 active torsions:
REMARK  status: ('A' for Active; 'I' for Inactive)
REMARK    1  A    between atoms: C_1  and  C_2
REMARK    2  A    between atoms: C_2  and  C_4
REMARK    3  A    between atoms: C_16  and  O_17
REMARK                            x       y       z     vdW  Elec       q    Type
REMARK                         _______ _______ _______ _____ _____    ______ ____
ROOT
ATOM      1  C   UNL     1       5.804   6.402  17.355  0.00  0.00    +0.000 A 
ATOM      2  C   UNL     1       4.711   7.422  17.341  0.00  0.00    +0.000 A 
ATOM      3  N   UNL     1       3.458   7.230  17.610  0.00  0.00    +0.000 NA
ATOM      4  C   UNL     1       3.100   5.960  17.938  0.00  0.00    +0.000 A 
ATOM      5  N   UNL     1       1.896   5.520  18.227  0.00  0.00    +0.000 NA
ATOM      6  C   UNL     1       2.028   4.188  18.475  0.00  0.00    +0.000 A 
ATOM      7  C   UNL     1       1.026   3.263  18.819  0.00  0.00    +0.000 A 
ATOM      8  C   UNL     1       1.368   1.927  19.019  0.00  0.00    +0.000 A 
ATOM      9  C   UNL     1       2.693   1.515  18.886  0.00  0.00    +0.000 A 
ATOM     10  C   UNL     1       3.708   2.420  18.560  0.00  0.00    +0.000 A 
ATOM     11  C   UNL     1       3.353   3.767  18.343  0.00  0.00    +0.000 A 
ATOM     12  N   UNL     1       4.042   4.925  17.990  0.00  0.00    +0.000 N 
ATOM     13  C   UNL     1       5.404   5.159  17.699  0.00  0.00    +0.000 A 
ENDROOT
BRANCH   1  15
ATOM     14  C   UNL     1       7.879   7.947  17.682  0.00  0.00    +0.000 C 
ATOM     15  C   UNL     1       7.187   6.812  16.971  0.00  0.00    +0.000 C 
ATOM     16  O   UNL     1       7.766   6.203  16.068  0.00  0.00    +0.000 OA
ENDBRANCH   1  15
BRANCH  13  17
ATOM     17  O   UNL     1       6.327   4.127  17.755  0.00  0.00    +0.000 OA
ATOM     18  H   UNL     1       6.362   3.769  18.653  0.00  0.00    +0.000 HD
ENDBRANCH  13  17
TORSDOF 2
ENDMDL
