MODEL 1
REMARK VINA RESULT:      -8.6      0.000      0.000
REMARK  Name = 
REMARK  6 active torsions:
REMARK  status: ('A' for Active; 'I' for Inactive)
REMARK    1  A    between atoms: C_2  and  C_13
REMARK    2  A    between atoms: N_3  and  C_4
REMARK    3  A    between atoms: C_9  and  C_10
REMARK    4  A    between atoms: C_10  and  O_12
REMARK    5  A    between atoms: C_15  and  S_16
REMARK    6  A    between atoms: S_16  and  N_19
REMARK                            x       y       z     vdW  Elec       q    Type
REMARK                         _______ _______ _______ _____ _____    ______ ____
ROOT
ATOM      1  C   UNL     1       2.271   7.085  19.213  0.00  0.00    +0.000 A 
ATOM      2  C   UNL     1       1.949   8.379  18.777  0.00  0.00    +0.000 A 
ATOM      3  C   UNL     1       1.234   9.236  19.618  0.00  0.00    +0.000 A 
ATOM      4  C   UNL     1       0.754   8.787  20.849  0.00  0.00    +0.000 A 
ATOM      5  C   UNL     1       1.060   7.494  21.276  0.00  0.00    +0.000 A 
ATOM      6  C   UNL     1       1.835   6.646  20.472  0.00  0.00    +0.000 A 
ATOM      7 CL   UNL     1       2.268   5.114  21.142  0.00  0.00    +0.000 Cl
ENDROOT
BRANCH   1   9
ATOM      8  O   UNL     1       2.506   5.215  17.815  0.00  0.00    +0.000 OA
ATOM      9  C   UNL     1       3.032   6.213  18.285  0.00  0.00    +0.000 C 
ATOM     10  N   UNL     1       4.351   6.590  18.059  0.00  0.00    +0.000 N 
ATOM     11  H   UNL     1       4.797   7.217  18.725  0.00  0.00    +0.000 HD
BRANCH  10  12
ATOM     12  C   UNL     1       5.188   5.932  17.122  0.00  0.00    +0.000 A 
ATOM     13  C   UNL     1       5.088   6.242  15.760  0.00  0.00    +0.000 A 
ATOM     14  C   UNL     1       5.922   5.628  14.824  0.00  0.00    +0.000 A 
ATOM     15  C   UNL     1       6.862   4.689  15.237  0.00  0.00    +0.000 A 
ATOM     16  C   UNL     1       6.980   4.372  16.590  0.00  0.00    +0.000 A 
ATOM     17  C   UNL     1       6.148   4.991  17.536  0.00  0.00    +0.000 A 
BRANCH  17  18
ATOM     18  C   UNL     1       6.288   4.550  18.945  0.00  0.00    +0.000 C 
ATOM     19  O   UNL     1       6.911   5.172  19.787  0.00  0.00    +0.000 OA
BRANCH  18  20
ATOM     20  O   UNL     1       5.659   3.379  19.203  0.00  0.00    +0.000 OA
ATOM     21  H   UNL     1       5.539   2.829  18.399  0.00  0.00    +0.000 HD
ENDBRANCH  18  20
ENDBRANCH  17  18
ENDBRANCH  10  12
ENDBRANCH   1   9
BRANCH   3  22
ATOM     22  S   UNL     1       0.965  10.926  19.115  0.00  0.00    +0.000 S 
ATOM     23  O   UNL     1       1.113  11.755  20.289  0.00  0.00    +0.000 OA
ATOM     24  O   UNL     1       1.756  11.148  17.924  0.00  0.00    +0.000 OA
BRANCH  22  25
ATOM     25  N   UNL     1      -0.697  10.886  18.685  0.00  0.00    +0.000 NA
ATOM     26  C   UNL     1      -1.408  12.183  18.721  0.00  0.00    +0.000 C 
ATOM     27  C   UNL     1      -2.856  12.027  19.172  0.00  0.00    +0.000 C 
ATOM     28  C   UNL     1      -3.816  11.676  18.043  0.00  0.00    +0.000 C 
ATOM     29  C   UNL     1      -3.556  10.312  17.419  0.00  0.00    +0.000 C 
ATOM     30  C   UNL     1      -2.206  10.235  16.718  0.00  0.00    +0.000 C 
ATOM     31  C   UNL     1      -1.054   9.882  17.648  0.00  0.00    +0.000 C 
ENDBRANCH  22  25
ENDBRANCH   3  22
TORSDOF 6
ENDMDL
MODEL 2
REMARK VINA RESULT:      -8.2      0.279      1.163
REMARK  Name = 
REMARK  6 active torsions:
REMARK  status: ('A' for Active; 'I' for Inactive)
REMARK    1  A    between atoms: C_2  and  C_13
REMARK    2  A    between atoms: N_3  and  C_4
REMARK    3  A    between atoms: C_9  and  C_10
REMARK    4  A    between atoms: C_10  and  O_12
REMARK    5  A    between atoms: C_15  and  S_16
REMARK    6  A    between atoms: S_16  and  N_19
REMARK                            x       y       z     vdW  Elec       q    Type
REMARK                         _______ _______ _______ _____ _____    ______ ____
ROOT
ATOM      1  C   UNL     1       2.274   7.207  19.178  0.00  0.00    +0.000 A 
ATOM      2  C   UNL     1       2.042   8.512  18.719  0.00  0.00    +0.000 A 
ATOM      3  C   UNL     1       1.306   9.403  19.503  0.00  0.00    +0.000 A 
ATOM      4  C   UNL     1       0.716   8.981  20.695  0.00  0.00    +0.000 A 
ATOM      5  C   UNL     1       0.932   7.677  21.145  0.00  0.00    +0.000 A 
ATOM      6  C   UNL     1       1.726   6.793  20.401  0.00  0.00    +0.000 A 
ATOM      7 CL   UNL     1       2.041   5.246  21.103  0.00  0.00    +0.000 Cl
ENDROOT
BRANCH   1   9
ATOM      8  O   UNL     1       2.566   5.258  17.904  0.00  0.00    +0.000 OA
ATOM      9  C   UNL     1       3.063   6.298  18.311  0.00  0.00    +0.000 C 
ATOM     10  N   UNL     1       4.372   6.696  18.064  0.00  0.00    +0.000 N 
ATOM     11  H   UNL     1       4.798   7.377  18.690  0.00  0.00    +0.000 HD
BRANCH  10  12
ATOM     12  C   UNL     1       5.231   6.003  17.174  0.00  0.00    +0.000 A 
ATOM     13  C   UNL     1       5.112   6.202  15.793  0.00  0.00    +0.000 A 
ATOM     14  C   UNL     1       5.966   5.552  14.901  0.00  0.00    +0.000 A 
ATOM     15  C   UNL     1       6.946   4.687  15.377  0.00  0.00    +0.000 A 
ATOM     16  C   UNL     1       7.084   4.481  16.749  0.00  0.00    +0.000 A 
ATOM     17  C   UNL     1       6.232   5.136  17.652  0.00  0.00    +0.000 A 
BRANCH  17  18
ATOM     18  C   UNL     1       6.397   4.812  19.089  0.00  0.00    +0.000 C 
ATOM     19  O   UNL     1       7.256   5.305  19.797  0.00  0.00    +0.000 OA
BRANCH  18  20
ATOM     20  O   UNL     1       5.498   3.904  19.538  0.00  0.00    +0.000 OA
ATOM     21  H   UNL     1       4.584   4.098  19.241  0.00  0.00    +0.000 HD
ENDBRANCH  18  20
ENDBRANCH  17  18
ENDBRANCH  10  12
ENDBRANCH   1   9
BRANCH   3  22
ATOM     22  S   UNL     1       1.150  11.102  18.980  0.00  0.00    +0.000 S 
ATOM     23  O   UNL     1       1.224  11.927  20.163  0.00  0.00    +0.000 OA
ATOM     24  O   UNL     1       2.052  11.289  17.865  0.00  0.00    +0.000 OA
BRANCH  22  25
ATOM     25  N   UNL     1      -0.467  11.125  18.402  0.00  0.00    +0.000 NA
ATOM     26  C   UNL     1      -1.009   9.828  17.938  0.00  0.00    +0.000 C 
ATOM     27  C   UNL     1      -1.956   9.997  16.755  0.00  0.00    +0.000 C 
ATOM     28  C   UNL     1      -3.391  10.309  17.157  0.00  0.00    +0.000 C 
ATOM     29  C   UNL     1      -3.554  11.651  17.856  0.00  0.00    +0.000 C 
ATOM     30  C   UNL     1      -2.833  11.707  19.196  0.00  0.00    +0.000 C 
ATOM     31  C   UNL     1      -1.365  12.093  19.085  0.00  0.00    +0.000 C 
ENDBRANCH  22  25
ENDBRANCH   3  22
TORSDOF 6
ENDMDL
MODEL 3
REMARK VINA RESULT:      -7.6      1.393      1.980
REMARK  Name = 
REMARK  6 active torsions:
REMARK  status: ('A' for Active; 'I' for Inactive)
REMARK    1  A    between atoms: C_2  and  C_13
REMARK    2  A    between atoms: N_3  and  C_4
REMARK    3  A    between atoms: C_9  and  C_10
REMARK    4  A    between atoms: C_10  and  O_12
REMARK    5  A    between atoms: C_15  and  S_16
REMARK    6  A    between atoms: S_16  and  N_19
REMARK                            x       y       z     vdW  Elec       q    Type
REMARK                         _______ _______ _______ _____ _____    ______ ____
ROOT
ATOM      1  C   UNL     1       2.171   7.168  19.183  0.00  0.00    +0.000 A 
ATOM      2  C   UNL     1       1.762   8.421  18.704  0.00  0.00    +0.000 A 
ATOM      3  C   UNL     1       1.031   9.275  19.532  0.00  0.00    +0.000 A 
ATOM      4  C   UNL     1       0.620   8.857  20.799  0.00  0.00    +0.000 A 
ATOM      5  C   UNL     1       1.013   7.603  21.270  0.00  0.00    +0.000 A 
ATOM      6  C   UNL     1       1.805   6.764  20.475  0.00  0.00    +0.000 A 
ATOM      7 CL   UNL     1       2.347   5.290  21.195  0.00  0.00    +0.000 Cl
ENDROOT
BRANCH   1   9
ATOM      8  O   UNL     1       2.428   5.302  17.782  0.00  0.00    +0.000 OA
ATOM      9  C   UNL     1       2.948   6.297  18.266  0.00  0.00    +0.000 C 
ATOM     10  N   UNL     1       4.271   6.672  18.065  0.00  0.00    +0.000 N 
ATOM     11  H   UNL     1       4.706   7.296  18.742  0.00  0.00    +0.000 HD
BRANCH  10  12
ATOM     12  C   UNL     1       5.124   6.016  17.142  0.00  0.00    +0.000 A 
ATOM     13  C   UNL     1       5.034   6.314  15.776  0.00  0.00    +0.000 A 
ATOM     14  C   UNL     1       5.883   5.701  14.853  0.00  0.00    +0.000 A 
ATOM     15  C   UNL     1       6.829   4.774  15.282  0.00  0.00    +0.000 A 
ATOM     16  C   UNL     1       6.937   4.469  16.639  0.00  0.00    +0.000 A 
ATOM     17  C   UNL     1       6.090   5.087  17.572  0.00  0.00    +0.000 A 
BRANCH  17  18
ATOM     18  C   UNL     1       6.220   4.659  18.986  0.00  0.00    +0.000 C 
ATOM     19  O   UNL     1       6.803   5.308  19.835  0.00  0.00    +0.000 OA
BRANCH  18  20
ATOM     20  O   UNL     1       5.632   3.466  19.238  0.00  0.00    +0.000 OA
ATOM     21  H   UNL     1       5.552   2.906  18.437  0.00  0.00    +0.000 HD
ENDBRANCH  18  20
ENDBRANCH  17  18
ENDBRANCH  10  12
ENDBRANCH   1   9
BRANCH   3  22
ATOM     22  S   UNL     1       0.649  10.923  18.966  0.00  0.00    +0.000 S 
ATOM     23  O   UNL     1       1.846  11.719  19.115  0.00  0.00    +0.000 OA
ATOM     24  O   UNL     1      -0.022  10.792  17.691  0.00  0.00    +0.000 OA
BRANCH  22  25
ATOM     25  N   UNL     1      -0.489  11.427  20.149  0.00  0.00    +0.000 NA
ATOM     26  C   UNL     1       0.066  12.135  21.324  0.00  0.00    +0.000 C 
ATOM     27  C   UNL     1      -0.700  11.809  22.600  0.00  0.00    +0.000 C 
ATOM     28  C   UNL     1      -1.931  12.680  22.817  0.00  0.00    +0.000 C 
ATOM     29  C   UNL     1      -3.014  12.481  21.767  0.00  0.00    +0.000 C 
ATOM     30  C   UNL     1      -2.569  12.908  20.375  0.00  0.00    +0.000 C 
ATOM     31  C   UNL     1      -1.818  11.825  19.614  0.00  0.00    +0.000 C 
ENDBRANCH  22  25
ENDBRANCH   3  22
TORSDOF 6
ENDMDL
MODEL 4
REMARK VINA RESULT:      -7.5      1.191      1.597
REMARK  Name = 
REMARK  6 active torsions:
REMARK  status: ('A' for Active; 'I' for Inactive)
REMARK    1  A    between atoms: C_2  and  C_13
REMARK    2  A    between atoms: N_3  and  C_4
REMARK    3  A    between atoms: C_9  and  C_10
REMARK    4  A    between atoms: C_10  and  O_12
REMARK    5  A    between atoms: C_15  and  S_16
REMARK    6  A    between atoms: S_16  and  N_19
REMARK                            x       y       z     vdW  Elec       q    Type
REMARK                         _______ _______ _______ _____ _____    ______ ____
ROOT
ATOM      1  C   UNL     1       2.543   6.976  19.578  0.00  0.00    +0.000 A 
ATOM      2  C   UNL     1       2.261   8.282  19.155  0.00  0.00    +0.000 A 
ATOM      3  C   UNL     1       1.252   9.013  19.787  0.00  0.00    +0.000 A 
ATOM      4  C   UNL     1       0.456   8.423  20.770  0.00  0.00    +0.000 A 
ATOM      5  C   UNL     1       0.726   7.117  21.180  0.00  0.00    +0.000 A 
ATOM      6  C   UNL     1       1.780   6.396  20.603  0.00  0.00    +0.000 A 
ATOM      7 CL   UNL     1       2.117   4.837  21.266  0.00  0.00    +0.000 Cl
ENDROOT
BRANCH   1   9
ATOM      8  O   UNL     1       4.577   5.805  19.512  0.00  0.00    +0.000 OA
ATOM      9  C   UNL     1       3.626   6.241  18.878  0.00  0.00    +0.000 C 
ATOM     10  N   UNL     1       3.489   6.149  17.498  0.00  0.00    +0.000 N 
ATOM     11  H   UNL     1       2.867   6.803  17.028  0.00  0.00    +0.000 HD
BRANCH  10  12
ATOM     12  C   UNL     1       4.374   5.394  16.687  0.00  0.00    +0.000 A 
ATOM     13  C   UNL     1       5.316   6.050  15.885  0.00  0.00    +0.000 A 
ATOM     14  C   UNL     1       6.215   5.327  15.100  0.00  0.00    +0.000 A 
ATOM     15  C   UNL     1       6.180   3.936  15.101  0.00  0.00    +0.000 A 
ATOM     16  C   UNL     1       5.253   3.264  15.898  0.00  0.00    +0.000 A 
ATOM     17  C   UNL     1       4.350   3.987  16.694  0.00  0.00    +0.000 A 
BRANCH  17  18
ATOM     18  C   UNL     1       3.352   3.202  17.459  0.00  0.00    +0.000 C 
ATOM     19  O   UNL     1       3.645   2.417  18.343  0.00  0.00    +0.000 OA
BRANCH  18  20
ATOM     20  O   UNL     1       2.076   3.440  17.073  0.00  0.00    +0.000 OA
ATOM     21  H   UNL     1       1.712   4.265  17.458  0.00  0.00    +0.000 HD
ENDBRANCH  18  20
ENDBRANCH  17  18
ENDBRANCH  10  12
ENDBRANCH   1   9
BRANCH   3  22
ATOM     22  S   UNL     1       1.006  10.724  19.344  0.00  0.00    +0.000 S 
ATOM     23  O   UNL     1       1.082  11.500  20.560  0.00  0.00    +0.000 OA
ATOM     24  O   UNL     1       1.865  10.999  18.212  0.00  0.00    +0.000 OA
BRANCH  22  25
ATOM     25  N   UNL     1      -0.627  10.700  18.815  0.00  0.00    +0.000 NA
ATOM     26  C   UNL     1      -1.329  12.003  18.820  0.00  0.00    +0.000 C 
ATOM     27  C   UNL     1      -2.803  11.856  19.183  0.00  0.00    +0.000 C 
ATOM     28  C   UNL     1      -3.697  11.522  17.996  0.00  0.00    +0.000 C 
ATOM     29  C   UNL     1      -3.411  10.161  17.377  0.00  0.00    +0.000 C 
ATOM     30  C   UNL     1      -2.022  10.078  16.757  0.00  0.00    +0.000 C 
ATOM     31  C   UNL     1      -0.930   9.709  17.750  0.00  0.00    +0.000 C 
ENDBRANCH  22  25
ENDBRANCH   3  22
TORSDOF 6
ENDMDL
MODEL 5
REMARK VINA RESULT:      -7.5      2.212      2.997
REMARK  Name = 
REMARK  6 active torsions:
REMARK  status: ('A' for Active; 'I' for Inactive)
REMARK    1  A    between atoms: C_2  and  C_13
REMARK    2  A    between atoms: N_3  and  C_4
REMARK    3  A    between atoms: C_9  and  C_10
REMARK    4  A    between atoms: C_10  and  O_12
REMARK    5  A    between atoms: C_15  and  S_16
REMARK    6  A    between atoms: S_16  and  N_19
REMARK                            x       y       z     vdW  Elec       q    Type
REMARK                         _______ _______ _______ _____ _____    ______ ____
ROOT
ATOM      1  C   UNL     1       1.657   8.468  19.476  0.00  0.00    +0.000 A 
ATOM      2  C   UNL     1       1.331   9.830  19.406  0.00  0.00    +0.000 A 
ATOM      3  C   UNL     1       0.647  10.434  20.463  0.00  0.00    +0.000 A 
ATOM      4  C   UNL     1       0.199   9.676  21.546  0.00  0.00    +0.000 A 
ATOM      5  C   UNL     1       0.509   8.317  21.608  0.00  0.00    +0.000 A 
ATOM      6  C   UNL     1       1.255   7.712  20.587  0.00  0.00    +0.000 A 
ATOM      7 CL   UNL     1       1.698   6.058  20.817  0.00  0.00    +0.000 Cl
ENDROOT
BRANCH   1   9
ATOM      8  O   UNL     1       2.354   8.416  17.235  0.00  0.00    +0.000 OA
ATOM      9  C   UNL     1       2.387   7.872  18.330  0.00  0.00    +0.000 C 
ATOM     10  N   UNL     1       3.031   6.669  18.593  0.00  0.00    +0.000 N 
ATOM     11  H   UNL     1       2.741   6.132  19.407  0.00  0.00    +0.000 HD
BRANCH  10  12
ATOM     12  C   UNL     1       3.859   6.017  17.644  0.00  0.00    +0.000 A 
ATOM     13  C   UNL     1       4.921   6.712  17.051  0.00  0.00    +0.000 A 
ATOM     14  C   UNL     1       5.765   6.082  16.136  0.00  0.00    +0.000 A 
ATOM     15  C   UNL     1       5.555   4.749  15.796  0.00  0.00    +0.000 A 
ATOM     16  C   UNL     1       4.508   4.039  16.381  0.00  0.00    +0.000 A 
ATOM     17  C   UNL     1       3.658   4.666  17.306  0.00  0.00    +0.000 A 
BRANCH  17  18
ATOM     18  C   UNL     1       2.527   3.864  17.831  0.00  0.00    +0.000 C 
ATOM     19  O   UNL     1       2.666   2.898  18.559  0.00  0.00    +0.000 OA
BRANCH  18  20
ATOM     20  O   UNL     1       1.318   4.310  17.414  0.00  0.00    +0.000 OA
ATOM     21  H   UNL     1       1.239   5.286  17.459  0.00  0.00    +0.000 HD
ENDBRANCH  18  20
ENDBRANCH  17  18
ENDBRANCH  10  12
ENDBRANCH   1   9
BRANCH   3  22
ATOM     22  S   UNL     1       0.373  12.197  20.431  0.00  0.00    +0.000 S 
ATOM     23  O   UNL     1       1.308  12.796  21.356  0.00  0.00    +0.000 OA
ATOM     24  O   UNL     1       0.320  12.595  19.041  0.00  0.00    +0.000 OA
BRANCH  22  25
ATOM     25  N   UNL     1      -1.202  12.303  21.105  0.00  0.00    +0.000 NA
ATOM     26  C   UNL     1      -1.274  12.714  22.525  0.00  0.00    +0.000 C 
ATOM     27  C   UNL     1      -2.413  12.019  23.263  0.00  0.00    +0.000 C 
ATOM     28  C   UNL     1      -3.755  12.724  23.123  0.00  0.00    +0.000 C 
ATOM     29  C   UNL     1      -4.295  12.738  21.700  0.00  0.00    +0.000 C 
ATOM     30  C   UNL     1      -3.418  13.540  20.747  0.00  0.00    +0.000 C 
ATOM     31  C   UNL     1      -2.263  12.742  20.161  0.00  0.00    +0.000 C 
ENDBRANCH  22  25
ENDBRANCH   3  22
TORSDOF 6
ENDMDL
MODEL 6
REMARK VINA RESULT:      -7.4      2.882      8.054
REMARK  Name = 
REMARK  6 active torsions:
REMARK  status: ('A' for Active; 'I' for Inactive)
REMARK    1  A    between atoms: C_2  and  C_13
REMARK    2  A    between atoms: N_3  and  C_4
REMARK    3  A    between atoms: C_9  and  C_10
REMARK    4  A    between atoms: C_10  and  O_12
REMARK    5  A    between atoms: C_15  and  S_16
REMARK    6  A    between atoms: S_16  and  N_19
REMARK                            x       y       z     vdW  Elec       q    Type
REMARK                         _______ _______ _______ _____ _____    ______ ____
ROOT
ATOM      1  C   UNL     1       3.005   5.074  19.968  0.00  0.00    +0.000 A 
ATOM      2  C   UNL     1       4.194   5.575  19.420  0.00  0.00    +0.000 A 
ATOM      3  C   UNL     1       5.218   4.694  19.063  0.00  0.00    +0.000 A 
ATOM      4  C   UNL     1       5.109   3.329  19.333  0.00  0.00    +0.000 A 
ATOM      5  C   UNL     1       3.932   2.832  19.894  0.00  0.00    +0.000 A 
ATOM      6  C   UNL     1       2.869   3.696  20.195  0.00  0.00    +0.000 A 
ATOM      7 CL   UNL     1       1.409   2.970  20.764  0.00  0.00    +0.000 Cl
ENDROOT
BRANCH   1   9
ATOM      8  O   UNL     1       0.848   5.650  20.694  0.00  0.00    +0.000 OA
ATOM      9  C   UNL     1       1.946   6.048  20.330  0.00  0.00    +0.000 C 
ATOM     10  N   UNL     1       2.286   7.386  20.170  0.00  0.00    +0.000 N 
ATOM     11  H   UNL     1       3.071   7.618  19.566  0.00  0.00    +0.000 HD
BRANCH  10  12
ATOM     12  C   UNL     1       1.434   8.448  20.567  0.00  0.00    +0.000 A 
ATOM     13  C   UNL     1       0.949   8.500  21.880  0.00  0.00    +0.000 A 
ATOM     14  C   UNL     1       0.133   9.551  22.299  0.00  0.00    +0.000 A 
ATOM     15  C   UNL     1      -0.218  10.561  21.409  0.00  0.00    +0.000 A 
ATOM     16  C   UNL     1       0.260  10.530  20.099  0.00  0.00    +0.000 A 
ATOM     17  C   UNL     1       1.087   9.478  19.673  0.00  0.00    +0.000 A 
BRANCH  17  18
ATOM     18  C   UNL     1       1.496   9.480  18.248  0.00  0.00    +0.000 C 
ATOM     19  O   UNL     1       1.647   8.466  17.589  0.00  0.00    +0.000 OA
BRANCH  18  20
ATOM     20  O   UNL     1       1.695  10.723  17.751  0.00  0.00    +0.000 OA
ATOM     21  H   UNL     1       1.629  11.420  18.438  0.00  0.00    +0.000 HD
ENDBRANCH  18  20
ENDBRANCH  17  18
ENDBRANCH  10  12
ENDBRANCH   1   9
BRANCH   3  22
ATOM     22  S   UNL     1       6.662   5.328  18.227  0.00  0.00    +0.000 S 
ATOM     23  O   UNL     1       6.564   6.770  18.230  0.00  0.00    +0.000 OA
ATOM     24  O   UNL     1       7.810   4.644  18.780  0.00  0.00    +0.000 OA
BRANCH  22  25
ATOM     25  N   UNL     1       6.393   4.769  16.626  0.00  0.00    +0.000 NA
ATOM     26  C   UNL     1       5.029   4.972  16.088  0.00  0.00    +0.000 C 
ATOM     27  C   UNL     1       4.601   3.830  15.174  0.00  0.00    +0.000 C 
ATOM     28  C   UNL     1       5.058   3.995  13.730  0.00  0.00    +0.000 C 
ATOM     29  C   UNL     1       6.569   3.957  13.558  0.00  0.00    +0.000 C 
ATOM     30  C   UNL     1       7.269   5.122  14.244  0.00  0.00    +0.000 C 
ATOM     31  C   UNL     1       7.563   4.878  15.716  0.00  0.00    +0.000 C 
ENDBRANCH  22  25
ENDBRANCH   3  22
TORSDOF 6
ENDMDL
MODEL 7
REMARK VINA RESULT:      -7.4      1.111      1.763
REMARK  Name = 
REMARK  6 active torsions:
REMARK  status: ('A' for Active; 'I' for Inactive)
REMARK    1  A    between atoms: C_2  and  C_13
REMARK    2  A    between atoms: N_3  and  C_4
REMARK    3  A    between atoms: C_9  and  C_10
REMARK    4  A    between atoms: C_10  and  O_12
REMARK    5  A    between atoms: C_15  and  S_16
REMARK    6  A    between atoms: S_16  and  N_19
REMARK                            x       y       z     vdW  Elec       q    Type
REMARK                         _______ _______ _______ _____ _____    ______ ____
ROOT
ATOM      1  C   UNL     1       2.464   7.084  18.958  0.00  0.00    +0.000 A 
ATOM      2  C   UNL     1       2.228   8.374  18.463  0.00  0.00    +0.000 A 
ATOM      3  C   UNL     1       1.535   9.301  19.245  0.00  0.00    +0.000 A 
ATOM      4  C   UNL     1       0.990   8.928  20.475  0.00  0.00    +0.000 A 
ATOM      5  C   UNL     1       1.211   7.638  20.961  0.00  0.00    +0.000 A 
ATOM      6  C   UNL     1       1.963   6.719  20.217  0.00  0.00    +0.000 A 
ATOM      7 CL   UNL     1       2.290   5.194  20.959  0.00  0.00    +0.000 Cl
ENDROOT
BRANCH   1   9
ATOM      8  O   UNL     1       2.717   5.049  17.815  0.00  0.00    +0.000 OA
ATOM      9  C   UNL     1       3.206   6.135  18.091  0.00  0.00    +0.000 C 
ATOM     10  N   UNL     1       4.468   6.557  17.690  0.00  0.00    +0.000 N 
ATOM     11  H   UNL     1       4.922   7.299  18.218  0.00  0.00    +0.000 HD
BRANCH  10  12
ATOM     12  C   UNL     1       5.269   5.823  16.778  0.00  0.00    +0.000 A 
ATOM     13  C   UNL     1       4.666   4.936  15.878  0.00  0.00    +0.000 A 
ATOM     14  C   UNL     1       5.432   4.225  14.952  0.00  0.00    +0.000 A 
ATOM     15  C   UNL     1       6.813   4.387  14.919  0.00  0.00    +0.000 A 
ATOM     16  C   UNL     1       7.431   5.271  15.803  0.00  0.00    +0.000 A 
ATOM     17  C   UNL     1       6.665   5.993  16.732  0.00  0.00    +0.000 A 
BRANCH  17  18
ATOM     18  C   UNL     1       7.403   6.859  17.683  0.00  0.00    +0.000 C 
ATOM     19  O   UNL     1       7.988   6.438  18.664  0.00  0.00    +0.000 OA
BRANCH  18  20
ATOM     20  O   UNL     1       7.355   8.172  17.355  0.00  0.00    +0.000 OA
ATOM     21  H   UNL     1       7.964   8.401  16.621  0.00  0.00    +0.000 HD
ENDBRANCH  18  20
ENDBRANCH  17  18
ENDBRANCH  10  12
ENDBRANCH   1   9
BRANCH   3  22
ATOM     22  S   UNL     1       1.375  10.982  18.669  0.00  0.00    +0.000 S 
ATOM     23  O   UNL     1       1.629  11.851  19.796  0.00  0.00    +0.000 OA
ATOM     24  O   UNL     1       2.136  11.087  17.443  0.00  0.00    +0.000 OA
BRANCH  22  25
ATOM     25  N   UNL     1      -0.299  11.050  18.297  0.00  0.00    +0.000 NA
ATOM     26  C   UNL     1      -0.909   9.789  17.817  0.00  0.00    +0.000 C 
ATOM     27  C   UNL     1      -1.991  10.041  16.773  0.00  0.00    +0.000 C 
ATOM     28  C   UNL     1      -3.363  10.329  17.368  0.00  0.00    +0.000 C 
ATOM     29  C   UNL     1      -3.424  11.621  18.170  0.00  0.00    +0.000 C 
ATOM     30  C   UNL     1      -2.544  11.584  19.412  0.00  0.00    +0.000 C 
ATOM     31  C   UNL     1      -1.097  11.972  19.148  0.00  0.00    +0.000 C 
ENDBRANCH  22  25
ENDBRANCH   3  22
TORSDOF 6
ENDMDL
MODEL 8
REMARK VINA RESULT:      -7.4      0.991      1.057
REMARK  Name = 
REMARK  6 active torsions:
REMARK  status: ('A' for Active; 'I' for Inactive)
REMARK    1  A    between atoms: C_2  and  C_13
REMARK    2  A    between atoms: N_3  and  C_4
REMARK    3  A    between atoms: C_9  and  C_10
REMARK    4  A    between atoms: C_10  and  O_12
REMARK    5  A    between atoms: C_15  and  S_16
REMARK    6  A    between atoms: S_16  and  N_19
REMARK                            x       y       z     vdW  Elec       q    Type
REMARK                         _______ _______ _______ _____ _____    ______ ____
ROOT
ATOM      1  C   UNL     1       2.622   7.585  18.777  0.00  0.00    +0.000 A 
ATOM      2  C   UNL     1       2.111   8.882  18.628  0.00  0.00    +0.000 A 
ATOM      3  C   UNL     1       1.283   9.419  19.616  0.00  0.00    +0.000 A 
ATOM      4  C   UNL     1       0.880   8.644  20.705  0.00  0.00    +0.000 A 
ATOM      5  C   UNL     1       1.375   7.347  20.845  0.00  0.00    +0.000 A 
ATOM      6  C   UNL     1       2.262   6.819  19.896  0.00  0.00    +0.000 A 
ATOM      7 CL   UNL     1       2.919   5.256  20.225  0.00  0.00    +0.000 Cl
ENDROOT
BRANCH   1   9
ATOM      8  O   UNL     1       3.600   7.665  16.645  0.00  0.00    +0.000 OA
ATOM      9  C   UNL     1       3.499   7.059  17.702  0.00  0.00    +0.000 C 
ATOM     10  N   UNL     1       4.119   5.846  17.978  0.00  0.00    +0.000 N 
ATOM     11  H   UNL     1       3.734   5.262  18.717  0.00  0.00    +0.000 HD
BRANCH  10  12
ATOM     12  C   UNL     1       5.070   5.254  17.108  0.00  0.00    +0.000 A 
ATOM     13  C   UNL     1       4.647   4.671  15.906  0.00  0.00    +0.000 A 
ATOM     14  C   UNL     1       5.569   4.108  15.022  0.00  0.00    +0.000 A 
ATOM     15  C   UNL     1       6.925   4.112  15.331  0.00  0.00    +0.000 A 
ATOM     16  C   UNL     1       7.365   4.693  16.520  0.00  0.00    +0.000 A 
ATOM     17  C   UNL     1       6.444   5.266  17.411  0.00  0.00    +0.000 A 
BRANCH  17  18
ATOM     18  C   UNL     1       6.983   5.801  18.684  0.00  0.00    +0.000 C 
ATOM     19  O   UNL     1       7.852   6.653  18.743  0.00  0.00    +0.000 OA
BRANCH  18  20
ATOM     20  O   UNL     1       6.418   5.242  19.780  0.00  0.00    +0.000 OA
ATOM     21  H   UNL     1       6.322   5.877  20.522  0.00  0.00    +0.000 HD
ENDBRANCH  18  20
ENDBRANCH  17  18
ENDBRANCH  10  12
ENDBRANCH   1   9
BRANCH   3  22
ATOM     22  S   UNL     1       0.765  11.122  19.489  0.00  0.00    +0.000 S 
ATOM     23  O   UNL     1       0.696  11.653  20.831  0.00  0.00    +0.000 OA
ATOM     24  O   UNL     1       1.582  11.741  18.468  0.00  0.00    +0.000 OA
BRANCH  22  25
ATOM     25  N   UNL     1      -0.835  10.941  18.893  0.00  0.00    +0.000 NA
ATOM     26  C   UNL     1      -1.645  12.178  18.824  0.00  0.00    +0.000 C 
ATOM     27  C   UNL     1      -3.115  11.914  19.128  0.00  0.00    +0.000 C 
ATOM     28  C   UNL     1      -3.923  11.467  17.917  0.00  0.00    +0.000 C 
ATOM     29  C   UNL     1      -3.494  10.119  17.358  0.00  0.00    +0.000 C 
ATOM     30  C   UNL     1      -2.077  10.137  16.801  0.00  0.00    +0.000 C 
ATOM     31  C   UNL     1      -1.004   9.894  17.851  0.00  0.00    +0.000 C 
ENDBRANCH  22  25
ENDBRANCH   3  22
TORSDOF 6
ENDMDL
MODEL 9
REMARK VINA RESULT:      -7.4      3.232      8.028
REMARK  Name = 
REMARK  6 active torsions:
REMARK  status: ('A' for Active; 'I' for Inactive)
REMARK    1  A    between atoms: C_2  and  C_13
REMARK    2  A    between atoms: N_3  and  C_4
REMARK    3  A    between atoms: C_9  and  C_10
REMARK    4  A    between atoms: C_10  and  O_12
REMARK    5  A    between atoms: C_15  and  S_16
REMARK    6  A    between atoms: S_16  and  N_19
REMARK                            x       y       z     vdW  Elec       q    Type
REMARK                         _______ _______ _______ _____ _____    ______ ____
ROOT
ATOM      1  C   UNL     1       2.630   4.777  18.772  0.00  0.00    +0.000 A 
ATOM      2  C   UNL     1       3.715   5.132  17.957  0.00  0.00    +0.000 A 
ATOM      3  C   UNL     1       4.209   4.219  17.024  0.00  0.00    +0.000 A 
ATOM      4  C   UNL     1       3.698   2.922  16.958  0.00  0.00    +0.000 A 
ATOM      5  C   UNL     1       2.630   2.562  17.781  0.00  0.00    +0.000 A 
ATOM      6  C   UNL     1       2.078   3.491  18.674  0.00  0.00    +0.000 A 
ATOM      7 CL   UNL     1       0.678   2.993  19.554  0.00  0.00    +0.000 Cl
ENDROOT
BRANCH   1   9
ATOM      8  O   UNL     1       1.954   5.463  20.913  0.00  0.00    +0.000 OA
ATOM      9  C   UNL     1       2.139   5.782  19.746  0.00  0.00    +0.000 C 
ATOM     10  N   UNL     1       1.870   7.041  19.221  0.00  0.00    +0.000 N 
ATOM     11  H   UNL     1       1.733   7.128  18.216  0.00  0.00    +0.000 HD
BRANCH  10  12
ATOM     12  C   UNL     1       1.494   8.145  20.028  0.00  0.00    +0.000 A 
ATOM     13  C   UNL     1       1.450   8.008  21.421  0.00  0.00    +0.000 A 
ATOM     14  C   UNL     1       1.111   9.090  22.235  0.00  0.00    +0.000 A 
ATOM     15  C   UNL     1       0.803  10.323  21.666  0.00  0.00    +0.000 A 
ATOM     16  C   UNL     1       0.848  10.479  20.282  0.00  0.00    +0.000 A 
ATOM     17  C   UNL     1       1.194   9.397  19.458  0.00  0.00    +0.000 A 
BRANCH  17  18
ATOM     18  C   UNL     1       1.152   9.625  17.994  0.00  0.00    +0.000 C 
ATOM     19  O   UNL     1       2.083   9.382  17.247  0.00  0.00    +0.000 OA
BRANCH  18  20
ATOM     20  O   UNL     1      -0.025  10.140  17.567  0.00  0.00    +0.000 OA
ATOM     21  H   UNL     1       0.052  10.593  16.701  0.00  0.00    +0.000 HD
ENDBRANCH  18  20
ENDBRANCH  17  18
ENDBRANCH  10  12
ENDBRANCH   1   9
BRANCH   3  22
ATOM     22  S   UNL     1       5.487   4.735  15.890  0.00  0.00    +0.000 S 
ATOM     23  O   UNL     1       6.139   3.542  15.401  0.00  0.00    +0.000 OA
ATOM     24  O   UNL     1       4.893   5.700  14.990  0.00  0.00    +0.000 OA
BRANCH  22  25
ATOM     25  N   UNL     1       6.565   5.548  16.950  0.00  0.00    +0.000 NA
ATOM     26  C   UNL     1       6.401   7.015  17.044  0.00  0.00    +0.000 C 
ATOM     27  C   UNL     1       7.735   7.728  17.233  0.00  0.00    +0.000 C 
ATOM     28  C   UNL     1       8.186   7.813  18.685  0.00  0.00    +0.000 C 
ATOM     29  C   UNL     1       8.485   6.461  19.314  0.00  0.00    +0.000 C 
ATOM     30  C   UNL     1       7.250   5.576  19.420  0.00  0.00    +0.000 C 
ATOM     31  C   UNL     1       6.961   4.776  18.158  0.00  0.00    +0.000 C 
ENDBRANCH  22  25
ENDBRANCH   3  22
TORSDOF 6
ENDMDL
