MODEL 1
REMARK VINA RESULT:      -8.2      0.000      0.000
REMARK  Name = 
REMARK  5 active torsions:
REMARK  status: ('A' for Active; 'I' for Inactive)
REMARK    1  A    between atoms: C_2  and  C_3
REMARK    2  A    between atoms: C_3  and  N_4
REMARK    3  A    between atoms: N_10  and  C_11
REMARK    4  A    between atoms: C_13  and  C_14
REMARK    5  A    between atoms: C_20  and  N_21
REMARK                            x       y       z     vdW  Elec       q    Type
REMARK                         _______ _______ _______ _____ _____    ______ ____
ROOT
ATOM      1  C   UNL     1       5.614   4.285  15.708  0.00  0.00    +0.000 A 
ATOM      2  C   UNL     1       5.305   3.636  14.500  0.00  0.00    +0.000 A 
ATOM      3  C   UNL     1       6.059   3.844  13.338  0.00  0.00    +0.000 A 
ATOM      4  C   UNL     1       7.145   4.722  13.382  0.00  0.00    +0.000 A 
ATOM      5  C   UNL     1       7.487   5.351  14.579  0.00  0.00    +0.000 A 
ATOM      6  C   UNL     1       6.759   5.113  15.765  0.00  0.00    +0.000 A 
ENDROOT
BRANCH   6   7
ATOM      7  N   UNL     1       7.362   5.559  16.983  0.00  0.00    +0.000 N 
ATOM      8  C   UNL     1       7.688   4.766  18.074  0.00  0.00    +0.000 A 
ATOM      9  C   UNL     1       7.998   5.569  19.150  0.00  0.00    +0.000 A 
ATOM     10  C   UNL     1       7.899   6.902  18.711  0.00  0.00    +0.000 A 
ATOM     11  C   UNL     1       7.534   6.873  17.382  0.00  0.00    +0.000 A 
ENDBRANCH   6   7
BRANCH   1  14
ATOM     12  O   UNL     1       4.028   6.247  17.089  0.00  0.00    +0.000 OA
ATOM     13  C   UNL     1       4.009   5.063  17.417  0.00  0.00    +0.000 C 
ATOM     14  N   UNL     1       4.701   4.047  16.770  0.00  0.00    +0.000 N 
ATOM     15  H   UNL     1       4.183   3.177  16.741  0.00  0.00    +0.000 HD
BRANCH  13  16
ATOM     16  C   UNL     1       3.183   4.562  18.611  0.00  0.00    +0.000 C 
BRANCH  16  17
ATOM     17  N   UNL     1       3.009   3.087  18.654  0.00  0.00    +0.000 NA
ATOM     18  C   UNL     1       1.586   2.665  18.571  0.00  0.00    +0.000 C 
ATOM     19  C   UNL     1       0.741   3.025  19.807  0.00  0.00    +0.000 C 
ATOM     20  O   UNL     1       1.315   2.495  21.009  0.00  0.00    +0.000 OA
ATOM     21  C   UNL     1       2.668   2.932  21.173  0.00  0.00    +0.000 C 
ATOM     22  C   UNL     1       3.527   2.556  19.949  0.00  0.00    +0.000 C 
ENDBRANCH  16  17
ENDBRANCH  13  16
ENDBRANCH   1  14
BRANCH   3  23
ATOM     23  C   UNL     1       5.731   3.129  12.047  0.00  0.00    +0.000 C 
ATOM     24  F   UNL     1       5.612   1.780  12.193  0.00  0.00    +0.000 F 
ATOM     25  F   UNL     1       4.561   3.551  11.494  0.00  0.00    +0.000 F 
ATOM     26  F   UNL     1       6.686   3.318  11.095  0.00  0.00    +0.000 F 
ENDBRANCH   3  23
TORSDOF 5
ENDMDL
MODEL 2
REMARK VINA RESULT:      -8.1      0.704      1.108
REMARK  Name = 
REMARK  5 active torsions:
REMARK  status: ('A' for Active; 'I' for Inactive)
REMARK    1  A    between atoms: C_2  and  C_3
REMARK    2  A    between atoms: C_3  and  N_4
REMARK    3  A    between atoms: N_10  and  C_11
REMARK    4  A    between atoms: C_13  and  C_14
REMARK    5  A    between atoms: C_20  and  N_21
REMARK                            x       y       z     vdW  Elec       q    Type
REMARK                         _______ _______ _______ _____ _____    ______ ____
ROOT
ATOM      1  C   UNL     1       5.806   4.060  15.728  0.00  0.00    +0.000 A 
ATOM      2  C   UNL     1       5.535   3.418  14.506  0.00  0.00    +0.000 A 
ATOM      3  C   UNL     1       6.181   3.789  13.320  0.00  0.00    +0.000 A 
ATOM      4  C   UNL     1       7.118   4.826  13.353  0.00  0.00    +0.000 A 
ATOM      5  C   UNL     1       7.424   5.454  14.561  0.00  0.00    +0.000 A 
ATOM      6  C   UNL     1       6.809   5.056  15.769  0.00  0.00    +0.000 A 
ENDROOT
BRANCH   6   7
ATOM      7  N   UNL     1       7.402   5.543  16.975  0.00  0.00    +0.000 N 
ATOM      8  C   UNL     1       7.761   4.780  18.078  0.00  0.00    +0.000 A 
ATOM      9  C   UNL     1       8.048   5.611  19.139  0.00  0.00    +0.000 A 
ATOM     10  C   UNL     1       7.900   6.933  18.678  0.00  0.00    +0.000 A 
ATOM     11  C   UNL     1       7.530   6.868  17.352  0.00  0.00    +0.000 A 
ENDBRANCH   6   7
BRANCH   1  14
ATOM     12  O   UNL     1       3.926   5.661  17.203  0.00  0.00    +0.000 OA
ATOM     13  C   UNL     1       4.153   4.493  17.511  0.00  0.00    +0.000 C 
ATOM     14  N   UNL     1       5.002   3.638  16.820  0.00  0.00    +0.000 N 
ATOM     15  H   UNL     1       4.663   2.684  16.797  0.00  0.00    +0.000 HD
BRANCH  13  16
ATOM     16  C   UNL     1       3.490   3.829  18.728  0.00  0.00    +0.000 C 
BRANCH  16  17
ATOM     17  N   UNL     1       2.159   4.389  19.076  0.00  0.00    +0.000 NA
ATOM     18  C   UNL     1       2.080   4.874  20.479  0.00  0.00    +0.000 C 
ATOM     19  C   UNL     1       2.139   3.762  21.542  0.00  0.00    +0.000 C 
ATOM     20  O   UNL     1       1.118   2.777  21.331  0.00  0.00    +0.000 OA
ATOM     21  C   UNL     1       1.197   2.225  20.013  0.00  0.00    +0.000 C 
ATOM     22  C   UNL     1       1.117   3.330  18.940  0.00  0.00    +0.000 C 
ENDBRANCH  16  17
ENDBRANCH  13  16
ENDBRANCH   1  14
BRANCH   3  23
ATOM     23  C   UNL     1       5.898   3.084  12.014  0.00  0.00    +0.000 C 
ATOM     24  F   UNL     1       5.556   1.775  12.172  0.00  0.00    +0.000 F 
ATOM     25  F   UNL     1       4.879   3.656  11.317  0.00  0.00    +0.000 F 
ATOM     26  F   UNL     1       6.974   3.089  11.179  0.00  0.00    +0.000 F 
ENDBRANCH   3  23
TORSDOF 5
ENDMDL
MODEL 3
REMARK VINA RESULT:      -8.1      0.259      1.060
REMARK  Name = 
REMARK  5 active torsions:
REMARK  status: ('A' for Active; 'I' for Inactive)
REMARK    1  A    between atoms: C_2  and  C_3
REMARK    2  A    between atoms: C_3  and  N_4
REMARK    3  A    between atoms: N_10  and  C_11
REMARK    4  A    between atoms: C_13  and  C_14
REMARK    5  A    between atoms: C_20  and  N_21
REMARK                            x       y       z     vdW  Elec       q    Type
REMARK                         _______ _______ _______ _____ _____    ______ ____
ROOT
ATOM      1  C   UNL     1       5.490   4.367  15.758  0.00  0.00    +0.000 A 
ATOM      2  C   UNL     1       5.302   3.696  14.537  0.00  0.00    +0.000 A 
ATOM      3  C   UNL     1       6.153   3.905  13.444  0.00  0.00    +0.000 A 
ATOM      4  C   UNL     1       7.214   4.804  13.572  0.00  0.00    +0.000 A 
ATOM      5  C   UNL     1       7.436   5.456  14.786  0.00  0.00    +0.000 A 
ATOM      6  C   UNL     1       6.609   5.218  15.905  0.00  0.00    +0.000 A 
ENDROOT
BRANCH   6   7
ATOM      7  N   UNL     1       7.092   5.691  17.165  0.00  0.00    +0.000 N 
ATOM      8  C   UNL     1       7.429   7.002  17.475  0.00  0.00    +0.000 A 
ATOM      9  C   UNL     1       8.098   7.032  18.679  0.00  0.00    +0.000 A 
ATOM     10  C   UNL     1       8.152   5.709  19.155  0.00  0.00    +0.000 A 
ATOM     11  C   UNL     1       7.511   4.912  18.230  0.00  0.00    +0.000 A 
ENDBRANCH   6   7
BRANCH   1  14
ATOM     12  O   UNL     1       3.893   6.337  17.116  0.00  0.00    +0.000 OA
ATOM     13  C   UNL     1       3.798   5.142  17.382  0.00  0.00    +0.000 C 
ATOM     14  N   UNL     1       4.490   4.124  16.737  0.00  0.00    +0.000 N 
ATOM     15  H   UNL     1       3.937   3.282  16.628  0.00  0.00    +0.000 HD
BRANCH  13  16
ATOM     16  C   UNL     1       2.862   4.626  18.487  0.00  0.00    +0.000 C 
BRANCH  16  17
ATOM     17  N   UNL     1       2.955   3.164  18.728  0.00  0.00    +0.000 NA
ATOM     18  C   UNL     1       1.641   2.474  18.641  0.00  0.00    +0.000 C 
ATOM     19  C   UNL     1       0.660   2.825  19.775  0.00  0.00    +0.000 C 
ATOM     20  O   UNL     1       1.234   2.573  21.064  0.00  0.00    +0.000 OA
ATOM     21  C   UNL     1       2.471   3.275  21.226  0.00  0.00    +0.000 C 
ATOM     22  C   UNL     1       3.467   2.913  20.107  0.00  0.00    +0.000 C 
ENDBRANCH  16  17
ENDBRANCH  13  16
ENDBRANCH   1  14
BRANCH   3  23
ATOM     23  C   UNL     1       5.955   3.167  12.140  0.00  0.00    +0.000 C 
ATOM     24  F   UNL     1       7.047   3.208  11.326  0.00  0.00    +0.000 F 
ATOM     25  F   UNL     1       5.670   1.849  12.318  0.00  0.00    +0.000 F 
ATOM     26  F   UNL     1       4.927   3.678  11.407  0.00  0.00    +0.000 F 
ENDBRANCH   3  23
TORSDOF 5
ENDMDL
MODEL 4
REMARK VINA RESULT:      -7.9      0.749      1.587
REMARK  Name = 
REMARK  5 active torsions:
REMARK  status: ('A' for Active; 'I' for Inactive)
REMARK    1  A    between atoms: C_2  and  C_3
REMARK    2  A    between atoms: C_3  and  N_4
REMARK    3  A    between atoms: N_10  and  C_11
REMARK    4  A    between atoms: C_13  and  C_14
REMARK    5  A    between atoms: C_20  and  N_21
REMARK                            x       y       z     vdW  Elec       q    Type
REMARK                         _______ _______ _______ _____ _____    ______ ____
ROOT
ATOM      1  C   UNL     1       5.719   4.067  15.787  0.00  0.00    +0.000 A 
ATOM      2  C   UNL     1       5.575   3.421  14.546  0.00  0.00    +0.000 A 
ATOM      3  C   UNL     1       6.268   3.851  13.407  0.00  0.00    +0.000 A 
ATOM      4  C   UNL     1       7.124   4.951  13.509  0.00  0.00    +0.000 A 
ATOM      5  C   UNL     1       7.306   5.585  14.738  0.00  0.00    +0.000 A 
ATOM      6  C   UNL     1       6.643   5.131  15.900  0.00  0.00    +0.000 A 
ENDROOT
BRANCH   6   7
ATOM      7  N   UNL     1       7.120   5.644  17.147  0.00  0.00    +0.000 N 
ATOM      8  C   UNL     1       7.403   6.973  17.432  0.00  0.00    +0.000 A 
ATOM      9  C   UNL     1       8.085   7.051  18.626  0.00  0.00    +0.000 A 
ATOM     10  C   UNL     1       8.202   5.740  19.122  0.00  0.00    +0.000 A 
ATOM     11  C   UNL     1       7.585   4.901  18.217  0.00  0.00    +0.000 A 
ENDBRANCH   6   7
BRANCH   1  14
ATOM     12  O   UNL     1       3.740   5.556  17.250  0.00  0.00    +0.000 OA
ATOM     13  C   UNL     1       3.980   4.380  17.513  0.00  0.00    +0.000 C 
ATOM     14  N   UNL     1       4.878   3.576  16.821  0.00  0.00    +0.000 N 
ATOM     15  H   UNL     1       4.563   2.617  16.738  0.00  0.00    +0.000 HD
BRANCH  13  16
ATOM     16  C   UNL     1       3.280   3.644  18.666  0.00  0.00    +0.000 C 
BRANCH  16  17
ATOM     17  N   UNL     1       2.024   4.289  19.125  0.00  0.00    +0.000 NA
ATOM     18  C   UNL     1       2.123   4.846  20.500  0.00  0.00    +0.000 C 
ATOM     19  C   UNL     1       2.247   3.787  21.609  0.00  0.00    +0.000 C 
ATOM     20  O   UNL     1       1.164   2.848  21.564  0.00  0.00    +0.000 OA
ATOM     21  C   UNL     1       1.071   2.228  20.277  0.00  0.00    +0.000 C 
ATOM     22  C   UNL     1       0.924   3.281  19.161  0.00  0.00    +0.000 C 
ENDBRANCH  16  17
ENDBRANCH  13  16
ENDBRANCH   1  14
BRANCH   3  23
ATOM     23  C   UNL     1       6.121   3.142  12.081  0.00  0.00    +0.000 C 
ATOM     24  F   UNL     1       5.143   3.669  11.293  0.00  0.00    +0.000 F 
ATOM     25  F   UNL     1       7.260   3.174  11.337  0.00  0.00    +0.000 F 
ATOM     26  F   UNL     1       5.808   1.825  12.231  0.00  0.00    +0.000 F 
ENDBRANCH   3  23
TORSDOF 5
ENDMDL
MODEL 5
REMARK VINA RESULT:      -7.8      0.762      1.069
REMARK  Name = 
REMARK  5 active torsions:
REMARK  status: ('A' for Active; 'I' for Inactive)
REMARK    1  A    between atoms: C_2  and  C_3
REMARK    2  A    between atoms: C_3  and  N_4
REMARK    3  A    between atoms: N_10  and  C_11
REMARK    4  A    between atoms: C_13  and  C_14
REMARK    5  A    between atoms: C_20  and  N_21
REMARK                            x       y       z     vdW  Elec       q    Type
REMARK                         _______ _______ _______ _____ _____    ______ ____
ROOT
ATOM      1  C   UNL     1       5.892   3.959  15.720  0.00  0.00    +0.000 A 
ATOM      2  C   UNL     1       5.641   3.321  14.492  0.00  0.00    +0.000 A 
ATOM      3  C   UNL     1       6.230   3.760  13.299  0.00  0.00    +0.000 A 
ATOM      4  C   UNL     1       7.088   4.863  13.332  0.00  0.00    +0.000 A 
ATOM      5  C   UNL     1       7.374   5.490  14.545  0.00  0.00    +0.000 A 
ATOM      6  C   UNL     1       6.818   5.026  15.758  0.00  0.00    +0.000 A 
ENDROOT
BRANCH   6   7
ATOM      7  N   UNL     1       7.401   5.534  16.961  0.00  0.00    +0.000 N 
ATOM      8  C   UNL     1       7.758   4.790  18.077  0.00  0.00    +0.000 A 
ATOM      9  C   UNL     1       8.034   5.639  19.126  0.00  0.00    +0.000 A 
ATOM     10  C   UNL     1       7.881   6.953  18.646  0.00  0.00    +0.000 A 
ATOM     11  C   UNL     1       7.519   6.866  17.318  0.00  0.00    +0.000 A 
ENDBRANCH   6   7
BRANCH   1  14
ATOM     12  O   UNL     1       3.860   5.355  17.201  0.00  0.00    +0.000 OA
ATOM     13  C   UNL     1       4.215   4.221  17.514  0.00  0.00    +0.000 C 
ATOM     14  N   UNL     1       5.147   3.459  16.820  0.00  0.00    +0.000 N 
ATOM     15  H   UNL     1       4.914   2.473  16.805  0.00  0.00    +0.000 HD
BRANCH  13  16
ATOM     16  C   UNL     1       3.637   3.496  18.740  0.00  0.00    +0.000 C 
BRANCH  16  17
ATOM     17  N   UNL     1       2.191   3.176  18.631  0.00  0.00    +0.000 NA
ATOM     18  C   UNL     1       1.313   4.291  19.072  0.00  0.00    +0.000 C 
ATOM     19  C   UNL     1       1.363   4.583  20.582  0.00  0.00    +0.000 C 
ATOM     20  O   UNL     1       1.056   3.415  21.355  0.00  0.00    +0.000 OA
ATOM     21  C   UNL     1       1.926   2.329  21.018  0.00  0.00    +0.000 C 
ATOM     22  C   UNL     1       1.865   2.015  19.509  0.00  0.00    +0.000 C 
ENDBRANCH  16  17
ENDBRANCH  13  16
ENDBRANCH   1  14
BRANCH   3  23
ATOM     23  C   UNL     1       5.970   3.058  11.987  0.00  0.00    +0.000 C 
ATOM     24  F   UNL     1       7.065   3.001  11.179  0.00  0.00    +0.000 F 
ATOM     25  F   UNL     1       5.556   1.772  12.150  0.00  0.00    +0.000 F 
ATOM     26  F   UNL     1       5.000   3.674  11.255  0.00  0.00    +0.000 F 
ENDBRANCH   3  23
TORSDOF 5
ENDMDL
MODEL 6
REMARK VINA RESULT:      -7.8      1.093      1.615
REMARK  Name = 
REMARK  5 active torsions:
REMARK  status: ('A' for Active; 'I' for Inactive)
REMARK    1  A    between atoms: C_2  and  C_3
REMARK    2  A    between atoms: C_3  and  N_4
REMARK    3  A    between atoms: N_10  and  C_11
REMARK    4  A    between atoms: C_13  and  C_14
REMARK    5  A    between atoms: C_20  and  N_21
REMARK                            x       y       z     vdW  Elec       q    Type
REMARK                         _______ _______ _______ _____ _____    ______ ____
ROOT
ATOM      1  C   UNL     1       5.283   4.713  15.634  0.00  0.00    +0.000 A 
ATOM      2  C   UNL     1       5.066   4.025  14.426  0.00  0.00    +0.000 A 
ATOM      3  C   UNL     1       6.042   3.975  13.422  0.00  0.00    +0.000 A 
ATOM      4  C   UNL     1       7.260   4.627  13.627  0.00  0.00    +0.000 A 
ATOM      5  C   UNL     1       7.506   5.288  14.831  0.00  0.00    +0.000 A 
ATOM      6  C   UNL     1       6.545   5.306  15.865  0.00  0.00    +0.000 A 
ENDROOT
BRANCH   6   7
ATOM      7  N   UNL     1       7.000   5.739  17.150  0.00  0.00    +0.000 N 
ATOM      8  C   UNL     1       7.452   7.010  17.474  0.00  0.00    +0.000 A 
ATOM      9  C   UNL     1       8.049   6.983  18.715  0.00  0.00    +0.000 A 
ATOM     10  C   UNL     1       7.937   5.666  19.198  0.00  0.00    +0.000 A 
ATOM     11  C   UNL     1       7.273   4.930  18.239  0.00  0.00    +0.000 A 
ENDBRANCH   6   7
BRANCH   1  14
ATOM     12  O   UNL     1       4.289   2.560  17.262  0.00  0.00    +0.000 OA
ATOM     13  C   UNL     1       3.721   3.649  17.225  0.00  0.00    +0.000 C 
ATOM     14  N   UNL     1       4.166   4.755  16.510  0.00  0.00    +0.000 N 
ATOM     15  H   UNL     1       3.995   5.628  16.993  0.00  0.00    +0.000 HD
BRANCH  13  16
ATOM     16  C   UNL     1       2.423   3.918  18.001  0.00  0.00    +0.000 C 
BRANCH  16  17
ATOM     17  N   UNL     1       2.621   4.632  19.288  0.00  0.00    +0.000 NA
ATOM     18  C   UNL     1       3.711   4.051  20.116  0.00  0.00    +0.000 C 
ATOM     19  C   UNL     1       3.406   2.653  20.682  0.00  0.00    +0.000 C 
ATOM     20  O   UNL     1       2.190   2.646  21.442  0.00  0.00    +0.000 OA
ATOM     21  C   UNL     1       1.091   3.131  20.664  0.00  0.00    +0.000 C 
ATOM     22  C   UNL     1       1.379   4.541  20.111  0.00  0.00    +0.000 C 
ENDBRANCH  16  17
ENDBRANCH  13  16
ENDBRANCH   1  14
BRANCH   3  23
ATOM     23  C   UNL     1       5.808   3.220  12.134  0.00  0.00    +0.000 C 
ATOM     24  F   UNL     1       5.684   1.875  12.312  0.00  0.00    +0.000 F 
ATOM     25  F   UNL     1       4.680   3.618  11.487  0.00  0.00    +0.000 F 
ATOM     26  F   UNL     1       6.828   3.384  11.246  0.00  0.00    +0.000 F 
ENDBRANCH   3  23
TORSDOF 5
ENDMDL
MODEL 7
REMARK VINA RESULT:      -7.6      0.758      1.307
REMARK  Name = 
REMARK  5 active torsions:
REMARK  status: ('A' for Active; 'I' for Inactive)
REMARK    1  A    between atoms: C_2  and  C_3
REMARK    2  A    between atoms: C_3  and  N_4
REMARK    3  A    between atoms: N_10  and  C_11
REMARK    4  A    between atoms: C_13  and  C_14
REMARK    5  A    between atoms: C_20  and  N_21
REMARK                            x       y       z     vdW  Elec       q    Type
REMARK                         _______ _______ _______ _____ _____    ______ ____
ROOT
ATOM      1  C   UNL     1       5.480   4.516  15.646  0.00  0.00    +0.000 A 
ATOM      2  C   UNL     1       5.169   3.876  14.433  0.00  0.00    +0.000 A 
ATOM      3  C   UNL     1       6.032   3.929  13.331  0.00  0.00    +0.000 A 
ATOM      4  C   UNL     1       7.231   4.637  13.441  0.00  0.00    +0.000 A 
ATOM      5  C   UNL     1       7.572   5.252  14.646  0.00  0.00    +0.000 A 
ATOM      6  C   UNL     1       6.728   5.167  15.775  0.00  0.00    +0.000 A 
ENDROOT
BRANCH   6   7
ATOM      7  N   UNL     1       7.296   5.563  17.026  0.00  0.00    +0.000 N 
ATOM      8  C   UNL     1       7.470   4.753  18.140  0.00  0.00    +0.000 A 
ATOM      9  C   UNL     1       7.794   5.533  19.229  0.00  0.00    +0.000 A 
ATOM     10  C   UNL     1       7.861   6.864  18.778  0.00  0.00    +0.000 A 
ATOM     11  C   UNL     1       7.579   6.856  17.428  0.00  0.00    +0.000 A 
ENDBRANCH   6   7
BRANCH   1  14
ATOM     12  O   UNL     1       4.203   6.741  16.947  0.00  0.00    +0.000 OA
ATOM     13  C   UNL     1       3.934   5.582  17.251  0.00  0.00    +0.000 C 
ATOM     14  N   UNL     1       4.463   4.454  16.636  0.00  0.00    +0.000 N 
ATOM     15  H   UNL     1       3.791   3.700  16.556  0.00  0.00    +0.000 HD
BRANCH  13  16
ATOM     16  C   UNL     1       2.941   5.244  18.375  0.00  0.00    +0.000 C 
BRANCH  16  17
ATOM     17  N   UNL     1       3.582   4.795  19.637  0.00  0.00    +0.000 NA
ATOM     18  C   UNL     1       4.058   3.388  19.581  0.00  0.00    +0.000 C 
ATOM     19  C   UNL     1       2.934   2.337  19.515  0.00  0.00    +0.000 C 
ATOM     20  O   UNL     1       2.020   2.476  20.611  0.00  0.00    +0.000 OA
ATOM     21  C   UNL     1       1.476   3.799  20.666  0.00  0.00    +0.000 C 
ATOM     22  C   UNL     1       2.594   4.857  20.754  0.00  0.00    +0.000 C 
ENDBRANCH  16  17
ENDBRANCH  13  16
ENDBRANCH   1  14
BRANCH   3  23
ATOM     23  C   UNL     1       5.699   3.224  12.036  0.00  0.00    +0.000 C 
ATOM     24  F   UNL     1       4.497   3.594  11.514  0.00  0.00    +0.000 F 
ATOM     25  F   UNL     1       6.618   3.455  11.060  0.00  0.00    +0.000 F 
ATOM     26  F   UNL     1       5.640   1.872  12.184  0.00  0.00    +0.000 F 
ENDBRANCH   3  23
TORSDOF 5
ENDMDL
MODEL 8
REMARK VINA RESULT:      -7.5      0.837      1.310
REMARK  Name = 
REMARK  5 active torsions:
REMARK  status: ('A' for Active; 'I' for Inactive)
REMARK    1  A    between atoms: C_2  and  C_3
REMARK    2  A    between atoms: C_3  and  N_4
REMARK    3  A    between atoms: N_10  and  C_11
REMARK    4  A    between atoms: C_13  and  C_14
REMARK    5  A    between atoms: C_20  and  N_21
REMARK                            x       y       z     vdW  Elec       q    Type
REMARK                         _______ _______ _______ _____ _____    ______ ____
ROOT
ATOM      1  C   UNL     1       5.543   4.457  15.894  0.00  0.00    +0.000 A 
ATOM      2  C   UNL     1       5.152   3.807  14.709  0.00  0.00    +0.000 A 
ATOM      3  C   UNL     1       5.852   3.980  13.509  0.00  0.00    +0.000 A 
ATOM      4  C   UNL     1       6.967   4.822  13.489  0.00  0.00    +0.000 A 
ATOM      5  C   UNL     1       7.390   5.451  14.661  0.00  0.00    +0.000 A 
ATOM      6  C   UNL     1       6.716   5.247  15.885  0.00  0.00    +0.000 A 
ENDROOT
BRANCH   6   7
ATOM      7  N   UNL     1       7.394   5.683  17.066  0.00  0.00    +0.000 N 
ATOM      8  C   UNL     1       7.733   4.892  18.155  0.00  0.00    +0.000 A 
ATOM      9  C   UNL     1       8.129   5.697  19.201  0.00  0.00    +0.000 A 
ATOM     10  C   UNL     1       8.071   7.027  18.744  0.00  0.00    +0.000 A 
ATOM     11  C   UNL     1       7.644   6.993  17.433  0.00  0.00    +0.000 A 
ENDBRANCH   6   7
BRANCH   1  14
ATOM     12  O   UNL     1       4.032   6.471  17.283  0.00  0.00    +0.000 OA
ATOM     13  C   UNL     1       4.022   5.298  17.649  0.00  0.00    +0.000 C 
ATOM     14  N   UNL     1       4.678   4.258  17.003  0.00  0.00    +0.000 N 
ATOM     15  H   UNL     1       4.155   3.390  17.025  0.00  0.00    +0.000 HD
BRANCH  13  16
ATOM     16  C   UNL     1       3.247   4.840  18.894  0.00  0.00    +0.000 C 
BRANCH  16  17
ATOM     17  N   UNL     1       1.805   4.584  18.652  0.00  0.00    +0.000 NA
ATOM     18  C   UNL     1       1.071   4.177  19.880  0.00  0.00    +0.000 C 
ATOM     19  C   UNL     1       1.456   2.789  20.422  0.00  0.00    +0.000 C 
ATOM     20  O   UNL     1       1.294   1.771  19.425  0.00  0.00    +0.000 OA
ATOM     21  C   UNL     1       2.042   2.081  18.244  0.00  0.00    +0.000 C 
ATOM     22  C   UNL     1       1.647   3.462  17.682  0.00  0.00    +0.000 C 
ENDBRANCH  16  17
ENDBRANCH  13  16
ENDBRANCH   1  14
BRANCH   3  23
ATOM     23  C   UNL     1       5.436   3.266  12.244  0.00  0.00    +0.000 C 
ATOM     24  F   UNL     1       4.089   3.258  12.047  0.00  0.00    +0.000 F 
ATOM     25  F   UNL     1       5.975   3.820  11.125  0.00  0.00    +0.000 F 
ATOM     26  F   UNL     1       5.820   1.959  12.238  0.00  0.00    +0.000 F 
ENDBRANCH   3  23
TORSDOF 5
ENDMDL
MODEL 9
REMARK VINA RESULT:      -7.5      1.028      1.683
REMARK  Name = 
REMARK  5 active torsions:
REMARK  status: ('A' for Active; 'I' for Inactive)
REMARK    1  A    between atoms: C_2  and  C_3
REMARK    2  A    between atoms: C_3  and  N_4
REMARK    3  A    between atoms: N_10  and  C_11
REMARK    4  A    between atoms: C_13  and  C_14
REMARK    5  A    between atoms: C_20  and  N_21
REMARK                            x       y       z     vdW  Elec       q    Type
REMARK                         _______ _______ _______ _____ _____    ______ ____
ROOT
ATOM      1  C   UNL     1       5.814   3.833  15.880  0.00  0.00    +0.000 A 
ATOM      2  C   UNL     1       5.675   3.231  14.616  0.00  0.00    +0.000 A 
ATOM      3  C   UNL     1       6.196   3.822  13.458  0.00  0.00    +0.000 A 
ATOM      4  C   UNL     1       6.871   5.041  13.563  0.00  0.00    +0.000 A 
ATOM      5  C   UNL     1       7.048   5.638  14.812  0.00  0.00    +0.000 A 
ATOM      6  C   UNL     1       6.563   5.027  15.989  0.00  0.00    +0.000 A 
ENDROOT
BRANCH   6   7
ATOM      7  N   UNL     1       7.051   5.553  17.226  0.00  0.00    +0.000 N 
ATOM      8  C   UNL     1       7.361   6.880  17.488  0.00  0.00    +0.000 A 
ATOM      9  C   UNL     1       8.046   6.966  18.680  0.00  0.00    +0.000 A 
ATOM     10  C   UNL     1       8.136   5.661  19.199  0.00  0.00    +0.000 A 
ATOM     11  C   UNL     1       7.502   4.820  18.309  0.00  0.00    +0.000 A 
ENDBRANCH   6   7
BRANCH   1  14
ATOM     12  O   UNL     1       3.039   4.071  16.596  0.00  0.00    +0.000 OA
ATOM     13  C   UNL     1       3.811   3.375  17.251  0.00  0.00    +0.000 C 
ATOM     14  N   UNL     1       5.149   3.163  16.941  0.00  0.00    +0.000 N 
ATOM     15  H   UNL     1       5.456   2.221  17.151  0.00  0.00    +0.000 HD
BRANCH  13  16
ATOM     16  C   UNL     1       3.361   2.630  18.517  0.00  0.00    +0.000 C 
BRANCH  16  17
ATOM     17  N   UNL     1       3.811   3.259  19.785  0.00  0.00    +0.000 NA
ATOM     18  C   UNL     1       3.156   2.680  20.987  0.00  0.00    +0.000 C 
ATOM     19  C   UNL     1       1.652   2.990  21.105  0.00  0.00    +0.000 C 
ATOM     20  O   UNL     1       1.401   4.401  21.072  0.00  0.00    +0.000 OA
ATOM     21  C   UNL     1       1.952   4.997  19.893  0.00  0.00    +0.000 C 
ATOM     22  C   UNL     1       3.463   4.710  19.778  0.00  0.00    +0.000 C 
ENDBRANCH  16  17
ENDBRANCH  13  16
ENDBRANCH   1  14
BRANCH   3  23
ATOM     23  C   UNL     1       6.057   3.161  12.106  0.00  0.00    +0.000 C 
ATOM     24  F   UNL     1       7.127   3.371  11.291  0.00  0.00    +0.000 F 
ATOM     25  F   UNL     1       5.910   1.811  12.192  0.00  0.00    +0.000 F 
ATOM     26  F   UNL     1       4.972   3.614  11.419  0.00  0.00    +0.000 F 
ENDBRANCH   3  23
TORSDOF 5
ENDMDL
