MODEL 1
REMARK VINA RESULT:      -7.6      0.000      0.000
REMARK  Name = 
REMARK  8 active torsions:
REMARK  status: ('A' for Active; 'I' for Inactive)
REMARK    1  A    between atoms: C_1  and  O_2
REMARK    2  A    between atoms: O_2  and  C_3
REMARK    3  A    between atoms: C_5  and  C_6
REMARK    4  A    between atoms: C_7  and  C_8
REMARK    5  A    between atoms: C_9  and  C_10
REMARK    6  A    between atoms: C_11  and  C_12
REMARK    7  A    between atoms: C_13  and  C_14
REMARK    8  A    between atoms: C_23  and  C_24
REMARK                            x       y       z     vdW  Elec       q    Type
REMARK                         _______ _______ _______ _____ _____    ______ ____
ROOT
ATOM      1  C   UNL     1       7.387   6.755  18.247  0.00  0.00    +0.000 C 
ATOM      2  C   UNL     1       7.288   7.950  17.635  0.00  0.00    +0.000 C 
ENDROOT
BRANCH   1   4
ATOM      3  C   UNL     1       5.120   6.012  18.911  0.00  0.00    +0.000 C 
ATOM      4  C   UNL     1       6.298   5.789  18.299  0.00  0.00    +0.000 C 
BRANCH   3   7
ATOM      5  C   UNL     1       2.207   3.869  20.055  0.00  0.00    +0.000 A 
ATOM      6  C   UNL     1       3.289   4.829  20.082  0.00  0.00    +0.000 A 
ATOM      7  C   UNL     1       4.015   5.062  18.983  0.00  0.00    +0.000 A 
ATOM      8  O   UNL     1       3.741   4.375  17.783  0.00  0.00    +0.000 OA
ATOM      9  C   UNL     1       2.725   3.468  17.701  0.00  0.00    +0.000 A 
ATOM     10  O   UNL     1       2.495   2.880  16.647  0.00  0.00    +0.000 OA
ATOM     11  C   UNL     1       1.907   3.212  18.918  0.00  0.00    +0.000 A 
ATOM     12  C   UNL     1       0.748   2.281  18.724  0.00  0.00    +0.000 C 
BRANCH   5  14
ATOM     13  C   UNL     1       1.648   2.538  21.973  0.00  0.00    +0.000 C 
ATOM     14  O   UNL     1       1.569   3.775  21.272  0.00  0.00    +0.000 OA
ENDBRANCH   5  14
ENDBRANCH   3   7
ENDBRANCH   1   4
BRANCH   2  15
ATOM     15  C   UNL     1       8.373   8.913  17.574  0.00  0.00    +0.000 C 
ATOM     16  C   UNL     1       8.567   9.883  18.491  0.00  0.00    +0.000 C 
BRANCH  16  17
ATOM     17  C   UNL     1       9.636  10.858  18.385  0.00  0.00    +0.000 C 
ATOM     18  C   UNL     1       9.465  12.134  17.993  0.00  0.00    +0.000 C 
BRANCH  18  19
ATOM     19  C   UNL     1      10.580  13.002  17.835  0.00  0.00    +0.000 A 
ATOM     20  N   UNL     1      11.307  12.927  16.668  0.00  0.00    +0.000 N 
ATOM     21  C   UNL     1      12.333  13.837  16.686  0.00  0.00    +0.000 A 
ATOM     22  C   UNL     1      12.290  14.491  17.896  0.00  0.00    +0.000 A 
ATOM     23  C   UNL     1      11.203  13.963  18.627  0.00  0.00    +0.000 A 
ATOM     24 CL   UNL     1      10.800  14.452  20.204  0.00  0.00    +0.000 Cl
ATOM     25  H   UNL     1      11.104  12.306  15.888  0.00  0.00    +0.000 HD
ENDBRANCH  18  19
ENDBRANCH  16  17
ENDBRANCH   2  15
TORSDOF 6
ENDMDL
MODEL 2
REMARK VINA RESULT:      -7.5      5.862     11.541
REMARK  Name = 
REMARK  8 active torsions:
REMARK  status: ('A' for Active; 'I' for Inactive)
REMARK    1  A    between atoms: C_1  and  O_2
REMARK    2  A    between atoms: O_2  and  C_3
REMARK    3  A    between atoms: C_5  and  C_6
REMARK    4  A    between atoms: C_7  and  C_8
REMARK    5  A    between atoms: C_9  and  C_10
REMARK    6  A    between atoms: C_11  and  C_12
REMARK    7  A    between atoms: C_13  and  C_14
REMARK    8  A    between atoms: C_23  and  C_24
REMARK                            x       y       z     vdW  Elec       q    Type
REMARK                         _______ _______ _______ _____ _____    ______ ____
ROOT
ATOM      1  C   UNL     1       8.381   8.643  18.345  0.00  0.00    +0.000 C 
ATOM      2  C   UNL     1       7.384   8.277  17.519  0.00  0.00    +0.000 C 
ENDROOT
BRANCH   1   4
ATOM      3  C   UNL     1       8.476  11.083  17.936  0.00  0.00    +0.000 C 
ATOM      4  C   UNL     1       9.077   9.918  18.245  0.00  0.00    +0.000 C 
BRANCH   3   7
ATOM      5  C   UNL     1       9.357  14.771  18.047  0.00  0.00    +0.000 A 
ATOM      6  C   UNL     1       8.610  13.541  18.194  0.00  0.00    +0.000 A 
ATOM      7  C   UNL     1       9.148  12.373  17.823  0.00  0.00    +0.000 A 
ATOM      8  O   UNL     1      10.447  12.322  17.279  0.00  0.00    +0.000 OA
ATOM      9  C   UNL     1      11.198  13.452  17.129  0.00  0.00    +0.000 A 
ATOM     10  O   UNL     1      12.331  13.391  16.658  0.00  0.00    +0.000 OA
ATOM     11  C   UNL     1      10.609  14.753  17.550  0.00  0.00    +0.000 A 
ATOM     12  C   UNL     1      11.529  15.933  17.450  0.00  0.00    +0.000 C 
BRANCH   5  14
ATOM     13  C   UNL     1       7.229  15.829  18.382  0.00  0.00    +0.000 C 
ATOM     14  O   UNL     1       8.648  15.864  18.494  0.00  0.00    +0.000 OA
ENDBRANCH   5  14
ENDBRANCH   3   7
ENDBRANCH   1   4
BRANCH   2  15
ATOM     15  C   UNL     1       6.681   7.010  17.619  0.00  0.00    +0.000 C 
ATOM     16  C   UNL     1       5.389   6.839  17.270  0.00  0.00    +0.000 C 
BRANCH  16  17
ATOM     17  C   UNL     1       4.700   5.571  17.418  0.00  0.00    +0.000 C 
ATOM     18  C   UNL     1       3.622   5.378  18.201  0.00  0.00    +0.000 C 
BRANCH  18  19
ATOM     19  C   UNL     1       3.058   4.083  18.354  0.00  0.00    +0.000 A 
ATOM     20  N   UNL     1       3.533   3.063  17.559  0.00  0.00    +0.000 N 
ATOM     21  C   UNL     1       2.883   1.890  17.849  0.00  0.00    +0.000 A 
ATOM     22  C   UNL     1       1.951   2.159  18.825  0.00  0.00    +0.000 A 
ATOM     23  C   UNL     1       2.045   3.534  19.137  0.00  0.00    +0.000 A 
ATOM     24 CL   UNL     1       1.045   4.315  20.267  0.00  0.00    +0.000 Cl
ATOM     25  H   UNL     1       4.276   3.153  16.871  0.00  0.00    +0.000 HD
ENDBRANCH  18  19
ENDBRANCH  16  17
ENDBRANCH   2  15
TORSDOF 6
ENDMDL
MODEL 3
REMARK VINA RESULT:      -7.5      8.031     10.424
REMARK  Name = 
REMARK  8 active torsions:
REMARK  status: ('A' for Active; 'I' for Inactive)
REMARK    1  A    between atoms: C_1  and  O_2
REMARK    2  A    between atoms: O_2  and  C_3
REMARK    3  A    between atoms: C_5  and  C_6
REMARK    4  A    between atoms: C_7  and  C_8
REMARK    5  A    between atoms: C_9  and  C_10
REMARK    6  A    between atoms: C_11  and  C_12
REMARK    7  A    between atoms: C_13  and  C_14
REMARK    8  A    between atoms: C_23  and  C_24
REMARK                            x       y       z     vdW  Elec       q    Type
REMARK                         _______ _______ _______ _____ _____    ______ ____
ROOT
ATOM      1  C   UNL     1       1.221   9.300  17.896  0.00  0.00    +0.000 C 
ATOM      2  C   UNL     1       1.016  10.351  18.712  0.00  0.00    +0.000 C 
ENDROOT
BRANCH   1   4
ATOM      3  C   UNL     1       2.584   7.243  18.096  0.00  0.00    +0.000 C 
ATOM      4  C   UNL     1       2.475   8.561  17.845  0.00  0.00    +0.000 C 
BRANCH   3   7
ATOM      5  C   UNL     1       5.261   4.588  18.519  0.00  0.00    +0.000 A 
ATOM      6  C   UNL     1       3.990   5.273  18.614  0.00  0.00    +0.000 A 
ATOM      7  C   UNL     1       3.826   6.478  18.057  0.00  0.00    +0.000 A 
ATOM      8  O   UNL     1       4.889   7.103  17.373  0.00  0.00    +0.000 OA
ATOM      9  C   UNL     1       6.105   6.496  17.246  0.00  0.00    +0.000 A 
ATOM     10  O   UNL     1       7.020   7.051  16.643  0.00  0.00    +0.000 OA
ATOM     11  C   UNL     1       6.289   5.149  17.854  0.00  0.00    +0.000 A 
ATOM     12  C   UNL     1       7.616   4.504  17.586  0.00  0.00    +0.000 C 
BRANCH   5  14
ATOM     13  C   UNL     1       4.106   3.044  19.949  0.00  0.00    +0.000 C 
ATOM     14  O   UNL     1       5.234   3.359  19.139  0.00  0.00    +0.000 OA
ENDBRANCH   5  14
ENDBRANCH   3   7
ENDBRANCH   1   4
BRANCH   2  15
ATOM     15  C   UNL     1      -0.235  11.087  18.773  0.00  0.00    +0.000 C 
ATOM     16  C   UNL     1      -1.451  10.506  18.717  0.00  0.00    +0.000 C 
BRANCH  16  17
ATOM     17  C   UNL     1      -2.684  11.268  18.741  0.00  0.00    +0.000 C 
ATOM     18  C   UNL     1      -3.756  11.006  17.969  0.00  0.00    +0.000 C 
BRANCH  18  19
ATOM     19  C   UNL     1      -4.896  11.855  17.993  0.00  0.00    +0.000 A 
ATOM     20  N   UNL     1      -5.607  12.029  16.827  0.00  0.00    +0.000 N 
ATOM     21  C   UNL     1      -6.672  12.867  17.039  0.00  0.00    +0.000 A 
ATOM     22  C   UNL     1      -6.633  13.269  18.354  0.00  0.00    +0.000 A 
ATOM     23  C   UNL     1      -5.514  12.649  18.955  0.00  0.00    +0.000 A 
ATOM     24 CL   UNL     1      -5.054  12.898  20.573  0.00  0.00    +0.000 Cl
ATOM     25  H   UNL     1      -5.396  11.583  15.938  0.00  0.00    +0.000 HD
ENDBRANCH  18  19
ENDBRANCH  16  17
ENDBRANCH   2  15
TORSDOF 6
ENDMDL
MODEL 4
REMARK VINA RESULT:      -7.5      7.998     10.861
REMARK  Name = 
REMARK  8 active torsions:
REMARK  status: ('A' for Active; 'I' for Inactive)
REMARK    1  A    between atoms: C_1  and  O_2
REMARK    2  A    between atoms: O_2  and  C_3
REMARK    3  A    between atoms: C_5  and  C_6
REMARK    4  A    between atoms: C_7  and  C_8
REMARK    5  A    between atoms: C_9  and  C_10
REMARK    6  A    between atoms: C_11  and  C_12
REMARK    7  A    between atoms: C_13  and  C_14
REMARK    8  A    between atoms: C_23  and  C_24
REMARK                            x       y       z     vdW  Elec       q    Type
REMARK                         _______ _______ _______ _____ _____    ______ ____
ROOT
ATOM      1  C   UNL     1       1.143   8.354  18.361  0.00  0.00    +0.000 C 
ATOM      2  C   UNL     1       1.025   9.694  18.333  0.00  0.00    +0.000 C 
ENDROOT
BRANCH   1   4
ATOM      3  C   UNL     1       3.117   7.254  17.349  0.00  0.00    +0.000 C 
ATOM      4  C   UNL     1       2.424   7.664  18.428  0.00  0.00    +0.000 C 
BRANCH   3   7
ATOM      5  C   UNL     1       6.487   5.745  16.480  0.00  0.00    +0.000 A 
ATOM      6  C   UNL     1       5.233   6.454  16.346  0.00  0.00    +0.000 A 
ATOM      7  C   UNL     1       4.398   6.557  17.386  0.00  0.00    +0.000 A 
ATOM      8  O   UNL     1       4.723   5.973  18.627  0.00  0.00    +0.000 OA
ATOM      9  C   UNL     1       5.897   5.302  18.810  0.00  0.00    +0.000 A 
ATOM     10  O   UNL     1       6.169   4.802  19.899  0.00  0.00    +0.000 OA
ATOM     11  C   UNL     1       6.836   5.194  17.659  0.00  0.00    +0.000 A 
ATOM     12  C   UNL     1       8.147   4.533  17.964  0.00  0.00    +0.000 C 
BRANCH   5  14
ATOM     13  C   UNL     1       6.869   4.818  14.299  0.00  0.00    +0.000 C 
ATOM     14  O   UNL     1       7.216   5.757  15.311  0.00  0.00    +0.000 OA
ENDBRANCH   5  14
ENDBRANCH   3   7
ENDBRANCH   1   4
BRANCH   2  15
ATOM     15  C   UNL     1      -0.250  10.387  18.275  0.00  0.00    +0.000 C 
ATOM     16  C   UNL     1      -1.267  10.019  17.468  0.00  0.00    +0.000 C 
BRANCH  16  17
ATOM     17  C   UNL     1      -2.516  10.753  17.400  0.00  0.00    +0.000 C 
ATOM     18  C   UNL     1      -3.657  10.372  18.005  0.00  0.00    +0.000 C 
BRANCH  18  19
ATOM     19  C   UNL     1      -4.860  11.105  17.819  0.00  0.00    +0.000 A 
ATOM     20  N   UNL     1      -4.811  12.266  17.079  0.00  0.00    +0.000 N 
ATOM     21  C   UNL     1      -6.057  12.832  16.996  0.00  0.00    +0.000 A 
ATOM     22  C   UNL     1      -6.923  12.043  17.719  0.00  0.00    +0.000 A 
ATOM     23  C   UNL     1      -6.177  10.967  18.249  0.00  0.00    +0.000 A 
ATOM     24 CL   UNL     1      -6.839   9.762  19.249  0.00  0.00    +0.000 Cl
ATOM     25  H   UNL     1      -3.978  12.643  16.633  0.00  0.00    +0.000 HD
ENDBRANCH  18  19
ENDBRANCH  16  17
ENDBRANCH   2  15
TORSDOF 6
ENDMDL
MODEL 5
REMARK VINA RESULT:      -7.4      8.212     11.020
REMARK  Name = 
REMARK  8 active torsions:
REMARK  status: ('A' for Active; 'I' for Inactive)
REMARK    1  A    between atoms: C_1  and  O_2
REMARK    2  A    between atoms: O_2  and  C_3
REMARK    3  A    between atoms: C_5  and  C_6
REMARK    4  A    between atoms: C_7  and  C_8
REMARK    5  A    between atoms: C_9  and  C_10
REMARK    6  A    between atoms: C_11  and  C_12
REMARK    7  A    between atoms: C_13  and  C_14
REMARK    8  A    between atoms: C_23  and  C_24
REMARK                            x       y       z     vdW  Elec       q    Type
REMARK                         _______ _______ _______ _____ _____    ______ ____
ROOT
ATOM      1  C   UNL     1       0.902   8.908  18.542  0.00  0.00    +0.000 C 
ATOM      2  C   UNL     1       0.619  10.149  18.980  0.00  0.00    +0.000 C 
ENDROOT
BRANCH   1   4
ATOM      3  C   UNL     1       2.564   7.163  17.976  0.00  0.00    +0.000 C 
ATOM      4  C   UNL     1       2.252   8.364  18.497  0.00  0.00    +0.000 C 
BRANCH   3   7
ATOM      5  C   UNL     1       6.256   6.543  17.363  0.00  0.00    +0.000 A 
ATOM      6  C   UNL     1       4.962   7.189  17.363  0.00  0.00    +0.000 A 
ATOM      7  C   UNL     1       3.905   6.590  17.923  0.00  0.00    +0.000 A 
ATOM      8  O   UNL     1       4.034   5.319  18.519  0.00  0.00    +0.000 OA
ATOM      9  C   UNL     1       5.234   4.671  18.556  0.00  0.00    +0.000 A 
ATOM     10  O   UNL     1       5.332   3.565  19.083  0.00  0.00    +0.000 OA
ATOM     11  C   UNL     1       6.416   5.338  17.944  0.00  0.00    +0.000 A 
ATOM     12  C   UNL     1       7.717   4.612  18.112  0.00  0.00    +0.000 C 
BRANCH   5  14
ATOM     13  C   UNL     1       7.881   8.302  17.542  0.00  0.00    +0.000 C 
ATOM     14  O   UNL     1       7.221   7.316  16.755  0.00  0.00    +0.000 OA
ENDBRANCH   5  14
ENDBRANCH   3   7
ENDBRANCH   1   4
BRANCH   2  15
ATOM     15  C   UNL     1      -0.726  10.695  19.034  0.00  0.00    +0.000 C 
ATOM     16  C   UNL     1      -1.556  10.749  17.972  0.00  0.00    +0.000 C 
BRANCH  16  17
ATOM     17  C   UNL     1      -2.881  11.335  18.043  0.00  0.00    +0.000 C 
ATOM     18  C   UNL     1      -4.007  10.722  17.634  0.00  0.00    +0.000 C 
BRANCH  18  19
ATOM     19  C   UNL     1      -5.256  11.401  17.662  0.00  0.00    +0.000 A 
ATOM     20  N   UNL     1      -5.356  12.613  17.015  0.00  0.00    +0.000 N 
ATOM     21  C   UNL     1      -6.627  13.116  17.138  0.00  0.00    +0.000 A 
ATOM     22  C   UNL     1      -7.354  12.232  17.902  0.00  0.00    +0.000 A 
ATOM     23  C   UNL     1      -6.497  11.162  18.245  0.00  0.00    +0.000 A 
ATOM     24 CL   UNL     1      -6.967   9.854  19.225  0.00  0.00    +0.000 Cl
ATOM     25  H   UNL     1      -4.607  13.065  16.497  0.00  0.00    +0.000 HD
ENDBRANCH  18  19
ENDBRANCH  16  17
ENDBRANCH   2  15
TORSDOF 6
ENDMDL
MODEL 6
REMARK VINA RESULT:      -7.3      7.519      9.615
REMARK  Name = 
REMARK  8 active torsions:
REMARK  status: ('A' for Active; 'I' for Inactive)
REMARK    1  A    between atoms: C_1  and  O_2
REMARK    2  A    between atoms: O_2  and  C_3
REMARK    3  A    between atoms: C_5  and  C_6
REMARK    4  A    between atoms: C_7  and  C_8
REMARK    5  A    between atoms: C_9  and  C_10
REMARK    6  A    between atoms: C_11  and  C_12
REMARK    7  A    between atoms: C_13  and  C_14
REMARK    8  A    between atoms: C_23  and  C_24
REMARK                            x       y       z     vdW  Elec       q    Type
REMARK                         _______ _______ _______ _____ _____    ______ ____
ROOT
ATOM      1  C   UNL     1       1.262   9.482  18.642  0.00  0.00    +0.000 C 
ATOM      2  C   UNL     1       0.665   9.239  19.824  0.00  0.00    +0.000 C 
ENDROOT
BRANCH   1   4
ATOM      3  C   UNL     1       2.383   7.283  18.432  0.00  0.00    +0.000 C 
ATOM      4  C   UNL     1       2.145   8.530  17.982  0.00  0.00    +0.000 C 
BRANCH   3   7
ATOM      5  C   UNL     1       4.048   4.099  17.218  0.00  0.00    +0.000 A 
ATOM      6  C   UNL     1       3.123   4.985  17.890  0.00  0.00    +0.000 A 
ATOM      7  C   UNL     1       3.266   6.312  17.796  0.00  0.00    +0.000 A 
ATOM      8  O   UNL     1       4.321   6.868  17.045  0.00  0.00    +0.000 OA
ATOM      9  C   UNL     1       5.215   6.077  16.383  0.00  0.00    +0.000 A 
ATOM     10  O   UNL     1       6.127   6.577  15.728  0.00  0.00    +0.000 OA
ATOM     11  C   UNL     1       5.054   4.600  16.475  0.00  0.00    +0.000 A 
ATOM     12  C   UNL     1       6.010   3.801  15.641  0.00  0.00    +0.000 C 
BRANCH   5  14
ATOM     13  C   UNL     1       3.840   2.255  18.741  0.00  0.00    +0.000 C 
ATOM     14  O   UNL     1       3.734   2.773  17.419  0.00  0.00    +0.000 OA
ENDBRANCH   5  14
ENDBRANCH   3   7
ENDBRANCH   1   4
BRANCH   2  15
ATOM     15  C   UNL     1      -0.223  10.181  20.483  0.00  0.00    +0.000 C 
ATOM     16  C   UNL     1       0.202  11.159  21.310  0.00  0.00    +0.000 C 
BRANCH  16  17
ATOM     17  C   UNL     1      -0.709  12.062  21.986  0.00  0.00    +0.000 C 
ATOM     18  C   UNL     1      -1.671  11.671  22.844  0.00  0.00    +0.000 C 
BRANCH  18  19
ATOM     19  C   UNL     1      -2.577  12.615  23.400  0.00  0.00    +0.000 A 
ATOM     20  N   UNL     1      -3.913  12.285  23.454  0.00  0.00    +0.000 N 
ATOM     21  C   UNL     1      -4.633  13.303  24.025  0.00  0.00    +0.000 A 
ATOM     22  C   UNL     1      -3.755  14.322  24.318  0.00  0.00    +0.000 A 
ATOM     23  C   UNL     1      -2.467  13.903  23.916  0.00  0.00    +0.000 A 
ATOM     24 CL   UNL     1      -1.076  14.870  24.050  0.00  0.00    +0.000 Cl
ATOM     25  H   UNL     1      -4.313  11.404  23.141  0.00  0.00    +0.000 HD
ENDBRANCH  18  19
ENDBRANCH  16  17
ENDBRANCH   2  15
TORSDOF 6
ENDMDL
MODEL 7
REMARK VINA RESULT:      -7.3      8.201     10.519
REMARK  Name = 
REMARK  8 active torsions:
REMARK  status: ('A' for Active; 'I' for Inactive)
REMARK    1  A    between atoms: C_1  and  O_2
REMARK    2  A    between atoms: O_2  and  C_3
REMARK    3  A    between atoms: C_5  and  C_6
REMARK    4  A    between atoms: C_7  and  C_8
REMARK    5  A    between atoms: C_9  and  C_10
REMARK    6  A    between atoms: C_11  and  C_12
REMARK    7  A    between atoms: C_13  and  C_14
REMARK    8  A    between atoms: C_23  and  C_24
REMARK                            x       y       z     vdW  Elec       q    Type
REMARK                         _______ _______ _______ _____ _____    ______ ____
ROOT
ATOM      1  C   UNL     1       0.859   9.011  18.065  0.00  0.00    +0.000 C 
ATOM      2  C   UNL     1       0.690  10.195  18.682  0.00  0.00    +0.000 C 
ENDROOT
BRANCH   1   4
ATOM      3  C   UNL     1       2.422   7.118  18.388  0.00  0.00    +0.000 C 
ATOM      4  C   UNL     1       2.153   8.355  17.931  0.00  0.00    +0.000 C 
BRANCH   3   7
ATOM      5  C   UNL     1       5.338   4.719  18.752  0.00  0.00    +0.000 A 
ATOM      6  C   UNL     1       4.036   5.323  18.935  0.00  0.00    +0.000 A 
ATOM      7  C   UNL     1       3.709   6.439  18.274  0.00  0.00    +0.000 A 
ATOM      8  O   UNL     1       4.627   7.047  17.394  0.00  0.00    +0.000 OA
ATOM      9  C   UNL     1       5.864   6.513  17.178  0.00  0.00    +0.000 A 
ATOM     10  O   UNL     1       6.652   7.051  16.405  0.00  0.00    +0.000 OA
ATOM     11  C   UNL     1       6.230   5.264  17.902  0.00  0.00    +0.000 A 
ATOM     12  C   UNL     1       7.562   4.682  17.538  0.00  0.00    +0.000 C 
BRANCH   5  14
ATOM     13  C   UNL     1       4.393   2.662  19.553  0.00  0.00    +0.000 C 
ATOM     14  O   UNL     1       5.486   3.573  19.502  0.00  0.00    +0.000 OA
ENDBRANCH   5  14
ENDBRANCH   3   7
ENDBRANCH   1   4
BRANCH   2  15
ATOM     15  C   UNL     1      -0.598  10.849  18.825  0.00  0.00    +0.000 C 
ATOM     16  C   UNL     1      -1.593  10.752  17.919  0.00  0.00    +0.000 C 
BRANCH  16  17
ATOM     17  C   UNL     1      -2.857  11.448  18.067  0.00  0.00    +0.000 C 
ATOM     18  C   UNL     1      -3.324  11.938  19.230  0.00  0.00    +0.000 C 
BRANCH  18  19
ATOM     19  C   UNL     1      -4.612  12.534  19.304  0.00  0.00    +0.000 A 
ATOM     20  N   UNL     1      -4.708  13.833  19.752  0.00  0.00    +0.000 N 
ATOM     21  C   UNL     1      -6.016  14.244  19.749  0.00  0.00    +0.000 A 
ATOM     22  C   UNL     1      -6.785  13.186  19.321  0.00  0.00    +0.000 A 
ATOM     23  C   UNL     1      -5.913  12.107  19.053  0.00  0.00    +0.000 A 
ATOM     24 CL   UNL     1      -6.440  10.574  18.539  0.00  0.00    +0.000 Cl
ATOM     25  H   UNL     1      -3.923  14.419  20.025  0.00  0.00    +0.000 HD
ENDBRANCH  18  19
ENDBRANCH  16  17
ENDBRANCH   2  15
TORSDOF 6
ENDMDL
MODEL 8
REMARK VINA RESULT:      -7.2      8.139     10.680
REMARK  Name = 
REMARK  8 active torsions:
REMARK  status: ('A' for Active; 'I' for Inactive)
REMARK    1  A    between atoms: C_1  and  O_2
REMARK    2  A    between atoms: O_2  and  C_3
REMARK    3  A    between atoms: C_5  and  C_6
REMARK    4  A    between atoms: C_7  and  C_8
REMARK    5  A    between atoms: C_9  and  C_10
REMARK    6  A    between atoms: C_11  and  C_12
REMARK    7  A    between atoms: C_13  and  C_14
REMARK    8  A    between atoms: C_23  and  C_24
REMARK                            x       y       z     vdW  Elec       q    Type
REMARK                         _______ _______ _______ _____ _____    ______ ____
ROOT
ATOM      1  C   UNL     1       1.181   9.197  18.115  0.00  0.00    +0.000 C 
ATOM      2  C   UNL     1       0.896   9.693  19.334  0.00  0.00    +0.000 C 
ENDROOT
BRANCH   1   4
ATOM      3  C   UNL     1       2.729   7.265  18.176  0.00  0.00    +0.000 C 
ATOM      4  C   UNL     1       2.432   8.523  17.798  0.00  0.00    +0.000 C 
BRANCH   3   7
ATOM      5  C   UNL     1       5.758   5.759  16.461  0.00  0.00    +0.000 A 
ATOM      6  C   UNL     1       4.513   6.469  16.657  0.00  0.00    +0.000 A 
ATOM      7  C   UNL     1       3.975   6.567  17.878  0.00  0.00    +0.000 A 
ATOM      8  O   UNL     1       4.608   5.978  18.991  0.00  0.00    +0.000 OA
ATOM      9  C   UNL     1       5.788   5.306  18.862  0.00  0.00    +0.000 A 
ATOM     10  O   UNL     1       6.331   4.801  19.842  0.00  0.00    +0.000 OA
ATOM     11  C   UNL     1       6.398   5.203  17.507  0.00  0.00    +0.000 A 
ATOM     12  C   UNL     1       7.742   4.540  17.461  0.00  0.00    +0.000 C 
BRANCH   5  14
ATOM     13  C   UNL     1       5.968   4.595  14.371  0.00  0.00    +0.000 C 
ATOM     14  O   UNL     1       6.161   5.776  15.143  0.00  0.00    +0.000 OA
ENDBRANCH   5  14
ENDBRANCH   3   7
ENDBRANCH   1   4
BRANCH   2  15
ATOM     15  C   UNL     1      -0.353  10.359  19.658  0.00  0.00    +0.000 C 
ATOM     16  C   UNL     1      -0.996  11.197  18.819  0.00  0.00    +0.000 C 
BRANCH  16  17
ATOM     17  C   UNL     1      -2.222  11.880  19.182  0.00  0.00    +0.000 C 
ATOM     18  C   UNL     1      -3.450  11.507  18.777  0.00  0.00    +0.000 C 
BRANCH  18  19
ATOM     19  C   UNL     1      -4.594  12.283  19.111  0.00  0.00    +0.000 A 
ATOM     20  N   UNL     1      -4.403  13.487  19.752  0.00  0.00    +0.000 N 
ATOM     21  C   UNL     1      -5.609  14.098  19.986  0.00  0.00    +0.000 A 
ATOM     22  C   UNL     1      -6.598  13.264  19.518  0.00  0.00    +0.000 A 
ATOM     23  C   UNL     1      -5.970  12.118  18.981  0.00  0.00    +0.000 A 
ATOM     24 CL   UNL     1      -6.818  10.798  18.327  0.00  0.00    +0.000 Cl
ATOM     25  H   UNL     1      -3.500  13.885  19.997  0.00  0.00    +0.000 HD
ENDBRANCH  18  19
ENDBRANCH  16  17
ENDBRANCH   2  15
TORSDOF 6
ENDMDL
MODEL 9
REMARK VINA RESULT:      -7.1      7.405      9.627
REMARK  Name = 
REMARK  8 active torsions:
REMARK  status: ('A' for Active; 'I' for Inactive)
REMARK    1  A    between atoms: C_1  and  O_2
REMARK    2  A    between atoms: O_2  and  C_3
REMARK    3  A    between atoms: C_5  and  C_6
REMARK    4  A    between atoms: C_7  and  C_8
REMARK    5  A    between atoms: C_9  and  C_10
REMARK    6  A    between atoms: C_11  and  C_12
REMARK    7  A    between atoms: C_13  and  C_14
REMARK    8  A    between atoms: C_23  and  C_24
REMARK                            x       y       z     vdW  Elec       q    Type
REMARK                         _______ _______ _______ _____ _____    ______ ____
ROOT
ATOM      1  C   UNL     1       1.406   7.967  20.878  0.00  0.00    +0.000 C 
ATOM      2  C   UNL     1       1.299   9.269  20.550  0.00  0.00    +0.000 C 
ENDROOT
BRANCH   1   4
ATOM      3  C   UNL     1       2.710   7.277  18.889  0.00  0.00    +0.000 C 
ATOM      4  C   UNL     1       2.147   7.000  20.081  0.00  0.00    +0.000 C 
BRANCH   3   7
ATOM      5  C   UNL     1       4.171   4.136  17.343  0.00  0.00    +0.000 A 
ATOM      6  C   UNL     1       3.399   4.999  18.211  0.00  0.00    +0.000 A 
ATOM      7  C   UNL     1       3.453   6.328  18.067  0.00  0.00    +0.000 A 
ATOM      8  O   UNL     1       4.264   6.910  17.072  0.00  0.00    +0.000 OA
ATOM      9  C   UNL     1       5.003   6.141  16.221  0.00  0.00    +0.000 A 
ATOM     10  O   UNL     1       5.702   6.662  15.354  0.00  0.00    +0.000 OA
ATOM     11  C   UNL     1       4.939   4.661  16.368  0.00  0.00    +0.000 A 
ATOM     12  C   UNL     1       5.696   3.882  15.335  0.00  0.00    +0.000 C 
BRANCH   5  14
ATOM     13  C   UNL     1       2.643   2.354  17.847  0.00  0.00    +0.000 C 
ATOM     14  O   UNL     1       3.977   2.803  17.633  0.00  0.00    +0.000 OA
ENDBRANCH   5  14
ENDBRANCH   3   7
ENDBRANCH   1   4
BRANCH   2  15
ATOM     15  C   UNL     1       0.567  10.239  21.345  0.00  0.00    +0.000 C 
ATOM     16  C   UNL     1      -0.317   9.906  22.309  0.00  0.00    +0.000 C 
BRANCH  16  17
ATOM     17  C   UNL     1      -1.064  10.895  23.061  0.00  0.00    +0.000 C 
ATOM     18  C   UNL     1      -2.080  11.623  22.561  0.00  0.00    +0.000 C 
BRANCH  18  19
ATOM     19  C   UNL     1      -2.705  12.633  23.342  0.00  0.00    +0.000 A 
ATOM     20  N   UNL     1      -3.982  12.405  23.805  0.00  0.00    +0.000 N 
ATOM     21  C   UNL     1      -4.420  13.476  24.543  0.00  0.00    +0.000 A 
ATOM     22  C   UNL     1      -3.424  14.426  24.532  0.00  0.00    +0.000 A 
ATOM     23  C   UNL     1      -2.352  13.910  23.770  0.00  0.00    +0.000 A 
ATOM     24 CL   UNL     1      -0.920  14.769  23.455  0.00  0.00    +0.000 Cl
ATOM     25  H   UNL     1      -4.521  11.557  23.649  0.00  0.00    +0.000 HD
ENDBRANCH  18  19
ENDBRANCH  16  17
ENDBRANCH   2  15
TORSDOF 6
ENDMDL
