MODEL 1
REMARK VINA RESULT:      -6.3      0.000      0.000
REMARK  Name = 
REMARK  4 active torsions:
REMARK  status: ('A' for Active; 'I' for Inactive)
REMARK    1  A    between atoms: C_2  and  O_3
REMARK    2  A    between atoms: C_2  and  C_4
REMARK    3  A    between atoms: C_4  and  C_5
REMARK    4  A    between atoms: C_5  and  N_6
REMARK                            x       y       z     vdW  Elec       q    Type
REMARK                         _______ _______ _______ _____ _____    ______ ____
ROOT
ATOM      1  N   UNL     1       2.632   4.447  18.431  0.00  0.00    +0.000 N 
ATOM      2  N   UNL     1       2.184   5.498  19.150  0.00  0.00    +0.000 NA
ATOM      3  C   UNL     1       2.901   6.527  18.686  0.00  0.00    +0.000 A 
ATOM      4  C   UNL     1       3.803   6.148  17.670  0.00  0.00    +0.000 A 
ATOM      5  C   UNL     1       4.738   6.812  16.857  0.00  0.00    +0.000 A 
ATOM      6  C   UNL     1       5.473   6.069  15.922  0.00  0.00    +0.000 A 
ATOM      7  C   UNL     1       5.287   4.693  15.814  0.00  0.00    +0.000 A 
ATOM      8 CL   UNL     1       6.202   3.806  14.653  0.00  0.00    +0.000 Cl
ATOM      9  C   UNL     1       4.367   4.011  16.619  0.00  0.00    +0.000 A 
ATOM     10  C   UNL     1       3.623   4.771  17.534  0.00  0.00    +0.000 A 
ENDROOT
BRANCH   1  11
ATOM     11  C   UNL     1       2.005   3.150  18.635  0.00  0.00    +0.000 C 
BRANCH  11  12
ATOM     12  C   UNL     1       2.660   2.378  19.778  0.00  0.00    +0.000 C 
BRANCH  12  14
ATOM     13  O   UNL     1       2.546   2.576  22.177  0.00  0.00    +0.000 OA
ATOM     14  C   UNL     1       2.009   2.704  21.090  0.00  0.00    +0.000 C 
BRANCH  14  15
ATOM     15  O   UNL     1       0.738   3.150  20.963  0.00  0.00    +0.000 OA
ATOM     16  H   UNL     1       0.415   3.206  20.042  0.00  0.00    +0.000 HD
ENDBRANCH  14  15
ENDBRANCH  12  14
ENDBRANCH  11  12
ENDBRANCH   1  11
TORSDOF 4
ENDMDL
MODEL 2
REMARK VINA RESULT:      -6.3      3.985      5.690
REMARK  Name = 
REMARK  4 active torsions:
REMARK  status: ('A' for Active; 'I' for Inactive)
REMARK    1  A    between atoms: C_2  and  O_3
REMARK    2  A    between atoms: C_2  and  C_4
REMARK    3  A    between atoms: C_4  and  C_5
REMARK    4  A    between atoms: C_5  and  N_6
REMARK                            x       y       z     vdW  Elec       q    Type
REMARK                         _______ _______ _______ _____ _____    ______ ____
ROOT
ATOM      1  N   UNL     1       3.968   3.892  17.572  0.00  0.00    +0.000 N 
ATOM      2  N   UNL     1       3.990   2.554  17.398  0.00  0.00    +0.000 NA
ATOM      3  C   UNL     1       3.152   2.099  18.335  0.00  0.00    +0.000 A 
ATOM      4  C   UNL     1       2.586   3.134  19.108  0.00  0.00    +0.000 A 
ATOM      5  C   UNL     1       1.663   3.209  20.166  0.00  0.00    +0.000 A 
ATOM      6  C   UNL     1       1.333   4.467  20.691  0.00  0.00    +0.000 A 
ATOM      7  C   UNL     1       1.924   5.620  20.180  0.00  0.00    +0.000 A 
ATOM      8 CL   UNL     1       1.497   7.153  20.842  0.00  0.00    +0.000 Cl
ATOM      9  C   UNL     1       2.851   5.567  19.132  0.00  0.00    +0.000 A 
ATOM     10  C   UNL     1       3.154   4.303  18.602  0.00  0.00    +0.000 A 
ENDROOT
BRANCH   1  11
ATOM     11  C   UNL     1       4.732   4.724  16.655  0.00  0.00    +0.000 C 
BRANCH  11  12
ATOM     12  C   UNL     1       5.848   3.936  15.972  0.00  0.00    +0.000 C 
BRANCH  12  14
ATOM     13  O   UNL     1       7.512   5.581  15.398  0.00  0.00    +0.000 OA
ATOM     14  C   UNL     1       7.164   4.646  16.098  0.00  0.00    +0.000 C 
BRANCH  14  15
ATOM     15  O   UNL     1       7.958   4.139  17.069  0.00  0.00    +0.000 OA
ATOM     16  H   UNL     1       7.712   3.241  17.370  0.00  0.00    +0.000 HD
ENDBRANCH  14  15
ENDBRANCH  12  14
ENDBRANCH  11  12
ENDBRANCH   1  11
TORSDOF 4
ENDMDL
MODEL 3
REMARK VINA RESULT:      -6.2      4.346      5.698
REMARK  Name = 
REMARK  4 active torsions:
REMARK  status: ('A' for Active; 'I' for Inactive)
REMARK    1  A    between atoms: C_2  and  O_3
REMARK    2  A    between atoms: C_2  and  C_4
REMARK    3  A    between atoms: C_4  and  C_5
REMARK    4  A    between atoms: C_5  and  N_6
REMARK                            x       y       z     vdW  Elec       q    Type
REMARK                         _______ _______ _______ _____ _____    ______ ____
ROOT
ATOM      1  N   UNL     1       5.587   4.776  18.231  0.00  0.00    +0.000 N 
ATOM      2  N   UNL     1       6.053   4.498  16.995  0.00  0.00    +0.000 NA
ATOM      3  C   UNL     1       5.012   3.922  16.386  0.00  0.00    +0.000 A 
ATOM      4  C   UNL     1       3.876   3.832  17.217  0.00  0.00    +0.000 A 
ATOM      5  C   UNL     1       2.561   3.355  17.075  0.00  0.00    +0.000 A 
ATOM      6  C   UNL     1       1.685   3.443  18.166  0.00  0.00    +0.000 A 
ATOM      7  C   UNL     1       2.119   3.981  19.375  0.00  0.00    +0.000 A 
ATOM      8 CL   UNL     1       1.020   4.080  20.699  0.00  0.00    +0.000 Cl
ATOM      9  C   UNL     1       3.426   4.454  19.541  0.00  0.00    +0.000 A 
ATOM     10  C   UNL     1       4.284   4.380  18.433  0.00  0.00    +0.000 A 
ENDROOT
BRANCH   1  11
ATOM     11  C   UNL     1       6.456   5.484  19.158  0.00  0.00    +0.000 C 
BRANCH  11  12
ATOM     12  C   UNL     1       7.818   5.787  18.537  0.00  0.00    +0.000 C 
BRANCH  12  14
ATOM     13  O   UNL     1       7.376   7.687  17.122  0.00  0.00    +0.000 OA
ATOM     14  C   UNL     1       7.910   7.224  18.116  0.00  0.00    +0.000 C 
BRANCH  14  15
ATOM     15  O   UNL     1       8.666   7.979  18.945  0.00  0.00    +0.000 OA
ATOM     16  H   UNL     1       8.698   8.930  18.716  0.00  0.00    +0.000 HD
ENDBRANCH  14  15
ENDBRANCH  12  14
ENDBRANCH  11  12
ENDBRANCH   1  11
TORSDOF 4
ENDMDL
MODEL 4
REMARK VINA RESULT:      -6.2      4.129      5.480
REMARK  Name = 
REMARK  4 active torsions:
REMARK  status: ('A' for Active; 'I' for Inactive)
REMARK    1  A    between atoms: C_2  and  O_3
REMARK    2  A    between atoms: C_2  and  C_4
REMARK    3  A    between atoms: C_4  and  C_5
REMARK    4  A    between atoms: C_5  and  N_6
REMARK                            x       y       z     vdW  Elec       q    Type
REMARK                         _______ _______ _______ _____ _____    ______ ____
ROOT
ATOM      1  N   UNL     1       4.392   5.048  17.531  0.00  0.00    +0.000 N 
ATOM      2  N   UNL     1       4.408   6.285  16.990  0.00  0.00    +0.000 NA
ATOM      3  C   UNL     1       3.580   6.984  17.773  0.00  0.00    +0.000 A 
ATOM      4  C   UNL     1       3.036   6.209  18.818  0.00  0.00    +0.000 A 
ATOM      5  C   UNL     1       2.163   6.445  19.895  0.00  0.00    +0.000 A 
ATOM      6  C   UNL     1       1.846   5.385  20.757  0.00  0.00    +0.000 A 
ATOM      7  C   UNL     1       2.377   4.116  20.537  0.00  0.00    +0.000 A 
ATOM      8 CL   UNL     1       1.973   2.833  21.614  0.00  0.00    +0.000 Cl
ATOM      9  C   UNL     1       3.241   3.858  19.466  0.00  0.00    +0.000 A 
ATOM     10  C   UNL     1       3.567   4.934  18.626  0.00  0.00    +0.000 A 
ENDROOT
BRANCH   1  11
ATOM     11  C   UNL     1       5.255   4.028  16.956  0.00  0.00    +0.000 C 
BRANCH  11  12
ATOM     12  C   UNL     1       5.659   4.371  15.524  0.00  0.00    +0.000 C 
BRANCH  12  14
ATOM     13  O   UNL     1       7.602   5.378  14.514  0.00  0.00    +0.000 OA
ATOM     14  C   UNL     1       7.099   4.788  15.455  0.00  0.00    +0.000 C 
BRANCH  14  15
ATOM     15  O   UNL     1       7.814   4.431  16.546  0.00  0.00    +0.000 OA
ATOM     16  H   UNL     1       7.664   3.514  16.850  0.00  0.00    +0.000 HD
ENDBRANCH  14  15
ENDBRANCH  12  14
ENDBRANCH  11  12
ENDBRANCH   1  11
TORSDOF 4
ENDMDL
MODEL 5
REMARK VINA RESULT:      -6.2      3.231      4.583
REMARK  Name = 
REMARK  4 active torsions:
REMARK  status: ('A' for Active; 'I' for Inactive)
REMARK    1  A    between atoms: C_2  and  O_3
REMARK    2  A    between atoms: C_2  and  C_4
REMARK    3  A    between atoms: C_4  and  C_5
REMARK    4  A    between atoms: C_5  and  N_6
REMARK                            x       y       z     vdW  Elec       q    Type
REMARK                         _______ _______ _______ _____ _____    ______ ____
ROOT
ATOM      1  N   UNL     1       4.744   6.185  17.262  0.00  0.00    +0.000 N 
ATOM      2  N   UNL     1       4.109   7.364  17.436  0.00  0.00    +0.000 NA
ATOM      3  C   UNL     1       2.958   7.019  18.022  0.00  0.00    +0.000 A 
ATOM      4  C   UNL     1       2.849   5.629  18.233  0.00  0.00    +0.000 A 
ATOM      5  C   UNL     1       1.895   4.770  18.808  0.00  0.00    +0.000 A 
ATOM      6  C   UNL     1       2.152   3.393  18.838  0.00  0.00    +0.000 A 
ATOM      7  C   UNL     1       3.328   2.884  18.291  0.00  0.00    +0.000 A 
ATOM      8 CL   UNL     1       3.619   1.186  18.345  0.00  0.00    +0.000 Cl
ATOM      9  C   UNL     1       4.287   3.720  17.707  0.00  0.00    +0.000 A 
ATOM     10  C   UNL     1       4.026   5.098  17.704  0.00  0.00    +0.000 A 
ENDROOT
BRANCH   1  11
ATOM     11  C   UNL     1       6.086   6.196  16.699  0.00  0.00    +0.000 C 
BRANCH  11  12
ATOM     12  C   UNL     1       7.134   6.572  17.743  0.00  0.00    +0.000 C 
BRANCH  12  14
ATOM     13  O   UNL     1       7.254   5.493  19.895  0.00  0.00    +0.000 OA
ATOM     14  C   UNL     1       7.388   5.431  18.685  0.00  0.00    +0.000 C 
BRANCH  14  15
ATOM     15  O   UNL     1       7.804   4.304  18.063  0.00  0.00    +0.000 OA
ATOM     16  H   UNL     1       7.806   4.353  17.087  0.00  0.00    +0.000 HD
ENDBRANCH  14  15
ENDBRANCH  12  14
ENDBRANCH  11  12
ENDBRANCH   1  11
TORSDOF 4
ENDMDL
MODEL 6
REMARK VINA RESULT:      -6.1      1.716      2.163
REMARK  Name = 
REMARK  4 active torsions:
REMARK  status: ('A' for Active; 'I' for Inactive)
REMARK    1  A    between atoms: C_2  and  O_3
REMARK    2  A    between atoms: C_2  and  C_4
REMARK    3  A    between atoms: C_4  and  C_5
REMARK    4  A    between atoms: C_5  and  N_6
REMARK                            x       y       z     vdW  Elec       q    Type
REMARK                         _______ _______ _______ _____ _____    ______ ____
ROOT
ATOM      1  N   UNL     1       3.965   5.047  18.284  0.00  0.00    +0.000 N 
ATOM      2  N   UNL     1       4.510   5.331  19.486  0.00  0.00    +0.000 NA
ATOM      3  C   UNL     1       5.825   5.236  19.268  0.00  0.00    +0.000 A 
ATOM      4  C   UNL     1       6.132   4.899  17.933  0.00  0.00    +0.000 A 
ATOM      5  C   UNL     1       7.311   4.702  17.191  0.00  0.00    +0.000 A 
ATOM      6  C   UNL     1       7.210   4.368  15.833  0.00  0.00    +0.000 A 
ATOM      7  C   UNL     1       5.960   4.219  15.236  0.00  0.00    +0.000 A 
ATOM      8 CL   UNL     1       5.867   3.811  13.564  0.00  0.00    +0.000 Cl
ATOM      9  C   UNL     1       4.775   4.402  15.958  0.00  0.00    +0.000 A 
ATOM     10  C   UNL     1       4.892   4.758  17.310  0.00  0.00    +0.000 A 
ENDROOT
BRANCH   1  11
ATOM     11  C   UNL     1       2.519   5.128  18.142  0.00  0.00    +0.000 C 
BRANCH  11  12
ATOM     12  C   UNL     1       1.832   3.848  18.611  0.00  0.00    +0.000 C 
BRANCH  12  14
ATOM     13  O   UNL     1       1.317   5.031  20.646  0.00  0.00    +0.000 OA
ATOM     14  C   UNL     1       1.157   4.054  19.935  0.00  0.00    +0.000 C 
BRANCH  14  15
ATOM     15  O   UNL     1       0.348   3.030  20.290  0.00  0.00    +0.000 OA
ATOM     16  H   UNL     1      -0.034   3.103  21.188  0.00  0.00    +0.000 HD
ENDBRANCH  14  15
ENDBRANCH  12  14
ENDBRANCH  11  12
ENDBRANCH   1  11
TORSDOF 4
ENDMDL
MODEL 7
REMARK VINA RESULT:      -6.1      1.161      1.576
REMARK  Name = 
REMARK  4 active torsions:
REMARK  status: ('A' for Active; 'I' for Inactive)
REMARK    1  A    between atoms: C_2  and  O_3
REMARK    2  A    between atoms: C_2  and  C_4
REMARK    3  A    between atoms: C_4  and  C_5
REMARK    4  A    between atoms: C_5  and  N_6
REMARK                            x       y       z     vdW  Elec       q    Type
REMARK                         _______ _______ _______ _____ _____    ______ ____
ROOT
ATOM      1  N   UNL     1       3.901   3.982  18.922  0.00  0.00    +0.000 N 
ATOM      2  N   UNL     1       3.382   4.913  19.750  0.00  0.00    +0.000 NA
ATOM      3  C   UNL     1       3.581   6.063  19.097  0.00  0.00    +0.000 A 
ATOM      4  C   UNL     1       4.219   5.879  17.853  0.00  0.00    +0.000 A 
ATOM      5  C   UNL     1       4.627   6.716  16.799  0.00  0.00    +0.000 A 
ATOM      6  C   UNL     1       5.250   6.144  15.681  0.00  0.00    +0.000 A 
ATOM      7  C   UNL     1       5.473   4.771  15.625  0.00  0.00    +0.000 A 
ATOM      8 CL   UNL     1       6.238   4.096  14.236  0.00  0.00    +0.000 Cl
ATOM      9  C   UNL     1       5.082   3.921  16.666  0.00  0.00    +0.000 A 
ATOM     10  C   UNL     1       4.440   4.505  17.769  0.00  0.00    +0.000 A 
ENDROOT
BRANCH   1  11
ATOM     11  C   UNL     1       3.791   2.581  19.297  0.00  0.00    +0.000 C 
BRANCH  11  12
ATOM     12  C   UNL     1       2.665   1.880  18.540  0.00  0.00    +0.000 C 
BRANCH  12  14
ATOM     13  O   UNL     1       0.285   2.256  18.496  0.00  0.00    +0.000 OA
ATOM     14  C   UNL     1       1.327   2.222  19.128  0.00  0.00    +0.000 C 
BRANCH  14  15
ATOM     15  O   UNL     1       1.378   2.513  20.448  0.00  0.00    +0.000 OA
ATOM     16  H   UNL     1       1.094   3.420  20.677  0.00  0.00    +0.000 HD
ENDBRANCH  14  15
ENDBRANCH  12  14
ENDBRANCH  11  12
ENDBRANCH   1  11
TORSDOF 4
ENDMDL
MODEL 8
REMARK VINA RESULT:      -6.1      2.004      2.510
REMARK  Name = 
REMARK  4 active torsions:
REMARK  status: ('A' for Active; 'I' for Inactive)
REMARK    1  A    between atoms: C_2  and  O_3
REMARK    2  A    between atoms: C_2  and  C_4
REMARK    3  A    between atoms: C_4  and  C_5
REMARK    4  A    between atoms: C_5  and  N_6
REMARK                            x       y       z     vdW  Elec       q    Type
REMARK                         _______ _______ _______ _____ _____    ______ ____
ROOT
ATOM      1  N   UNL     1       2.786   4.808  18.863  0.00  0.00    +0.000 N 
ATOM      2  N   UNL     1       1.998   4.175  17.969  0.00  0.00    +0.000 NA
ATOM      3  C   UNL     1       2.848   3.798  17.008  0.00  0.00    +0.000 A 
ATOM      4  C   UNL     1       4.179   4.178  17.280  0.00  0.00    +0.000 A 
ATOM      5  C   UNL     1       5.421   4.019  16.639  0.00  0.00    +0.000 A 
ATOM      6  C   UNL     1       6.569   4.553  17.242  0.00  0.00    +0.000 A 
ATOM      7  C   UNL     1       6.474   5.243  18.448  0.00  0.00    +0.000 A 
ATOM      8 CL   UNL     1       7.902   5.886  19.167  0.00  0.00    +0.000 Cl
ATOM      9  C   UNL     1       5.247   5.420  19.098  0.00  0.00    +0.000 A 
ATOM     10  C   UNL     1       4.111   4.860  18.494  0.00  0.00    +0.000 A 
ENDROOT
BRANCH   1  11
ATOM     11  C   UNL     1       2.184   5.298  20.094  0.00  0.00    +0.000 C 
BRANCH  11  12
ATOM     12  C   UNL     1       1.153   4.317  20.648  0.00  0.00    +0.000 C 
BRANCH  12  14
ATOM     13  O   UNL     1       2.359   2.997  22.264  0.00  0.00    +0.000 OA
ATOM     14  C   UNL     1       1.817   3.079  21.175  0.00  0.00    +0.000 C 
BRANCH  14  15
ATOM     15  O   UNL     1       1.776   2.038  20.311  0.00  0.00    +0.000 OA
ATOM     16  H   UNL     1       0.893   1.858  19.931  0.00  0.00    +0.000 HD
ENDBRANCH  14  15
ENDBRANCH  12  14
ENDBRANCH  11  12
ENDBRANCH   1  11
TORSDOF 4
ENDMDL
MODEL 9
REMARK VINA RESULT:      -6.1      1.907      2.312
REMARK  Name = 
REMARK  4 active torsions:
REMARK  status: ('A' for Active; 'I' for Inactive)
REMARK    1  A    between atoms: C_2  and  O_3
REMARK    2  A    between atoms: C_2  and  C_4
REMARK    3  A    between atoms: C_4  and  C_5
REMARK    4  A    between atoms: C_5  and  N_6
REMARK                            x       y       z     vdW  Elec       q    Type
REMARK                         _______ _______ _______ _____ _____    ______ ____
ROOT
ATOM      1  N   UNL     1       3.872   4.767  18.263  0.00  0.00    +0.000 N 
ATOM      2  N   UNL     1       4.335   5.092  19.489  0.00  0.00    +0.000 NA
ATOM      3  C   UNL     1       5.661   5.134  19.325  0.00  0.00    +0.000 A 
ATOM      4  C   UNL     1       6.056   4.845  18.002  0.00  0.00    +0.000 A 
ATOM      5  C   UNL     1       7.278   4.778  17.309  0.00  0.00    +0.000 A 
ATOM      6  C   UNL     1       7.268   4.450  15.946  0.00  0.00    +0.000 A 
ATOM      7  C   UNL     1       6.067   4.181  15.296  0.00  0.00    +0.000 A 
ATOM      8 CL   UNL     1       6.085   3.783  13.619  0.00  0.00    +0.000 Cl
ATOM      9  C   UNL     1       4.840   4.234  15.969  0.00  0.00    +0.000 A 
ATOM     10  C   UNL     1       4.864   4.585  17.327  0.00  0.00    +0.000 A 
ENDROOT
BRANCH   1  11
ATOM     11  C   UNL     1       2.433   4.701  18.060  0.00  0.00    +0.000 C 
BRANCH  11  12
ATOM     12  C   UNL     1       1.981   3.296  17.669  0.00  0.00    +0.000 C 
BRANCH  12  14
ATOM     13  O   UNL     1       1.818   2.396  19.898  0.00  0.00    +0.000 OA
ATOM     14  C   UNL     1       2.266   2.314  18.767  0.00  0.00    +0.000 C 
BRANCH  14  15
ATOM     15  O   UNL     1       3.094   1.313  18.391  0.00  0.00    +0.000 OA
ATOM     16  H   UNL     1       2.912   0.451  18.816  0.00  0.00    +0.000 HD
ENDBRANCH  14  15
ENDBRANCH  12  14
ENDBRANCH  11  12
ENDBRANCH   1  11
TORSDOF 4
ENDMDL
