MODEL 1
REMARK VINA RESULT:      -9.4      0.000      0.000
REMARK  Name = 
REMARK  5 active torsions:
REMARK  status: ('A' for Active; 'I' for Inactive)
REMARK    1  A    between atoms: C_1  and  N_2
REMARK    2  A    between atoms: N_2  and  C_3
REMARK    3  A    between atoms: C_3  and  C_4
REMARK    4  A    between atoms: C_18  and  C_20
REMARK    5  A    between atoms: N_24  and  C_25
REMARK                            x       y       z     vdW  Elec       q    Type
REMARK                         _______ _______ _______ _____ _____    ______ ____
ROOT
ATOM      1  C   UNL     1       2.342   6.801  20.473  0.00  0.00    +0.000 C 
ATOM      2  N   UNL     1       2.002   7.599  19.298  0.00  0.00    +0.000 N 
ATOM      3  C   UNL     1       1.391   8.831  19.534  0.00  0.00    +0.000 C 
ATOM      4  O   UNL     1       1.153   9.206  20.684  0.00  0.00    +0.000 OA
ENDROOT
BRANCH   3   5
ATOM      5  C   UNL     1       0.999   9.704  18.345  0.00  0.00    +0.000 C 
ATOM      6  C   UNL     1       2.133  10.659  17.998  0.00  0.00    +0.000 C 
ATOM      7  C   UNL     1       1.786  11.921  18.745  0.00  0.00    +0.000 C 
ATOM      8  O   UNL     1       2.599  12.798  18.993  0.00  0.00    +0.000 OA
ATOM      9  N   UNL     1       0.428  11.881  19.047  0.00  0.00    +0.000 N 
ATOM     10  C   UNL     1      -0.177  10.625  18.674  0.00  0.00    +0.000 C 
BRANCH   9  11
ATOM     11  C   UNL     1      -0.283  12.943  19.653  0.00  0.00    +0.000 A 
ATOM     12  C   UNL     1      -0.248  14.208  19.050  0.00  0.00    +0.000 A 
ATOM     13  C   UNL     1      -1.055  15.240  19.531  0.00  0.00    +0.000 A 
ATOM     14  C   UNL     1      -1.892  15.024  20.624  0.00  0.00    +0.000 A 
ATOM     15  C   UNL     1      -1.895  13.788  21.285  0.00  0.00    +0.000 A 
ATOM     16  C   UNL     1      -1.056  12.747  20.821  0.00  0.00    +0.000 A 
ATOM     17  C   UNL     1      -0.962  11.460  21.613  0.00  0.00    +0.000 C 
ATOM     18  C   UNL     1      -1.378  11.634  23.072  0.00  0.00    +0.000 C 
ATOM     19  C   UNL     1      -2.772  12.238  23.122  0.00  0.00    +0.000 C 
ATOM     20  C   UNL     1      -2.769  13.637  22.510  0.00  0.00    +0.000 C 
ENDBRANCH   9  11
ENDBRANCH   3   5
BRANCH   2  21
ATOM     21  C   UNL     1       2.335   7.030  17.989  0.00  0.00    +0.000 C 
BRANCH  21  22
ATOM     22  C   UNL     1       3.365   5.890  17.874  0.00  0.00    +0.000 A 
ATOM     23  C   UNL     1       4.784   6.087  17.675  0.00  0.00    +0.000 A 
ATOM     24  C   UNL     1       5.445   7.303  17.365  0.00  0.00    +0.000 A 
ATOM     25  C   UNL     1       6.833   7.455  17.374  0.00  0.00    +0.000 A 
ATOM     26  C   UNL     1       7.635   6.370  17.653  0.00  0.00    +0.000 A 
ATOM     27  C   UNL     1       7.042   5.127  17.819  0.00  0.00    +0.000 A 
ATOM     28  C   UNL     1       5.643   4.969  17.792  0.00  0.00    +0.000 A 
ATOM     29  C   UNL     1       5.113   3.682  17.879  0.00  0.00    +0.000 A 
ATOM     30  C   UNL     1       3.741   3.451  17.974  0.00  0.00    +0.000 A 
ATOM     31  C   UNL     1       3.273   2.126  18.018  0.00  0.00    +0.000 A 
ATOM     32  C   UNL     1       1.932   1.842  18.252  0.00  0.00    +0.000 A 
ATOM     33  C   UNL     1       1.055   2.889  18.482  0.00  0.00    +0.000 A 
ATOM     34  C   UNL     1       1.505   4.214  18.388  0.00  0.00    +0.000 A 
ATOM     35  C   UNL     1       2.855   4.547  18.077  0.00  0.00    +0.000 A 
ENDBRANCH  21  22
ENDBRANCH   2  21
TORSDOF 4
ENDMDL
MODEL 2
REMARK VINA RESULT:      -9.4      0.334      3.134
REMARK  Name = 
REMARK  5 active torsions:
REMARK  status: ('A' for Active; 'I' for Inactive)
REMARK    1  A    between atoms: C_1  and  N_2
REMARK    2  A    between atoms: N_2  and  C_3
REMARK    3  A    between atoms: C_3  and  C_4
REMARK    4  A    between atoms: C_18  and  C_20
REMARK    5  A    between atoms: N_24  and  C_25
REMARK                            x       y       z     vdW  Elec       q    Type
REMARK                         _______ _______ _______ _____ _____    ______ ____
ROOT
ATOM      1  C   UNL     1       2.255   6.891  20.629  0.00  0.00    +0.000 C 
ATOM      2  N   UNL     1       1.943   7.639  19.412  0.00  0.00    +0.000 N 
ATOM      3  C   UNL     1       1.329   8.881  19.581  0.00  0.00    +0.000 C 
ATOM      4  O   UNL     1       1.066   9.305  20.709  0.00  0.00    +0.000 OA
ENDROOT
BRANCH   3   5
ATOM      5  C   UNL     1       0.966   9.702  18.348  0.00  0.00    +0.000 C 
ATOM      6  C   UNL     1       2.143  10.574  17.932  0.00  0.00    +0.000 C 
ATOM      7  C   UNL     1       1.873  11.894  18.607  0.00  0.00    +0.000 C 
ATOM      8  O   UNL     1       2.734  12.740  18.793  0.00  0.00    +0.000 OA
ATOM      9  N   UNL     1       0.519  11.943  18.927  0.00  0.00    +0.000 N 
ATOM     10  C   UNL     1      -0.156  10.701  18.635  0.00  0.00    +0.000 C 
BRANCH   9  11
ATOM     11  C   UNL     1      -0.127  13.075  19.478  0.00  0.00    +0.000 A 
ATOM     12  C   UNL     1      -0.023  14.302  18.808  0.00  0.00    +0.000 A 
ATOM     13  C   UNL     1      -0.767  15.403  19.236  0.00  0.00    +0.000 A 
ATOM     14  C   UNL     1      -1.609  15.294  20.340  0.00  0.00    +0.000 A 
ATOM     15  C   UNL     1      -1.680  14.096  21.065  0.00  0.00    +0.000 A 
ATOM     16  C   UNL     1      -0.904  12.986  20.655  0.00  0.00    +0.000 A 
ATOM     17  C   UNL     1      -0.880  11.739  21.514  0.00  0.00    +0.000 C 
ATOM     18  C   UNL     1      -1.277  12.013  22.963  0.00  0.00    +0.000 C 
ATOM     19  C   UNL     1      -2.634  12.698  22.983  0.00  0.00    +0.000 C 
ATOM     20  C   UNL     1      -2.555  14.061  22.299  0.00  0.00    +0.000 C 
ENDBRANCH   9  11
ENDBRANCH   3   5
BRANCH   2  21
ATOM     21  C   UNL     1       2.305   7.014  18.137  0.00  0.00    +0.000 C 
BRANCH  21  22
ATOM     22  C   UNL     1       3.159   5.733  18.112  0.00  0.00    +0.000 A 
ATOM     23  C   UNL     1       2.640   4.400  18.327  0.00  0.00    +0.000 A 
ATOM     24  C   UNL     1       1.342   4.048  18.775  0.00  0.00    +0.000 A 
ATOM     25  C   UNL     1       0.850   2.742  18.779  0.00  0.00    +0.000 A 
ATOM     26  C   UNL     1       1.664   1.707  18.370  0.00  0.00    +0.000 A 
ATOM     27  C   UNL     1       2.988   1.981  18.060  0.00  0.00    +0.000 A 
ATOM     28  C   UNL     1       3.490   3.297  18.075  0.00  0.00    +0.000 A 
ATOM     29  C   UNL     1       4.850   3.497  17.838  0.00  0.00    +0.000 A 
ATOM     30  C   UNL     1       5.402   4.772  17.723  0.00  0.00    +0.000 A 
ATOM     31  C   UNL     1       6.788   4.901  17.525  0.00  0.00    +0.000 A 
ATOM     32  C   UNL     1       7.366   6.138  17.264  0.00  0.00    +0.000 A 
ATOM     33  C   UNL     1       6.551   7.253  17.164  0.00  0.00    +0.000 A 
ATOM     34  C   UNL     1       5.175   7.140  17.412  0.00  0.00    +0.000 A 
ATOM     35  C   UNL     1       4.556   5.903  17.754  0.00  0.00    +0.000 A 
ENDBRANCH  21  22
ENDBRANCH   2  21
TORSDOF 4
ENDMDL
MODEL 3
REMARK VINA RESULT:      -9.2      1.257      1.378
REMARK  Name = 
REMARK  5 active torsions:
REMARK  status: ('A' for Active; 'I' for Inactive)
REMARK    1  A    between atoms: C_1  and  N_2
REMARK    2  A    between atoms: N_2  and  C_3
REMARK    3  A    between atoms: C_3  and  C_4
REMARK    4  A    between atoms: C_18  and  C_20
REMARK    5  A    between atoms: N_24  and  C_25
REMARK                            x       y       z     vdW  Elec       q    Type
REMARK                         _______ _______ _______ _____ _____    ______ ____
ROOT
ATOM      1  C   UNL     1       2.399   6.836  20.528  0.00  0.00    +0.000 C 
ATOM      2  N   UNL     1       2.005   7.552  19.316  0.00  0.00    +0.000 N 
ATOM      3  C   UNL     1       1.459   8.825  19.490  0.00  0.00    +0.000 C 
ATOM      4  O   UNL     1       1.320   9.301  20.619  0.00  0.00    +0.000 OA
ENDROOT
BRANCH   3   5
ATOM      5  C   UNL     1       1.016   9.615  18.263  0.00  0.00    +0.000 C 
ATOM      6  C   UNL     1       1.640  11.004  18.279  0.00  0.00    +0.000 C 
ATOM      7  C   UNL     1       0.590  11.867  18.930  0.00  0.00    +0.000 C 
ATOM      8  O   UNL     1       0.830  12.958  19.422  0.00  0.00    +0.000 OA
ATOM      9  N   UNL     1      -0.631  11.205  18.832  0.00  0.00    +0.000 N 
ATOM     10  C   UNL     1      -0.490   9.884  18.268  0.00  0.00    +0.000 C 
BRANCH   9  11
ATOM     11  C   UNL     1      -1.868  11.754  19.238  0.00  0.00    +0.000 A 
ATOM     12  C   UNL     1      -2.849  11.998  18.267  0.00  0.00    +0.000 A 
ATOM     13  C   UNL     1      -4.132  12.397  18.645  0.00  0.00    +0.000 A 
ATOM     14  C   UNL     1      -4.444  12.569  19.992  0.00  0.00    +0.000 A 
ATOM     15  C   UNL     1      -3.462  12.395  20.977  0.00  0.00    +0.000 A 
ATOM     16  C   UNL     1      -2.151  12.022  20.597  0.00  0.00    +0.000 A 
ATOM     17  C   UNL     1      -1.061  11.965  21.647  0.00  0.00    +0.000 C 
ATOM     18  C   UNL     1      -1.385  12.808  22.879  0.00  0.00    +0.000 C 
ATOM     19  C   UNL     1      -2.736  12.382  23.430  0.00  0.00    +0.000 C 
ATOM     20  C   UNL     1      -3.841  12.669  22.416  0.00  0.00    +0.000 C 
ENDBRANCH   9  11
ENDBRANCH   3   5
BRANCH   2  21
ATOM     21  C   UNL     1       2.221   6.866  18.039  0.00  0.00    +0.000 C 
BRANCH  21  22
ATOM     22  C   UNL     1       3.242   5.717  17.935  0.00  0.00    +0.000 A 
ATOM     23  C   UNL     1       4.658   5.900  17.699  0.00  0.00    +0.000 A 
ATOM     24  C   UNL     1       5.318   7.102  17.340  0.00  0.00    +0.000 A 
ATOM     25  C   UNL     1       6.706   7.247  17.314  0.00  0.00    +0.000 A 
ATOM     26  C   UNL     1       7.509   6.165  17.606  0.00  0.00    +0.000 A 
ATOM     27  C   UNL     1       6.913   4.931  17.822  0.00  0.00    +0.000 A 
ATOM     28  C   UNL     1       5.513   4.781  17.829  0.00  0.00    +0.000 A 
ATOM     29  C   UNL     1       4.978   3.500  17.966  0.00  0.00    +0.000 A 
ATOM     30  C   UNL     1       3.608   3.280  18.097  0.00  0.00    +0.000 A 
ATOM     31  C   UNL     1       3.134   1.959  18.189  0.00  0.00    +0.000 A 
ATOM     32  C   UNL     1       1.797   1.691  18.461  0.00  0.00    +0.000 A 
ATOM     33  C   UNL     1       0.931   2.748  18.680  0.00  0.00    +0.000 A 
ATOM     34  C   UNL     1       1.386   4.068  18.537  0.00  0.00    +0.000 A 
ATOM     35  C   UNL     1       2.730   4.383  18.188  0.00  0.00    +0.000 A 
ENDBRANCH  21  22
ENDBRANCH   2  21
TORSDOF 4
ENDMDL
MODEL 4
REMARK VINA RESULT:      -9.2      1.910      2.427
REMARK  Name = 
REMARK  5 active torsions:
REMARK  status: ('A' for Active; 'I' for Inactive)
REMARK    1  A    between atoms: C_1  and  N_2
REMARK    2  A    between atoms: N_2  and  C_3
REMARK    3  A    between atoms: C_3  and  C_4
REMARK    4  A    between atoms: C_18  and  C_20
REMARK    5  A    between atoms: N_24  and  C_25
REMARK                            x       y       z     vdW  Elec       q    Type
REMARK                         _______ _______ _______ _____ _____    ______ ____
ROOT
ATOM      1  C   UNL     1       2.471   6.815  20.614  0.00  0.00    +0.000 C 
ATOM      2  N   UNL     1       2.022   7.580  19.453  0.00  0.00    +0.000 N 
ATOM      3  C   UNL     1       1.446   8.825  19.709  0.00  0.00    +0.000 C 
ATOM      4  O   UNL     1       1.326   9.238  20.865  0.00  0.00    +0.000 OA
ENDROOT
BRANCH   3   5
ATOM      5  C   UNL     1       0.944   9.664  18.538  0.00  0.00    +0.000 C 
ATOM      6  C   UNL     1       1.543  11.063  18.598  0.00  0.00    +0.000 C 
ATOM      7  C   UNL     1       0.501  11.873  19.327  0.00  0.00    +0.000 C 
ATOM      8  O   UNL     1       0.739  12.944  19.863  0.00  0.00    +0.000 OA
ATOM      9  N   UNL     1      -0.710  11.192  19.240  0.00  0.00    +0.000 N 
ATOM     10  C   UNL     1      -0.565   9.902  18.608  0.00  0.00    +0.000 C 
BRANCH   9  11
ATOM     11  C   UNL     1      -1.942  11.696  19.716  0.00  0.00    +0.000 A 
ATOM     12  C   UNL     1      -2.015  12.160  21.037  0.00  0.00    +0.000 A 
ATOM     13  C   UNL     1      -3.167  12.802  21.496  0.00  0.00    +0.000 A 
ATOM     14  C   UNL     1      -4.258  12.975  20.647  0.00  0.00    +0.000 A 
ATOM     15  C   UNL     1      -4.233  12.462  19.342  0.00  0.00    +0.000 A 
ATOM     16  C   UNL     1      -3.080  11.782  18.882  0.00  0.00    +0.000 A 
ATOM     17  C   UNL     1      -3.106  11.114  17.524  0.00  0.00    +0.000 C 
ATOM     18  C   UNL     1      -4.523  10.814  17.040  0.00  0.00    +0.000 C 
ATOM     19  C   UNL     1      -5.337  12.097  17.064  0.00  0.00    +0.000 C 
ATOM     20  C   UNL     1      -5.476  12.615  18.494  0.00  0.00    +0.000 C 
ENDBRANCH   9  11
ENDBRANCH   3   5
BRANCH   2  21
ATOM     21  C   UNL     1       2.220   6.968  18.137  0.00  0.00    +0.000 C 
BRANCH  21  22
ATOM     22  C   UNL     1       3.220   5.810  17.959  0.00  0.00    +0.000 A 
ATOM     23  C   UNL     1       4.630   5.981  17.685  0.00  0.00    +0.000 A 
ATOM     24  C   UNL     1       5.297   7.186  17.349  0.00  0.00    +0.000 A 
ATOM     25  C   UNL     1       6.686   7.313  17.285  0.00  0.00    +0.000 A 
ATOM     26  C   UNL     1       7.481   6.210  17.512  0.00  0.00    +0.000 A 
ATOM     27  C   UNL     1       6.873   4.977  17.702  0.00  0.00    +0.000 A 
ATOM     28  C   UNL     1       5.472   4.846  17.748  0.00  0.00    +0.000 A 
ATOM     29  C   UNL     1       4.922   3.569  17.854  0.00  0.00    +0.000 A 
ATOM     30  C   UNL     1       3.554   3.363  18.020  0.00  0.00    +0.000 A 
ATOM     31  C   UNL     1       3.063   2.046  18.079  0.00  0.00    +0.000 A 
ATOM     32  C   UNL     1       1.731   1.787  18.383  0.00  0.00    +0.000 A 
ATOM     33  C   UNL     1       0.888   2.848  18.667  0.00  0.00    +0.000 A 
ATOM     34  C   UNL     1       1.358   4.165  18.558  0.00  0.00    +0.000 A 
ATOM     35  C   UNL     1       2.696   4.474  18.179  0.00  0.00    +0.000 A 
ENDBRANCH  21  22
ENDBRANCH   2  21
TORSDOF 4
ENDMDL
MODEL 5
REMARK VINA RESULT:      -9.1      1.314      3.432
REMARK  Name = 
REMARK  5 active torsions:
REMARK  status: ('A' for Active; 'I' for Inactive)
REMARK    1  A    between atoms: C_1  and  N_2
REMARK    2  A    between atoms: N_2  and  C_3
REMARK    3  A    between atoms: C_3  and  C_4
REMARK    4  A    between atoms: C_18  and  C_20
REMARK    5  A    between atoms: N_24  and  C_25
REMARK                            x       y       z     vdW  Elec       q    Type
REMARK                         _______ _______ _______ _____ _____    ______ ____
ROOT
ATOM      1  C   UNL     1       2.411   7.006  20.687  0.00  0.00    +0.000 C 
ATOM      2  N   UNL     1       1.994   7.700  19.471  0.00  0.00    +0.000 N 
ATOM      3  C   UNL     1       1.320   8.910  19.641  0.00  0.00    +0.000 C 
ATOM      4  O   UNL     1       1.092   9.351  20.770  0.00  0.00    +0.000 OA
ENDROOT
BRANCH   3   5
ATOM      5  C   UNL     1       0.848   9.675  18.408  0.00  0.00    +0.000 C 
ATOM      6  C   UNL     1       1.464  11.067  18.385  0.00  0.00    +0.000 C 
ATOM      7  C   UNL     1       0.421  11.936  19.041  0.00  0.00    +0.000 C 
ATOM      8  O   UNL     1       0.664  13.038  19.508  0.00  0.00    +0.000 OA
ATOM      9  N   UNL     1      -0.797  11.265  18.979  0.00  0.00    +0.000 N 
ATOM     10  C   UNL     1      -0.659   9.934  18.437  0.00  0.00    +0.000 C 
BRANCH   9  11
ATOM     11  C   UNL     1      -2.030  11.814  19.400  0.00  0.00    +0.000 A 
ATOM     12  C   UNL     1      -3.030  12.038  18.442  0.00  0.00    +0.000 A 
ATOM     13  C   UNL     1      -4.308  12.436  18.838  0.00  0.00    +0.000 A 
ATOM     14  C   UNL     1      -4.596  12.627  20.188  0.00  0.00    +0.000 A 
ATOM     15  C   UNL     1      -3.595  12.474  21.157  0.00  0.00    +0.000 A 
ATOM     16  C   UNL     1      -2.290  12.101  20.759  0.00  0.00    +0.000 A 
ATOM     17  C   UNL     1      -1.181  12.067  21.790  0.00  0.00    +0.000 C 
ATOM     18  C   UNL     1      -1.486  12.928  23.014  0.00  0.00    +0.000 C 
ATOM     19  C   UNL     1      -2.825  12.504  23.596  0.00  0.00    +0.000 C 
ATOM     20  C   UNL     1      -3.950  12.769  22.598  0.00  0.00    +0.000 C 
ENDBRANCH   9  11
ENDBRANCH   3   5
BRANCH   2  21
ATOM     21  C   UNL     1       2.325   7.061  18.194  0.00  0.00    +0.000 C 
BRANCH  21  22
ATOM     22  C   UNL     1       3.130   5.748  18.166  0.00  0.00    +0.000 A 
ATOM     23  C   UNL     1       2.569   4.439  18.424  0.00  0.00    +0.000 A 
ATOM     24  C   UNL     1       1.275   4.145  18.923  0.00  0.00    +0.000 A 
ATOM     25  C   UNL     1       0.736   2.858  18.969  0.00  0.00    +0.000 A 
ATOM     26  C   UNL     1       1.496   1.786  18.554  0.00  0.00    +0.000 A 
ATOM     27  C   UNL     1       2.818   2.005  18.194  0.00  0.00    +0.000 A 
ATOM     28  C   UNL     1       3.369   3.301  18.166  0.00  0.00    +0.000 A 
ATOM     29  C   UNL     1       4.726   3.445  17.880  0.00  0.00    +0.000 A 
ATOM     30  C   UNL     1       5.320   4.696  17.721  0.00  0.00    +0.000 A 
ATOM     31  C   UNL     1       6.703   4.769  17.474  0.00  0.00    +0.000 A 
ATOM     32  C   UNL     1       7.318   5.978  17.170  0.00  0.00    +0.000 A 
ATOM     33  C   UNL     1       6.541   7.121  17.075  0.00  0.00    +0.000 A 
ATOM     34  C   UNL     1       5.171   7.064  17.371  0.00  0.00    +0.000 A 
ATOM     35  C   UNL     1       4.518   5.859  17.758  0.00  0.00    +0.000 A 
ENDBRANCH  21  22
ENDBRANCH   2  21
TORSDOF 4
ENDMDL
MODEL 6
REMARK VINA RESULT:      -9.1      1.977      3.983
REMARK  Name = 
REMARK  5 active torsions:
REMARK  status: ('A' for Active; 'I' for Inactive)
REMARK    1  A    between atoms: C_1  and  N_2
REMARK    2  A    between atoms: N_2  and  C_3
REMARK    3  A    between atoms: C_3  and  C_4
REMARK    4  A    between atoms: C_18  and  C_20
REMARK    5  A    between atoms: N_24  and  C_25
REMARK                            x       y       z     vdW  Elec       q    Type
REMARK                         _______ _______ _______ _____ _____    ______ ____
ROOT
ATOM      1  C   UNL     1       2.390   6.943  20.790  0.00  0.00    +0.000 C 
ATOM      2  N   UNL     1       1.964   7.698  19.613  0.00  0.00    +0.000 N 
ATOM      3  C   UNL     1       1.304   8.904  19.848  0.00  0.00    +0.000 C 
ATOM      4  O   UNL     1       1.095   9.294  21.000  0.00  0.00    +0.000 OA
ENDROOT
BRANCH   3   5
ATOM      5  C   UNL     1       0.823   9.730  18.659  0.00  0.00    +0.000 C 
ATOM      6  C   UNL     1       1.419  11.130  18.715  0.00  0.00    +0.000 C 
ATOM      7  C   UNL     1       0.363  11.946  19.416  0.00  0.00    +0.000 C 
ATOM      8  O   UNL     1       0.590  13.023  19.944  0.00  0.00    +0.000 OA
ATOM      9  N   UNL     1      -0.845  11.262  19.314  0.00  0.00    +0.000 N 
ATOM     10  C   UNL     1      -0.688   9.966  18.699  0.00  0.00    +0.000 C 
BRANCH   9  11
ATOM     11  C   UNL     1      -2.086  11.771  19.762  0.00  0.00    +0.000 A 
ATOM     12  C   UNL     1      -2.189  12.233  21.081  0.00  0.00    +0.000 A 
ATOM     13  C   UNL     1      -3.348  12.878  21.515  0.00  0.00    +0.000 A 
ATOM     14  C   UNL     1      -4.419  13.056  20.641  0.00  0.00    +0.000 A 
ATOM     15  C   UNL     1      -4.366  12.544  19.337  0.00  0.00    +0.000 A 
ATOM     16  C   UNL     1      -3.205  11.861  18.902  0.00  0.00    +0.000 A 
ATOM     17  C   UNL     1      -3.201  11.195  17.542  0.00  0.00    +0.000 C 
ATOM     18  C   UNL     1      -4.608  10.900  17.026  0.00  0.00    +0.000 C 
ATOM     19  C   UNL     1      -5.418  12.187  17.033  0.00  0.00    +0.000 C 
ATOM     20  C   UNL     1      -5.588  12.703  18.459  0.00  0.00    +0.000 C 
ENDBRANCH   9  11
ENDBRANCH   3   5
BRANCH   2  21
ATOM     21  C   UNL     1       2.272   7.115  18.304  0.00  0.00    +0.000 C 
BRANCH  21  22
ATOM     22  C   UNL     1       3.079   5.807  18.203  0.00  0.00    +0.000 A 
ATOM     23  C   UNL     1       2.529   4.488  18.427  0.00  0.00    +0.000 A 
ATOM     24  C   UNL     1       1.250   4.171  18.950  0.00  0.00    +0.000 A 
ATOM     25  C   UNL     1       0.715   2.881  18.962  0.00  0.00    +0.000 A 
ATOM     26  C   UNL     1       1.466   1.828  18.485  0.00  0.00    +0.000 A 
ATOM     27  C   UNL     1       2.777   2.065  18.097  0.00  0.00    +0.000 A 
ATOM     28  C   UNL     1       3.323   3.363  18.103  0.00  0.00    +0.000 A 
ATOM     29  C   UNL     1       4.671   3.522  17.785  0.00  0.00    +0.000 A 
ATOM     30  C   UNL     1       5.258   4.781  17.657  0.00  0.00    +0.000 A 
ATOM     31  C   UNL     1       6.633   4.868  17.375  0.00  0.00    +0.000 A 
ATOM     32  C   UNL     1       7.236   6.090  17.100  0.00  0.00    +0.000 A 
ATOM     33  C   UNL     1       6.454   7.233  17.070  0.00  0.00    +0.000 A 
ATOM     34  C   UNL     1       5.094   7.160  17.402  0.00  0.00    +0.000 A 
ATOM     35  C   UNL     1       4.455   5.938  17.760  0.00  0.00    +0.000 A 
ENDBRANCH  21  22
ENDBRANCH   2  21
TORSDOF 4
ENDMDL
MODEL 7
REMARK VINA RESULT:      -9.0      3.018      5.745
REMARK  Name = 
REMARK  5 active torsions:
REMARK  status: ('A' for Active; 'I' for Inactive)
REMARK    1  A    between atoms: C_1  and  N_2
REMARK    2  A    between atoms: N_2  and  C_3
REMARK    3  A    between atoms: C_3  and  C_4
REMARK    4  A    between atoms: C_18  and  C_20
REMARK    5  A    between atoms: N_24  and  C_25
REMARK                            x       y       z     vdW  Elec       q    Type
REMARK                         _______ _______ _______ _____ _____    ______ ____
ROOT
ATOM      1  C   UNL     1       1.556  13.068  18.502  0.00  0.00    +0.000 C 
ATOM      2  N   UNL     1       0.811  11.825  18.315  0.00  0.00    +0.000 N 
ATOM      3  C   UNL     1      -0.557  11.946  18.068  0.00  0.00    +0.000 C 
ATOM      4  O   UNL     1      -1.092  13.056  18.020  0.00  0.00    +0.000 OA
ENDROOT
BRANCH   3   5
ATOM      5  C   UNL     1      -1.390  10.683  17.879  0.00  0.00    +0.000 C 
ATOM      6  C   UNL     1      -2.154  10.748  16.563  0.00  0.00    +0.000 C 
ATOM      7  C   UNL     1      -3.500  11.303  16.952  0.00  0.00    +0.000 C 
ATOM      8  O   UNL     1      -4.272  11.811  16.154  0.00  0.00    +0.000 OA
ATOM      9  N   UNL     1      -3.669  11.100  18.319  0.00  0.00    +0.000 N 
ATOM     10  C   UNL     1      -2.485  10.554  18.939  0.00  0.00    +0.000 C 
BRANCH   9  11
ATOM     11  C   UNL     1      -4.857  11.395  19.026  0.00  0.00    +0.000 A 
ATOM     12  C   UNL     1      -6.038  10.728  18.668  0.00  0.00    +0.000 A 
ATOM     13  C   UNL     1      -7.194  10.879  19.436  0.00  0.00    +0.000 A 
ATOM     14  C   UNL     1      -7.186  11.705  20.558  0.00  0.00    +0.000 A 
ATOM     15  C   UNL     1      -6.037  12.432  20.899  0.00  0.00    +0.000 A 
ATOM     16  C   UNL     1      -4.872  12.308  20.105  0.00  0.00    +0.000 A 
ATOM     17  C   UNL     1      -3.678  13.193  20.395  0.00  0.00    +0.000 C 
ATOM     18  C   UNL     1      -4.055  14.457  21.166  0.00  0.00    +0.000 C 
ATOM     19  C   UNL     1      -4.798  14.063  22.432  0.00  0.00    +0.000 C 
ATOM     20  C   UNL     1      -6.113  13.369  22.084  0.00  0.00    +0.000 C 
ENDBRANCH   9  11
ENDBRANCH   3   5
BRANCH   2  21
ATOM     21  C   UNL     1       1.572  10.575  18.404  0.00  0.00    +0.000 C 
BRANCH  21  22
ATOM     22  C   UNL     1       1.348   9.609  19.582  0.00  0.00    +0.000 A 
ATOM     23  C   UNL     1       0.674   9.962  20.813  0.00  0.00    +0.000 A 
ATOM     24  C   UNL     1       0.281  11.257  21.233  0.00  0.00    +0.000 A 
ATOM     25  C   UNL     1      -0.531  11.500  22.342  0.00  0.00    +0.000 A 
ATOM     26  C   UNL     1      -0.956  10.443  23.119  0.00  0.00    +0.000 A 
ATOM     27  C   UNL     1      -0.479   9.172  22.834  0.00  0.00    +0.000 A 
ATOM     28  C   UNL     1       0.356   8.929  21.726  0.00  0.00    +0.000 A 
ATOM     29  C   UNL     1       0.870   7.646  21.544  0.00  0.00    +0.000 A 
ATOM     30  C   UNL     1       1.609   7.297  20.415  0.00  0.00    +0.000 A 
ATOM     31  C   UNL     1       2.133   5.996  20.315  0.00  0.00    +0.000 A 
ATOM     32  C   UNL     1       2.754   5.557  19.152  0.00  0.00    +0.000 A 
ATOM     33  C   UNL     1       2.822   6.410  18.063  0.00  0.00    +0.000 A 
ATOM     34  C   UNL     1       2.349   7.726  18.173  0.00  0.00    +0.000 A 
ATOM     35  C   UNL     1       1.772   8.236  19.371  0.00  0.00    +0.000 A 
ENDBRANCH  21  22
ENDBRANCH   2  21
TORSDOF 4
ENDMDL
MODEL 8
REMARK VINA RESULT:      -8.8      1.784      9.809
REMARK  Name = 
REMARK  5 active torsions:
REMARK  status: ('A' for Active; 'I' for Inactive)
REMARK    1  A    between atoms: C_1  and  N_2
REMARK    2  A    between atoms: N_2  and  C_3
REMARK    3  A    between atoms: C_3  and  C_4
REMARK    4  A    between atoms: C_18  and  C_20
REMARK    5  A    between atoms: N_24  and  C_25
REMARK                            x       y       z     vdW  Elec       q    Type
REMARK                         _______ _______ _______ _____ _____    ______ ____
ROOT
ATOM      1  C   UNL     1       1.684  13.022  20.125  0.00  0.00    +0.000 C 
ATOM      2  N   UNL     1       0.972  11.762  19.921  0.00  0.00    +0.000 N 
ATOM      3  C   UNL     1       1.411  10.959  18.868  0.00  0.00    +0.000 C 
ATOM      4  O   UNL     1       2.351  11.315  18.153  0.00  0.00    +0.000 OA
ENDROOT
BRANCH   3   5
ATOM      5  C   UNL     1       0.698   9.638  18.596  0.00  0.00    +0.000 C 
ATOM      6  C   UNL     1       0.659   8.791  19.862  0.00  0.00    +0.000 C 
ATOM      7  C   UNL     1       1.868   7.900  19.739  0.00  0.00    +0.000 C 
ATOM      8  O   UNL     1       2.370   7.318  20.688  0.00  0.00    +0.000 OA
ATOM      9  N   UNL     1       2.243   7.868  18.399  0.00  0.00    +0.000 N 
ATOM     10  C   UNL     1       1.459   8.771  17.592  0.00  0.00    +0.000 C 
BRANCH   9  11
ATOM     11  C   UNL     1       3.274   7.050  17.881  0.00  0.00    +0.000 A 
ATOM     12  C   UNL     1       4.457   7.658  17.436  0.00  0.00    +0.000 A 
ATOM     13  C   UNL     1       5.552   6.879  17.060  0.00  0.00    +0.000 A 
ATOM     14  C   UNL     1       5.473   5.489  17.113  0.00  0.00    +0.000 A 
ATOM     15  C   UNL     1       4.280   4.857  17.492  0.00  0.00    +0.000 A 
ATOM     16  C   UNL     1       3.157   5.642  17.843  0.00  0.00    +0.000 A 
ATOM     17  C   UNL     1       1.833   4.961  18.122  0.00  0.00    +0.000 C 
ATOM     18  C   UNL     1       1.741   3.573  17.494  0.00  0.00    +0.000 C 
ATOM     19  C   UNL     1       2.924   2.739  17.957  0.00  0.00    +0.000 C 
ATOM     20  C   UNL     1       4.233   3.346  17.457  0.00  0.00    +0.000 C 
ENDBRANCH   9  11
ENDBRANCH   3   5
BRANCH   2  21
ATOM     21  C   UNL     1      -0.130  11.465  20.841  0.00  0.00    +0.000 C 
BRANCH  21  22
ATOM     22  C   UNL     1      -1.470  12.215  20.719  0.00  0.00    +0.000 A 
ATOM     23  C   UNL     1      -2.460  11.959  19.695  0.00  0.00    +0.000 A 
ATOM     24  C   UNL     1      -2.310  11.145  18.544  0.00  0.00    +0.000 A 
ATOM     25  C   UNL     1      -3.366  10.793  17.701  0.00  0.00    +0.000 A 
ATOM     26  C   UNL     1      -4.629  11.286  17.949  0.00  0.00    +0.000 A 
ATOM     27  C   UNL     1      -4.798  12.202  18.978  0.00  0.00    +0.000 A 
ATOM     28  C   UNL     1      -3.729  12.571  19.817  0.00  0.00    +0.000 A 
ATOM     29  C   UNL     1      -3.943  13.561  20.776  0.00  0.00    +0.000 A 
ATOM     30  C   UNL     1      -2.973  13.901  21.718  0.00  0.00    +0.000 A 
ATOM     31  C   UNL     1      -3.240  14.937  22.630  0.00  0.00    +0.000 A 
ATOM     32  C   UNL     1      -2.367  15.221  23.675  0.00  0.00    +0.000 A 
ATOM     33  C   UNL     1      -1.235  14.441  23.833  0.00  0.00    +0.000 A 
ATOM     34  C   UNL     1      -0.935  13.441  22.896  0.00  0.00    +0.000 A 
ATOM     35  C   UNL     1      -1.766  13.168  21.772  0.00  0.00    +0.000 A 
ENDBRANCH  21  22
ENDBRANCH   2  21
TORSDOF 4
ENDMDL
MODEL 9
REMARK VINA RESULT:      -8.5      2.546      9.605
REMARK  Name = 
REMARK  5 active torsions:
REMARK  status: ('A' for Active; 'I' for Inactive)
REMARK    1  A    between atoms: C_1  and  N_2
REMARK    2  A    between atoms: N_2  and  C_3
REMARK    3  A    between atoms: C_3  and  C_4
REMARK    4  A    between atoms: C_18  and  C_20
REMARK    5  A    between atoms: N_24  and  C_25
REMARK                            x       y       z     vdW  Elec       q    Type
REMARK                         _______ _______ _______ _____ _____    ______ ____
ROOT
ATOM      1  C   UNL     1       0.127  14.202  19.924  0.00  0.00    +0.000 C 
ATOM      2  N   UNL     1      -0.530  12.901  20.038  0.00  0.00    +0.000 N 
ATOM      3  C   UNL     1       0.158  11.913  20.744  0.00  0.00    +0.000 C 
ATOM      4  O   UNL     1       1.266  12.144  21.233  0.00  0.00    +0.000 OA
ENDROOT
BRANCH   3   5
ATOM      5  C   UNL     1      -0.471  10.530  20.885  0.00  0.00    +0.000 C 
ATOM      6  C   UNL     1       0.074   9.829  22.122  0.00  0.00    +0.000 C 
ATOM      7  C   UNL     1       1.219   9.002  21.595  0.00  0.00    +0.000 C 
ATOM      8  O   UNL     1       2.109   8.560  22.305  0.00  0.00    +0.000 OA
ATOM      9  N   UNL     1       1.039   8.844  20.224  0.00  0.00    +0.000 N 
ATOM     10  C   UNL     1      -0.085   9.604  19.731  0.00  0.00    +0.000 C 
BRANCH   9  11
ATOM     11  C   UNL     1       1.859   8.037  19.402  0.00  0.00    +0.000 A 
ATOM     12  C   UNL     1       2.472   8.619  18.284  0.00  0.00    +0.000 A 
ATOM     13  C   UNL     1       3.405   7.897  17.536  0.00  0.00    +0.000 A 
ATOM     14  C   UNL     1       3.723   6.587  17.889  0.00  0.00    +0.000 A 
ATOM     15  C   UNL     1       3.074   5.962  18.963  0.00  0.00    +0.000 A 
ATOM     16  C   UNL     1       2.105   6.678  19.705  0.00  0.00    +0.000 A 
ATOM     17  C   UNL     1       1.311   5.961  20.776  0.00  0.00    +0.000 C 
ATOM     18  C   UNL     1       1.286   4.447  20.578  0.00  0.00    +0.000 C 
ATOM     19  C   UNL     1       2.714   3.936  20.482  0.00  0.00    +0.000 C 
ATOM     20  C   UNL     1       3.408   4.515  19.251  0.00  0.00    +0.000 C 
ENDBRANCH   9  11
ENDBRANCH   3   5
BRANCH   2  21
ATOM     21  C   UNL     1      -1.844  12.763  19.404  0.00  0.00    +0.000 C 
BRANCH  21  22
ATOM     22  C   UNL     1      -3.121  12.704  20.262  0.00  0.00    +0.000 A 
ATOM     23  C   UNL     1      -3.209  13.164  21.631  0.00  0.00    +0.000 A 
ATOM     24  C   UNL     1      -2.139  13.559  22.472  0.00  0.00    +0.000 A 
ATOM     25  C   UNL     1      -2.313  14.171  23.715  0.00  0.00    +0.000 A 
ATOM     26  C   UNL     1      -3.587  14.376  24.199  0.00  0.00    +0.000 A 
ATOM     27  C   UNL     1      -4.664  13.876  23.480  0.00  0.00    +0.000 A 
ATOM     28  C   UNL     1      -4.486  13.243  22.235  0.00  0.00    +0.000 A 
ATOM     29  C   UNL     1      -5.598  12.686  21.603  0.00  0.00    +0.000 A 
ATOM     30  C   UNL     1      -5.527  12.144  20.321  0.00  0.00    +0.000 A 
ATOM     31  C   UNL     1      -6.677  11.562  19.760  0.00  0.00    +0.000 A 
ATOM     32  C   UNL     1      -6.698  11.135  18.437  0.00  0.00    +0.000 A 
ATOM     33  C   UNL     1      -5.571  11.323  17.654  0.00  0.00    +0.000 A 
ATOM     34  C   UNL     1      -4.404  11.854  18.221  0.00  0.00    +0.000 A 
ATOM     35  C   UNL     1      -4.320  12.236  19.591  0.00  0.00    +0.000 A 
ENDBRANCH  21  22
ENDBRANCH   2  21
TORSDOF 4
ENDMDL
