MODEL 1
REMARK VINA RESULT:      -8.0      0.000      0.000
REMARK  Name = 
REMARK  2 active torsions:
REMARK  status: ('A' for Active; 'I' for Inactive)
REMARK    1  A    between atoms: C_5  and  C_6
REMARK    2  A    between atoms: C_9  and  C_10
REMARK                            x       y       z     vdW  Elec       q    Type
REMARK                         _______ _______ _______ _____ _____    ______ ____
ROOT
ATOM      1  C   UNL     1       6.540   4.460  15.924  0.00  0.00    +0.000 A 
ATOM      2  N   UNL     1       7.405   4.441  16.914  0.00  0.00    +0.000 NA
ATOM      3  N   UNL     1       6.668   4.553  18.076  0.00  0.00    +0.000 NA
ATOM      4  C   UNL     1       5.397   4.617  17.720  0.00  0.00    +0.000 A 
ATOM      5  O   UNL     1       5.246   4.543  16.358  0.00  0.00    +0.000 OA
ENDROOT
BRANCH   4   6
ATOM      6  C   UNL     1       4.259   4.774  18.663  0.00  0.00    +0.000 A 
ATOM      7  C   UNL     1       4.154   5.770  19.609  0.00  0.00    +0.000 A 
ATOM      8  N   UNL     1       2.960   5.602  20.259  0.00  0.00    +0.000 N 
ATOM      9  C   UNL     1       2.310   4.487  19.778  0.00  0.00    +0.000 A 
ATOM     10  C   UNL     1       1.091   3.917  20.166  0.00  0.00    +0.000 A 
ATOM     11  C   UNL     1       0.686   2.745  19.520  0.00  0.00    +0.000 A 
ATOM     12  C   UNL     1       1.460   2.178  18.510  0.00  0.00    +0.000 A 
ATOM     13  C   UNL     1       2.662   2.775  18.116  0.00  0.00    +0.000 A 
ATOM     14  C   UNL     1       3.106   3.946  18.766  0.00  0.00    +0.000 A 
ATOM     15  H   UNL     1       2.612   6.194  21.001  0.00  0.00    +0.000 HD
ENDBRANCH   4   6
BRANCH   1  20
ATOM     16  C   UNL     1       7.868   5.247  12.486  0.00  0.00    +0.000 A 
ATOM     17  C   UNL     1       7.153   4.302  11.772  0.00  0.00    +0.000 A 
ATOM     18  N   UNL     1       6.254   3.464  12.333  0.00  0.00    +0.000 NA
ATOM     19  C   UNL     1       6.077   3.566  13.674  0.00  0.00    +0.000 A 
ATOM     20  C   UNL     1       6.752   4.470  14.488  0.00  0.00    +0.000 A 
ATOM     21  C   UNL     1       7.659   5.335  13.862  0.00  0.00    +0.000 A 
ENDBRANCH   1  20
TORSDOF 2
ENDMDL
MODEL 2
REMARK VINA RESULT:      -8.0      4.245      7.946
REMARK  Name = 
REMARK  2 active torsions:
REMARK  status: ('A' for Active; 'I' for Inactive)
REMARK    1  A    between atoms: C_5  and  C_6
REMARK    2  A    between atoms: C_9  and  C_10
REMARK                            x       y       z     vdW  Elec       q    Type
REMARK                         _______ _______ _______ _____ _____    ______ ____
ROOT
ATOM      1  C   UNL     1       1.321   9.151  19.425  0.00  0.00    +0.000 A 
ATOM      2  N   UNL     1       1.539   9.771  18.286  0.00  0.00    +0.000 NA
ATOM      3  N   UNL     1       2.330   8.927  17.530  0.00  0.00    +0.000 NA
ATOM      4  C   UNL     1       2.528   7.838  18.251  0.00  0.00    +0.000 A 
ATOM      5  O   UNL     1       1.893   7.910  19.466  0.00  0.00    +0.000 OA
ENDROOT
BRANCH   4   6
ATOM      6  C   UNL     1       3.354   6.678  17.826  0.00  0.00    +0.000 A 
ATOM      7  C   UNL     1       4.626   6.768  17.303  0.00  0.00    +0.000 A 
ATOM      8  N   UNL     1       5.068   5.493  17.064  0.00  0.00    +0.000 N 
ATOM      9  C   UNL     1       4.087   4.581  17.385  0.00  0.00    +0.000 A 
ATOM     10  C   UNL     1       4.082   3.186  17.272  0.00  0.00    +0.000 A 
ATOM     11  C   UNL     1       2.917   2.507  17.642  0.00  0.00    +0.000 A 
ATOM     12  C   UNL     1       1.809   3.196  18.128  0.00  0.00    +0.000 A 
ATOM     13  C   UNL     1       1.839   4.589  18.260  0.00  0.00    +0.000 A 
ATOM     14  C   UNL     1       2.994   5.301  17.872  0.00  0.00    +0.000 A 
ATOM     15  H   UNL     1       5.974   5.252  16.686  0.00  0.00    +0.000 HD
ENDBRANCH   4   6
BRANCH   1  20
ATOM     16  C   UNL     1      -0.561   9.204  22.688  0.00  0.00    +0.000 A 
ATOM     17  C   UNL     1      -0.510  10.565  22.929  0.00  0.00    +0.000 A 
ATOM     18  N   UNL     1       0.063  11.453  22.086  0.00  0.00    +0.000 NA
ATOM     19  C   UNL     1       0.624  10.950  20.958  0.00  0.00    +0.000 A 
ATOM     20  C   UNL     1       0.640   9.599  20.624  0.00  0.00    +0.000 A 
ATOM     21  C   UNL     1       0.016   8.716  21.517  0.00  0.00    +0.000 A 
ENDBRANCH   1  20
TORSDOF 2
ENDMDL
MODEL 3
REMARK VINA RESULT:      -8.0      2.637      3.699
REMARK  Name = 
REMARK  2 active torsions:
REMARK  status: ('A' for Active; 'I' for Inactive)
REMARK    1  A    between atoms: C_5  and  C_6
REMARK    2  A    between atoms: C_9  and  C_10
REMARK                            x       y       z     vdW  Elec       q    Type
REMARK                         _______ _______ _______ _____ _____    ______ ____
ROOT
ATOM      1  C   UNL     1       4.645   4.396  16.620  0.00  0.00    +0.000 A 
ATOM      2  N   UNL     1       4.140   3.338  17.216  0.00  0.00    +0.000 NA
ATOM      3  N   UNL     1       3.336   3.813  18.234  0.00  0.00    +0.000 NA
ATOM      4  C   UNL     1       3.388   5.132  18.181  0.00  0.00    +0.000 A 
ATOM      5  O   UNL     1       4.194   5.568  17.158  0.00  0.00    +0.000 OA
ENDROOT
BRANCH   4   6
ATOM      6  C   UNL     1       2.689   6.047  19.121  0.00  0.00    +0.000 A 
ATOM      7  C   UNL     1       2.307   5.716  20.402  0.00  0.00    +0.000 A 
ATOM      8  N   UNL     1       1.723   6.823  20.961  0.00  0.00    +0.000 N 
ATOM      9  C   UNL     1       1.683   7.852  20.046  0.00  0.00    +0.000 A 
ATOM     10  C   UNL     1       1.151   9.141  20.164  0.00  0.00    +0.000 A 
ATOM     11  C   UNL     1       1.217   9.977  19.044  0.00  0.00    +0.000 A 
ATOM     12  C   UNL     1       1.812   9.546  17.861  0.00  0.00    +0.000 A 
ATOM     13  C   UNL     1       2.362   8.263  17.768  0.00  0.00    +0.000 A 
ATOM     14  C   UNL     1       2.290   7.391  18.875  0.00  0.00    +0.000 A 
ATOM     15  H   UNL     1       1.353   6.875  21.900  0.00  0.00    +0.000 HD
ENDBRANCH   4   6
BRANCH   1  20
ATOM     16  C   UNL     1       6.399   4.073  13.301  0.00  0.00    +0.000 A 
ATOM     17  C   UNL     1       7.496   4.871  13.573  0.00  0.00    +0.000 A 
ATOM     18  N   UNL     1       7.708   5.468  14.766  0.00  0.00    +0.000 NA
ATOM     19  C   UNL     1       6.769   5.269  15.725  0.00  0.00    +0.000 A 
ATOM     20  C   UNL     1       5.624   4.497  15.554  0.00  0.00    +0.000 A 
ATOM     21  C   UNL     1       5.454   3.880  14.308  0.00  0.00    +0.000 A 
ENDBRANCH   1  20
TORSDOF 2
ENDMDL
MODEL 4
REMARK VINA RESULT:      -7.9      1.488      2.196
REMARK  Name = 
REMARK  2 active torsions:
REMARK  status: ('A' for Active; 'I' for Inactive)
REMARK    1  A    between atoms: C_5  and  C_6
REMARK    2  A    between atoms: C_9  and  C_10
REMARK                            x       y       z     vdW  Elec       q    Type
REMARK                         _______ _______ _______ _____ _____    ______ ____
ROOT
ATOM      1  C   UNL     1       6.746   4.368  16.110  0.00  0.00    +0.000 A 
ATOM      2  N   UNL     1       7.577   4.728  17.063  0.00  0.00    +0.000 NA
ATOM      3  N   UNL     1       6.887   4.595  18.251  0.00  0.00    +0.000 NA
ATOM      4  C   UNL     1       5.683   4.144  17.947  0.00  0.00    +0.000 A 
ATOM      5  O   UNL     1       5.535   3.960  16.595  0.00  0.00    +0.000 OA
ENDROOT
BRANCH   4   6
ATOM      6  C   UNL     1       4.599   3.888  18.932  0.00  0.00    +0.000 A 
ATOM      7  C   UNL     1       4.359   2.674  19.538  0.00  0.00    +0.000 A 
ATOM      8  N   UNL     1       3.305   2.841  20.398  0.00  0.00    +0.000 N 
ATOM      9  C   UNL     1       2.832   4.132  20.327  0.00  0.00    +0.000 A 
ATOM     10  C   UNL     1       1.759   4.737  20.992  0.00  0.00    +0.000 A 
ATOM     11  C   UNL     1       1.478   6.074  20.693  0.00  0.00    +0.000 A 
ATOM     12  C   UNL     1       2.255   6.784  19.781  0.00  0.00    +0.000 A 
ATOM     13  C   UNL     1       3.341   6.173  19.144  0.00  0.00    +0.000 A 
ATOM     14  C   UNL     1       3.633   4.818  19.410  0.00  0.00    +0.000 A 
ATOM     15  H   UNL     1       2.913   2.117  20.986  0.00  0.00    +0.000 HD
ENDBRANCH   4   6
BRANCH   1  20
ATOM     16  C   UNL     1       6.328   3.670  12.431  0.00  0.00    +0.000 A 
ATOM     17  C   UNL     1       7.183   4.641  11.942  0.00  0.00    +0.000 A 
ATOM     18  N   UNL     1       7.901   5.471  12.730  0.00  0.00    +0.000 NA
ATOM     19  C   UNL     1       7.740   5.331  14.071  0.00  0.00    +0.000 A 
ATOM     20  C   UNL     1       6.898   4.398  14.667  0.00  0.00    +0.000 A 
ATOM     21  C   UNL     1       6.189   3.544  13.812  0.00  0.00    +0.000 A 
ENDBRANCH   1  20
TORSDOF 2
ENDMDL
MODEL 5
REMARK VINA RESULT:      -7.8      0.998      1.354
REMARK  Name = 
REMARK  2 active torsions:
REMARK  status: ('A' for Active; 'I' for Inactive)
REMARK    1  A    between atoms: C_5  and  C_6
REMARK    2  A    between atoms: C_9  and  C_10
REMARK                            x       y       z     vdW  Elec       q    Type
REMARK                         _______ _______ _______ _____ _____    ______ ____
ROOT
ATOM      1  C   UNL     1       6.067   5.279  15.750  0.00  0.00    +0.000 A 
ATOM      2  N   UNL     1       6.681   6.188  16.476  0.00  0.00    +0.000 NA
ATOM      3  N   UNL     1       5.901   6.377  17.600  0.00  0.00    +0.000 NA
ATOM      4  C   UNL     1       4.871   5.557  17.496  0.00  0.00    +0.000 A 
ATOM      5  O   UNL     1       4.928   4.813  16.344  0.00  0.00    +0.000 OA
ENDROOT
BRANCH   4   6
ATOM      6  C   UNL     1       3.762   5.458  18.481  0.00  0.00    +0.000 A 
ATOM      7  C   UNL     1       3.472   6.407  19.437  0.00  0.00    +0.000 A 
ATOM      8  N   UNL     1       2.371   5.976  20.130  0.00  0.00    +0.000 N 
ATOM      9  C   UNL     1       1.970   4.743  19.666  0.00  0.00    +0.000 A 
ATOM     10  C   UNL     1       0.926   3.915  20.095  0.00  0.00    +0.000 A 
ATOM     11  C   UNL     1       0.770   2.681  19.457  0.00  0.00    +0.000 A 
ATOM     12  C   UNL     1       1.612   2.300  18.415  0.00  0.00    +0.000 A 
ATOM     13  C   UNL     1       2.635   3.150  17.981  0.00  0.00    +0.000 A 
ATOM     14  C   UNL     1       2.829   4.392  18.622  0.00  0.00    +0.000 A 
ATOM     15  H   UNL     1       1.928   6.477  20.888  0.00  0.00    +0.000 HD
ENDBRANCH   4   6
BRANCH   1  20
ATOM     16  C   UNL     1       5.915   3.372  12.503  0.00  0.00    +0.000 A 
ATOM     17  C   UNL     1       6.999   3.958  11.874  0.00  0.00    +0.000 A 
ATOM     18  N   UNL     1       7.782   4.895  12.451  0.00  0.00    +0.000 NA
ATOM     19  C   UNL     1       7.452   5.276  13.711  0.00  0.00    +0.000 A 
ATOM     20  C   UNL     1       6.377   4.762  14.430  0.00  0.00    +0.000 A 
ATOM     21  C   UNL     1       5.604   3.777  13.801  0.00  0.00    +0.000 A 
ENDBRANCH   1  20
TORSDOF 2
ENDMDL
MODEL 6
REMARK VINA RESULT:      -7.8      1.308      1.569
REMARK  Name = 
REMARK  2 active torsions:
REMARK  status: ('A' for Active; 'I' for Inactive)
REMARK    1  A    between atoms: C_5  and  C_6
REMARK    2  A    between atoms: C_9  and  C_10
REMARK                            x       y       z     vdW  Elec       q    Type
REMARK                         _______ _______ _______ _____ _____    ______ ____
ROOT
ATOM      1  C   UNL     1       6.641   4.538  16.032  0.00  0.00    +0.000 A 
ATOM      2  N   UNL     1       7.505   4.491  17.022  0.00  0.00    +0.000 NA
ATOM      3  N   UNL     1       6.779   4.690  18.180  0.00  0.00    +0.000 NA
ATOM      4  C   UNL     1       5.515   4.828  17.822  0.00  0.00    +0.000 A 
ATOM      5  O   UNL     1       5.357   4.721  16.462  0.00  0.00    +0.000 OA
ENDROOT
BRANCH   4   6
ATOM      6  C   UNL     1       4.392   5.092  18.759  0.00  0.00    +0.000 A 
ATOM      7  C   UNL     1       3.776   6.313  18.925  0.00  0.00    +0.000 A 
ATOM      8  N   UNL     1       2.774   6.153  19.845  0.00  0.00    +0.000 N 
ATOM      9  C   UNL     1       2.758   4.856  20.309  0.00  0.00    +0.000 A 
ATOM     10  C   UNL     1       1.939   4.254  21.271  0.00  0.00    +0.000 A 
ATOM     11  C   UNL     1       2.174   2.909  21.577  0.00  0.00    +0.000 A 
ATOM     12  C   UNL     1       3.176   2.191  20.928  0.00  0.00    +0.000 A 
ATOM     13  C   UNL     1       3.968   2.800  19.950  0.00  0.00    +0.000 A 
ATOM     14  C   UNL     1       3.767   4.161  19.638  0.00  0.00    +0.000 A 
ATOM     15  H   UNL     1       2.148   6.882  20.158  0.00  0.00    +0.000 HD
ENDBRANCH   4   6
BRANCH   1  20
ATOM     16  C   UNL     1       6.354   3.654  12.380  0.00  0.00    +0.000 A 
ATOM     17  C   UNL     1       7.250   4.579  11.877  0.00  0.00    +0.000 A 
ATOM     18  N   UNL     1       7.955   5.435  12.650  0.00  0.00    +0.000 NA
ATOM     19  C   UNL     1       7.738   5.370  13.988  0.00  0.00    +0.000 A 
ATOM     20  C   UNL     1       6.852   4.488  14.597  0.00  0.00    +0.000 A 
ATOM     21  C   UNL     1       6.157   3.605  13.760  0.00  0.00    +0.000 A 
ENDBRANCH   1  20
TORSDOF 2
ENDMDL
MODEL 7
REMARK VINA RESULT:      -7.8      1.406      2.206
REMARK  Name = 
REMARK  2 active torsions:
REMARK  status: ('A' for Active; 'I' for Inactive)
REMARK    1  A    between atoms: C_5  and  C_6
REMARK    2  A    between atoms: C_9  and  C_10
REMARK                            x       y       z     vdW  Elec       q    Type
REMARK                         _______ _______ _______ _____ _____    ______ ____
ROOT
ATOM      1  C   UNL     1       6.302   4.244  15.784  0.00  0.00    +0.000 A 
ATOM      2  N   UNL     1       6.807   4.751  16.887  0.00  0.00    +0.000 NA
ATOM      3  N   UNL     1       5.956   4.381  17.910  0.00  0.00    +0.000 NA
ATOM      4  C   UNL     1       4.995   3.656  17.366  0.00  0.00    +0.000 A 
ATOM      5  O   UNL     1       5.169   3.515  16.012  0.00  0.00    +0.000 OA
ENDROOT
BRANCH   4   6
ATOM      6  C   UNL     1       3.845   3.078  18.109  0.00  0.00    +0.000 A 
ATOM      7  C   UNL     1       3.433   1.766  18.024  0.00  0.00    +0.000 A 
ATOM      8  N   UNL     1       2.369   1.608  18.872  0.00  0.00    +0.000 N 
ATOM      9  C   UNL     1       2.058   2.808  19.474  0.00  0.00    +0.000 A 
ATOM     10  C   UNL     1       1.036   3.125  20.376  0.00  0.00    +0.000 A 
ATOM     11  C   UNL     1       0.932   4.453  20.801  0.00  0.00    +0.000 A 
ATOM     12  C   UNL     1       1.830   5.421  20.356  0.00  0.00    +0.000 A 
ATOM     13  C   UNL     1       2.862   5.082  19.475  0.00  0.00    +0.000 A 
ATOM     14  C   UNL     1       2.977   3.754  19.013  0.00  0.00    +0.000 A 
ATOM     15  H   UNL     1       1.866   0.744  19.022  0.00  0.00    +0.000 HD
ENDBRANCH   4   6
BRANCH   1  20
ATOM     16  C   UNL     1       6.587   3.851  12.048  0.00  0.00    +0.000 A 
ATOM     17  C   UNL     1       7.507   4.856  11.808  0.00  0.00    +0.000 A 
ATOM     18  N   UNL     1       8.055   5.616  12.782  0.00  0.00    +0.000 NA
ATOM     19  C   UNL     1       7.648   5.368  14.052  0.00  0.00    +0.000 A 
ATOM     20  C   UNL     1       6.721   4.392  14.403  0.00  0.00    +0.000 A 
ATOM     21  C   UNL     1       6.194   3.613  13.364  0.00  0.00    +0.000 A 
ENDBRANCH   1  20
TORSDOF 2
ENDMDL
MODEL 8
REMARK VINA RESULT:      -7.8      1.338      1.913
REMARK  Name = 
REMARK  2 active torsions:
REMARK  status: ('A' for Active; 'I' for Inactive)
REMARK    1  A    between atoms: C_5  and  C_6
REMARK    2  A    between atoms: C_9  and  C_10
REMARK                            x       y       z     vdW  Elec       q    Type
REMARK                         _______ _______ _______ _____ _____    ______ ____
ROOT
ATOM      1  C   UNL     1       6.712   4.378  16.007  0.00  0.00    +0.000 A 
ATOM      2  N   UNL     1       7.571   4.704  16.948  0.00  0.00    +0.000 NA
ATOM      3  N   UNL     1       6.903   4.561  18.148  0.00  0.00    +0.000 NA
ATOM      4  C   UNL     1       5.685   4.140  17.863  0.00  0.00    +0.000 A 
ATOM      5  O   UNL     1       5.505   3.984  16.511  0.00  0.00    +0.000 OA
ENDROOT
BRANCH   4   6
ATOM      6  C   UNL     1       4.618   3.885  18.866  0.00  0.00    +0.000 A 
ATOM      7  C   UNL     1       4.384   2.671  19.474  0.00  0.00    +0.000 A 
ATOM      8  N   UNL     1       3.346   2.840  20.353  0.00  0.00    +0.000 N 
ATOM      9  C   UNL     1       2.877   4.133  20.292  0.00  0.00    +0.000 A 
ATOM     10  C   UNL     1       1.818   4.740  20.978  0.00  0.00    +0.000 A 
ATOM     11  C   UNL     1       1.537   6.079  20.687  0.00  0.00    +0.000 A 
ATOM     12  C   UNL     1       2.301   6.788  19.763  0.00  0.00    +0.000 A 
ATOM     13  C   UNL     1       3.372   6.175  19.106  0.00  0.00    +0.000 A 
ATOM     14  C   UNL     1       3.664   4.818  19.363  0.00  0.00    +0.000 A 
ATOM     15  H   UNL     1       2.962   2.117  20.946  0.00  0.00    +0.000 HD
ENDBRANCH   4   6
BRANCH   1  20
ATOM     16  C   UNL     1       7.834   5.261  12.520  0.00  0.00    +0.000 A 
ATOM     17  C   UNL     1       7.060   4.351  11.822  0.00  0.00    +0.000 A 
ATOM     18  N   UNL     1       6.185   3.507  12.410  0.00  0.00    +0.000 NA
ATOM     19  C   UNL     1       6.094   3.567  13.763  0.00  0.00    +0.000 A 
ATOM     20  C   UNL     1       6.834   4.433  14.562  0.00  0.00    +0.000 A 
ATOM     21  C   UNL     1       7.714   5.306  13.908  0.00  0.00    +0.000 A 
ENDBRANCH   1  20
TORSDOF 2
ENDMDL
MODEL 9
REMARK VINA RESULT:      -7.7      3.878      5.147
REMARK  Name = 
REMARK  2 active torsions:
REMARK  status: ('A' for Active; 'I' for Inactive)
REMARK    1  A    between atoms: C_5  and  C_6
REMARK    2  A    between atoms: C_9  and  C_10
REMARK                            x       y       z     vdW  Elec       q    Type
REMARK                         _______ _______ _______ _____ _____    ______ ____
ROOT
ATOM      1  C   UNL     1       4.101   5.948  17.886  0.00  0.00    +0.000 A 
ATOM      2  N   UNL     1       3.697   5.461  19.038  0.00  0.00    +0.000 NA
ATOM      3  N   UNL     1       2.787   6.368  19.545  0.00  0.00    +0.000 NA
ATOM      4  C   UNL     1       2.681   7.342  18.660  0.00  0.00    +0.000 A 
ATOM      5  O   UNL     1       3.482   7.124  17.566  0.00  0.00    +0.000 OA
ENDROOT
BRANCH   4   6
ATOM      6  C   UNL     1       1.826   8.547  18.821  0.00  0.00    +0.000 A 
ATOM      7  C   UNL     1       1.565   9.465  17.828  0.00  0.00    +0.000 A 
ATOM      8  N   UNL     1       0.719  10.410  18.347  0.00  0.00    +0.000 N 
ATOM      9  C   UNL     1       0.461  10.140  19.673  0.00  0.00    +0.000 A 
ATOM     10  C   UNL     1      -0.312  10.847  20.602  0.00  0.00    +0.000 A 
ATOM     11  C   UNL     1      -0.367  10.355  21.910  0.00  0.00    +0.000 A 
ATOM     12  C   UNL     1       0.307   9.191  22.268  0.00  0.00    +0.000 A 
ATOM     13  C   UNL     1       1.054   8.482  21.322  0.00  0.00    +0.000 A 
ATOM     14  C   UNL     1       1.145   8.967  20.000  0.00  0.00    +0.000 A 
ATOM     15  H   UNL     1       0.351  11.204  17.841  0.00  0.00    +0.000 HD
ENDBRANCH   4   6
BRANCH   1  20
ATOM     16  C   UNL     1       5.936   3.953  15.269  0.00  0.00    +0.000 A 
ATOM     17  C   UNL     1       7.068   4.741  15.170  0.00  0.00    +0.000 A 
ATOM     18  N   UNL     1       7.277   5.846  15.919  0.00  0.00    +0.000 NA
ATOM     19  C   UNL     1       6.299   6.184  16.796  0.00  0.00    +0.000 A 
ATOM     20  C   UNL     1       5.117   5.471  16.967  0.00  0.00    +0.000 A 
ATOM     21  C   UNL     1       4.950   4.320  16.184  0.00  0.00    +0.000 A 
ENDBRANCH   1  20
TORSDOF 2
ENDMDL
