MODEL 1
REMARK VINA RESULT:      -6.7      0.000      0.000
REMARK  Name = 
REMARK  2 active torsions:
REMARK  status: ('A' for Active; 'I' for Inactive)
REMARK    1  A    between atoms: C_10  and  C_11
REMARK    2  A    between atoms: C_18  and  O_19
REMARK                            x       y       z     vdW  Elec       q    Type
REMARK                         _______ _______ _______ _____ _____    ______ ____
ROOT
ATOM      1  N   UNL     1      -5.606  12.579  22.058  0.00  0.00    +0.000 N 
ATOM      2  C   UNL     1      -6.163  12.378  20.860  0.00  0.00    +0.000 A 
ATOM      3  N   UNL     1      -7.468  12.359  20.581  0.00  0.00    +0.000 NA
ATOM      4  N   UNL     1      -7.517  12.061  19.256  0.00  0.00    +0.000 N 
ATOM      5  C   UNL     1      -6.277  11.890  18.702  0.00  0.00    +0.000 A 
ATOM      6  N   UNL     1      -5.983  11.547  17.419  0.00  0.00    +0.000 NA
ATOM      7  C   UNL     1      -4.696  11.410  17.257  0.00  0.00    +0.000 A 
ATOM      8  S   UNL     1      -3.942  10.943  15.739  0.00  0.00    +0.000 S 
ATOM      9  C   UNL     1      -2.356  10.985  16.468  0.00  0.00    +0.000 A 
ATOM     10  C   UNL     1      -2.406  11.340  17.760  0.00  0.00    +0.000 A 
ATOM     11  N   UNL     1      -3.691  11.607  18.215  0.00  0.00    +0.000 N 
ATOM     12  C   UNL     1      -3.994  12.088  19.485  0.00  0.00    +0.000 A 
ATOM     13  O   UNL     1      -3.199  12.494  20.327  0.00  0.00    +0.000 OA
ATOM     14  C   UNL     1      -5.402  12.138  19.717  0.00  0.00    +0.000 A 
ATOM     15  H   UNL     1      -6.152  12.962  22.817  0.00  0.00    +0.000 HD
ATOM     16  H   UNL     1      -4.600  12.733  22.127  0.00  0.00    +0.000 HD
ATOM     17  H   UNL     1      -8.422  11.989  18.805  0.00  0.00    +0.000 HD
ENDROOT
BRANCH  10  18
ATOM     18  C   UNL     1      -1.243  11.409  18.657  0.00  0.00    +0.000 A 
ATOM     19  C   UNL     1      -0.854  10.265  19.371  0.00  0.00    +0.000 A 
ATOM     20  C   UNL     1       0.353  10.256  20.073  0.00  0.00    +0.000 A 
ATOM     21 CL   UNL     1       0.830   8.836  20.920  0.00  0.00    +0.000 Cl
ATOM     22  C   UNL     1       1.191  11.371  20.076  0.00  0.00    +0.000 A 
ATOM     23  C   UNL     1       0.805  12.517  19.382  0.00  0.00    +0.000 A 
ATOM     24  I   UNL     1       2.113  14.148  19.348  0.00  0.00    +0.000 I 
ATOM     25  C   UNL     1      -0.411  12.543  18.687  0.00  0.00    +0.000 A 
BRANCH  25  26
ATOM     26  O   UNL     1      -0.799  13.652  17.977  0.00  0.00    +0.000 OA
ATOM     27  H   UNL     1      -1.363  14.193  18.562  0.00  0.00    +0.000 HD
ENDBRANCH  25  26
ENDBRANCH  10  18
TORSDOF 2
ENDMDL
MODEL 2
REMARK VINA RESULT:      -6.4      7.043      8.802
REMARK  Name = 
REMARK  2 active torsions:
REMARK  status: ('A' for Active; 'I' for Inactive)
REMARK    1  A    between atoms: C_10  and  C_11
REMARK    2  A    between atoms: C_18  and  O_19
REMARK                            x       y       z     vdW  Elec       q    Type
REMARK                         _______ _______ _______ _____ _____    ______ ____
ROOT
ATOM      1  N   UNL     1       1.802  10.719  18.103  0.00  0.00    +0.000 N 
ATOM      2  C   UNL     1       1.229   9.967  19.047  0.00  0.00    +0.000 A 
ATOM      3  N   UNL     1       0.265  10.343  19.890  0.00  0.00    +0.000 NA
ATOM      4  N   UNL     1       0.074   9.254  20.679  0.00  0.00    +0.000 N 
ATOM      5  C   UNL     1       0.895   8.209  20.353  0.00  0.00    +0.000 A 
ATOM      6  N   UNL     1       0.983   6.999  20.970  0.00  0.00    +0.000 NA
ATOM      7  C   UNL     1       1.920   6.269  20.432  0.00  0.00    +0.000 A 
ATOM      8  S   UNL     1       2.345   4.654  20.984  0.00  0.00    +0.000 S 
ATOM      9  C   UNL     1       3.608   4.534  19.785  0.00  0.00    +0.000 A 
ATOM     10  C   UNL     1       3.684   5.634  19.022  0.00  0.00    +0.000 A 
ATOM     11  N   UNL     1       2.740   6.601  19.344  0.00  0.00    +0.000 N 
ATOM     12  C   UNL     1       2.551   7.784  18.637  0.00  0.00    +0.000 A 
ATOM     13  O   UNL     1       3.054   8.087  17.560  0.00  0.00    +0.000 OA
ATOM     14  C   UNL     1       1.608   8.645  19.275  0.00  0.00    +0.000 A 
ATOM     15  H   UNL     1       1.373  11.587  17.811  0.00  0.00    +0.000 HD
ATOM     16  H   UNL     1       2.412  10.284  17.412  0.00  0.00    +0.000 HD
ATOM     17  H   UNL     1      -0.624   9.298  21.413  0.00  0.00    +0.000 HD
ENDROOT
BRANCH  10  18
ATOM     18  C   UNL     1       4.683   5.856  17.966  0.00  0.00    +0.000 A 
ATOM     19  C   UNL     1       5.740   6.750  18.194  0.00  0.00    +0.000 A 
ATOM     20  C   UNL     1       6.798   6.827  17.286  0.00  0.00    +0.000 A 
ATOM     21 CL   UNL     1       8.102   7.908  17.593  0.00  0.00    +0.000 Cl
ATOM     22  C   UNL     1       6.828   6.024  16.147  0.00  0.00    +0.000 A 
ATOM     23  C   UNL     1       5.774   5.143  15.904  0.00  0.00    +0.000 A 
ATOM     24  I   UNL     1       5.879   3.901  14.225  0.00  0.00    +0.000 I 
ATOM     25  C   UNL     1       4.699   5.068  16.801  0.00  0.00    +0.000 A 
BRANCH  25  26
ATOM     26  O   UNL     1       3.664   4.192  16.595  0.00  0.00    +0.000 OA
ATOM     27  H   UNL     1       2.890   4.712  16.307  0.00  0.00    +0.000 HD
ENDBRANCH  25  26
ENDBRANCH  10  18
TORSDOF 2
ENDMDL
MODEL 3
REMARK VINA RESULT:      -6.3      1.551      1.968
REMARK  Name = 
REMARK  2 active torsions:
REMARK  status: ('A' for Active; 'I' for Inactive)
REMARK    1  A    between atoms: C_10  and  C_11
REMARK    2  A    between atoms: C_18  and  O_19
REMARK                            x       y       z     vdW  Elec       q    Type
REMARK                         _______ _______ _______ _____ _____    ______ ____
ROOT
ATOM      1  N   UNL     1      -3.044  12.816  23.711  0.00  0.00    +0.000 N 
ATOM      2  C   UNL     1      -4.123  12.753  22.926  0.00  0.00    +0.000 A 
ATOM      3  N   UNL     1      -5.397  12.843  23.313  0.00  0.00    +0.000 NA
ATOM      4  N   UNL     1      -6.103  12.661  22.166  0.00  0.00    +0.000 N 
ATOM      5  C   UNL     1      -5.303  12.456  21.075  0.00  0.00    +0.000 A 
ATOM      6  N   UNL     1      -5.695  12.204  19.796  0.00  0.00    +0.000 NA
ATOM      7  C   UNL     1      -4.663  11.997  19.025  0.00  0.00    +0.000 A 
ATOM      8  S   UNL     1      -4.777  11.611  17.314  0.00  0.00    +0.000 S 
ATOM      9  C   UNL     1      -3.040  11.488  17.185  0.00  0.00    +0.000 A 
ATOM     10  C   UNL     1      -2.431  11.736  18.353  0.00  0.00    +0.000 A 
ATOM     11  N   UNL     1      -3.308  12.047  19.384  0.00  0.00    +0.000 N 
ATOM     12  C   UNL     1      -2.917  12.438  20.661  0.00  0.00    +0.000 A 
ATOM     13  O   UNL     1      -1.781  12.719  21.029  0.00  0.00    +0.000 OA
ATOM     14  C   UNL     1      -4.029  12.561  21.548  0.00  0.00    +0.000 A 
ATOM     15  H   UNL     1      -3.120  13.168  24.655  0.00  0.00    +0.000 HD
ATOM     16  H   UNL     1      -2.118  12.897  23.291  0.00  0.00    +0.000 HD
ATOM     17  H   UNL     1      -7.115  12.686  22.207  0.00  0.00    +0.000 HD
ENDROOT
BRANCH  10  18
ATOM     18  C   UNL     1      -0.980  11.653  18.576  0.00  0.00    +0.000 A 
ATOM     19  C   UNL     1      -0.365  10.394  18.650  0.00  0.00    +0.000 A 
ATOM     20  C   UNL     1       1.029  10.297  18.668  0.00  0.00    +0.000 A 
ATOM     21 CL   UNL     1       1.769   8.744  18.729  0.00  0.00    +0.000 Cl
ATOM     22  C   UNL     1       1.829  11.437  18.610  0.00  0.00    +0.000 A 
ATOM     23  C   UNL     1       1.227  12.693  18.552  0.00  0.00    +0.000 A 
ATOM     24  I   UNL     1       2.452  14.380  18.396  0.00  0.00    +0.000 I 
ATOM     25  C   UNL     1      -0.171  12.804  18.550  0.00  0.00    +0.000 A 
BRANCH  25  26
ATOM     26  O   UNL     1      -0.785  14.028  18.468  0.00  0.00    +0.000 OA
ATOM     27  H   UNL     1      -1.734  13.870  18.306  0.00  0.00    +0.000 HD
ENDBRANCH  25  26
ENDBRANCH  10  18
TORSDOF 2
ENDMDL
MODEL 4
REMARK VINA RESULT:      -6.2      3.599      4.890
REMARK  Name = 
REMARK  2 active torsions:
REMARK  status: ('A' for Active; 'I' for Inactive)
REMARK    1  A    between atoms: C_10  and  C_11
REMARK    2  A    between atoms: C_18  and  O_19
REMARK                            x       y       z     vdW  Elec       q    Type
REMARK                         _______ _______ _______ _____ _____    ______ ____
ROOT
ATOM      1  N   UNL     1      -4.991  12.255  17.418  0.00  0.00    +0.000 N 
ATOM      2  C   UNL     1      -3.938  11.479  17.147  0.00  0.00    +0.000 A 
ATOM      3  N   UNL     1      -3.769  10.713  16.067  0.00  0.00    +0.000 NA
ATOM      4  N   UNL     1      -2.585  10.086  16.289  0.00  0.00    +0.000 N 
ATOM      5  C   UNL     1      -2.012  10.438  17.481  0.00  0.00    +0.000 A 
ATOM      6  N   UNL     1      -0.854   9.963  18.017  0.00  0.00    +0.000 NA
ATOM      7  C   UNL     1      -0.644  10.473  19.199  0.00  0.00    +0.000 A 
ATOM      8  S   UNL     1       0.737  10.071  20.210  0.00  0.00    +0.000 S 
ATOM      9  C   UNL     1       0.164  11.124  21.480  0.00  0.00    +0.000 A 
ATOM     10  C   UNL     1      -0.981  11.737  21.145  0.00  0.00    +0.000 A 
ATOM     11  N   UNL     1      -1.436  11.413  19.874  0.00  0.00    +0.000 N 
ATOM     12  C   UNL     1      -2.543  11.991  19.262  0.00  0.00    +0.000 A 
ATOM     13  O   UNL     1      -3.182  12.960  19.660  0.00  0.00    +0.000 OA
ATOM     14  C   UNL     1      -2.854  11.367  18.015  0.00  0.00    +0.000 A 
ATOM     15  H   UNL     1      -5.653  12.490  16.691  0.00  0.00    +0.000 HD
ATOM     16  H   UNL     1      -4.943  12.919  18.191  0.00  0.00    +0.000 HD
ATOM     17  H   UNL     1      -2.237   9.437  15.593  0.00  0.00    +0.000 HD
ENDROOT
BRANCH  10  18
ATOM     18  C   UNL     1      -1.738  12.638  22.028  0.00  0.00    +0.000 A 
ATOM     19  C   UNL     1      -2.727  12.107  22.870  0.00  0.00    +0.000 A 
ATOM     20  C   UNL     1      -3.319  12.912  23.846  0.00  0.00    +0.000 A 
ATOM     21 CL   UNL     1      -4.510  12.239  24.891  0.00  0.00    +0.000 Cl
ATOM     22  C   UNL     1      -2.940  14.244  24.006  0.00  0.00    +0.000 A 
ATOM     23  C   UNL     1      -1.969  14.784  23.163  0.00  0.00    +0.000 A 
ATOM     24  I   UNL     1      -1.372  16.764  23.471  0.00  0.00    +0.000 I 
ATOM     25  C   UNL     1      -1.380  13.991  22.169  0.00  0.00    +0.000 A 
BRANCH  25  26
ATOM     26  O   UNL     1      -0.405  14.494  21.345  0.00  0.00    +0.000 OA
ATOM     27  H   UNL     1      -0.043  15.293  21.773  0.00  0.00    +0.000 HD
ENDBRANCH  25  26
ENDBRANCH  10  18
TORSDOF 2
ENDMDL
MODEL 5
REMARK VINA RESULT:      -6.2      0.912      1.088
REMARK  Name = 
REMARK  2 active torsions:
REMARK  status: ('A' for Active; 'I' for Inactive)
REMARK    1  A    between atoms: C_10  and  C_11
REMARK    2  A    between atoms: C_18  and  O_19
REMARK                            x       y       z     vdW  Elec       q    Type
REMARK                         _______ _______ _______ _____ _____    ______ ____
ROOT
ATOM      1  N   UNL     1      -4.534  12.858  23.248  0.00  0.00    +0.000 N 
ATOM      2  C   UNL     1      -5.390  12.763  22.227  0.00  0.00    +0.000 A 
ATOM      3  N   UNL     1      -6.720  12.865  22.290  0.00  0.00    +0.000 NA
ATOM      4  N   UNL     1      -7.128  12.639  21.014  0.00  0.00    +0.000 N 
ATOM      5  C   UNL     1      -6.089  12.397  20.157  0.00  0.00    +0.000 A 
ATOM      6  N   UNL     1      -6.160  12.097  18.831  0.00  0.00    +0.000 NA
ATOM      7  C   UNL     1      -4.973  11.864  18.342  0.00  0.00    +0.000 A 
ATOM      8  S   UNL     1      -4.672  11.415  16.669  0.00  0.00    +0.000 S 
ATOM      9  C   UNL     1      -2.957  11.291  16.970  0.00  0.00    +0.000 A 
ATOM     10  C   UNL     1      -2.647  11.584  18.242  0.00  0.00    +0.000 A 
ATOM     11  N   UNL     1      -3.746  11.930  19.017  0.00  0.00    +0.000 N 
ATOM     12  C   UNL     1      -3.674  12.368  20.335  0.00  0.00    +0.000 A 
ATOM     13  O   UNL     1      -2.659  12.665  20.958  0.00  0.00    +0.000 OA
ATOM     14  C   UNL     1      -4.967  12.521  20.921  0.00  0.00    +0.000 A 
ATOM     15  H   UNL     1      -4.834  13.244  24.132  0.00  0.00    +0.000 HD
ATOM     16  H   UNL     1      -3.533  12.926  23.062  0.00  0.00    +0.000 HD
ATOM     17  H   UNL     1      -8.120  12.664  20.806  0.00  0.00    +0.000 HD
ENDROOT
BRANCH  10  18
ATOM     18  C   UNL     1      -1.294  11.511  18.813  0.00  0.00    +0.000 A 
ATOM     19  C   UNL     1      -0.859  10.317  19.406  0.00  0.00    +0.000 A 
ATOM     20  C   UNL     1       0.480  10.169  19.778  0.00  0.00    +0.000 A 
ATOM     21 CL   UNL     1       1.005   8.687  20.479  0.00  0.00    +0.000 Cl
ATOM     22  C   UNL     1       1.402  11.193  19.567  0.00  0.00    +0.000 A 
ATOM     23  C   UNL     1       0.975  12.389  18.992  0.00  0.00    +0.000 A 
ATOM     24  I   UNL     1       2.394  13.880  18.624  0.00  0.00    +0.000 I 
ATOM     25  C   UNL     1      -0.369  12.555  18.629  0.00  0.00    +0.000 A 
BRANCH  25  26
ATOM     26  O   UNL     1      -0.805  13.714  18.039  0.00  0.00    +0.000 OA
ATOM     27  H   UNL     1      -0.044  14.115  17.578  0.00  0.00    +0.000 HD
ENDBRANCH  25  26
ENDBRANCH  10  18
TORSDOF 2
ENDMDL
MODEL 6
REMARK VINA RESULT:      -6.0      3.524      5.150
REMARK  Name = 
REMARK  2 active torsions:
REMARK  status: ('A' for Active; 'I' for Inactive)
REMARK    1  A    between atoms: C_10  and  C_11
REMARK    2  A    between atoms: C_18  and  O_19
REMARK                            x       y       z     vdW  Elec       q    Type
REMARK                         _______ _______ _______ _____ _____    ______ ____
ROOT
ATOM      1  N   UNL     1      -5.230  11.231  17.045  0.00  0.00    +0.000 N 
ATOM      2  C   UNL     1      -3.981  10.780  16.896  0.00  0.00    +0.000 A 
ATOM      3  N   UNL     1      -3.526  10.005  15.909  0.00  0.00    +0.000 NA
ATOM      4  N   UNL     1      -2.228   9.780  16.239  0.00  0.00    +0.000 N 
ATOM      5  C   UNL     1      -1.861  10.390  17.407  0.00  0.00    +0.000 A 
ATOM      6  N   UNL     1      -0.654  10.330  18.031  0.00  0.00    +0.000 NA
ATOM      7  C   UNL     1      -0.679  10.983  19.160  0.00  0.00    +0.000 A 
ATOM      8  S   UNL     1       0.690  11.100  20.258  0.00  0.00    +0.000 S 
ATOM      9  C   UNL     1      -0.247  12.045  21.388  0.00  0.00    +0.000 A 
ATOM     10  C   UNL     1      -1.496  12.259  20.950  0.00  0.00    +0.000 A 
ATOM     11  N   UNL     1      -1.753  11.702  19.704  0.00  0.00    +0.000 N 
ATOM     12  C   UNL     1      -2.938  11.869  18.994  0.00  0.00    +0.000 A 
ATOM     13  O   UNL     1      -3.855  12.638  19.265  0.00  0.00    +0.000 OA
ATOM     14  C   UNL     1      -2.971  11.073  17.810  0.00  0.00    +0.000 A 
ATOM     15  H   UNL     1      -5.882  11.193  16.274  0.00  0.00    +0.000 HD
ATOM     16  H   UNL     1      -5.428  11.946  17.746  0.00  0.00    +0.000 HD
ATOM     17  H   UNL     1      -1.661   9.204  15.627  0.00  0.00    +0.000 HD
ENDROOT
BRANCH  10  18
ATOM     18  C   UNL     1      -2.539  12.970  21.705  0.00  0.00    +0.000 A 
ATOM     19  C   UNL     1      -3.172  12.327  22.779  0.00  0.00    +0.000 A 
ATOM     20  C   UNL     1      -4.021  13.047  23.623  0.00  0.00    +0.000 A 
ATOM     21 CL   UNL     1      -4.768  12.252  24.953  0.00  0.00    +0.000 Cl
ATOM     22  C   UNL     1      -4.251  14.408  23.419  0.00  0.00    +0.000 A 
ATOM     23  C   UNL     1      -3.638  15.051  22.345  0.00  0.00    +0.000 A 
ATOM     24  I   UNL     1      -3.947  17.106  22.106  0.00  0.00    +0.000 I 
ATOM     25  C   UNL     1      -2.797  14.335  21.483  0.00  0.00    +0.000 A 
BRANCH  25  26
ATOM     26  O   UNL     1      -2.164  14.954  20.434  0.00  0.00    +0.000 OA
ATOM     27  H   UNL     1      -1.221  15.042  20.671  0.00  0.00    +0.000 HD
ENDBRANCH  25  26
ENDBRANCH  10  18
TORSDOF 2
ENDMDL
MODEL 7
REMARK VINA RESULT:      -6.0      2.935      3.831
REMARK  Name = 
REMARK  2 active torsions:
REMARK  status: ('A' for Active; 'I' for Inactive)
REMARK    1  A    between atoms: C_10  and  C_11
REMARK    2  A    between atoms: C_18  and  O_19
REMARK                            x       y       z     vdW  Elec       q    Type
REMARK                         _______ _______ _______ _____ _____    ______ ____
ROOT
ATOM      1  N   UNL     1      -5.218  12.388  17.071  0.00  0.00    +0.000 N 
ATOM      2  C   UNL     1      -5.624  12.441  18.343  0.00  0.00    +0.000 A 
ATOM      3  N   UNL     1      -6.877  12.600  18.773  0.00  0.00    +0.000 NA
ATOM      4  N   UNL     1      -6.757  12.647  20.126  0.00  0.00    +0.000 N 
ATOM      5  C   UNL     1      -5.462  12.525  20.551  0.00  0.00    +0.000 A 
ATOM      6  N   UNL     1      -5.001  12.572  21.830  0.00  0.00    +0.000 NA
ATOM      7  C   UNL     1      -3.700  12.483  21.860  0.00  0.00    +0.000 A 
ATOM      8  S   UNL     1      -2.746  12.539  23.336  0.00  0.00    +0.000 S 
ATOM      9  C   UNL     1      -1.261  12.400  22.428  0.00  0.00    +0.000 A 
ATOM     10  C   UNL     1      -1.485  12.306  21.109  0.00  0.00    +0.000 A 
ATOM     11  N   UNL     1      -2.832  12.324  20.770  0.00  0.00    +0.000 N 
ATOM     12  C   UNL     1      -3.323  12.141  19.482  0.00  0.00    +0.000 A 
ATOM     13  O   UNL     1      -2.686  11.787  18.494  0.00  0.00    +0.000 OA
ATOM     14  C   UNL     1      -4.735  12.345  19.412  0.00  0.00    +0.000 A 
ATOM     15  H   UNL     1      -5.886  12.241  16.327  0.00  0.00    +0.000 HD
ATOM     16  H   UNL     1      -4.262  12.102  16.858  0.00  0.00    +0.000 HD
ATOM     17  H   UNL     1      -7.593  12.767  20.687  0.00  0.00    +0.000 HD
ENDROOT
BRANCH  10  18
ATOM     18  C   UNL     1      -0.434  12.236  20.083  0.00  0.00    +0.000 A 
ATOM     19  C   UNL     1       0.249  13.404  19.715  0.00  0.00    +0.000 A 
ATOM     20  C   UNL     1       1.373  13.326  18.889  0.00  0.00    +0.000 A 
ATOM     21 CL   UNL     1       2.218  14.765  18.470  0.00  0.00    +0.000 Cl
ATOM     22  C   UNL     1       1.837  12.097  18.422  0.00  0.00    +0.000 A 
ATOM     23  C   UNL     1       1.155  10.931  18.770  0.00  0.00    +0.000 A 
ATOM     24  I   UNL     1       1.913   9.098  18.111  0.00  0.00    +0.000 I 
ATOM     25  C   UNL     1       0.016  10.999  19.585  0.00  0.00    +0.000 A 
BRANCH  25  26
ATOM     26  O   UNL     1      -0.656   9.864  19.960  0.00  0.00    +0.000 OA
ATOM     27  H   UNL     1      -0.359   9.140  19.376  0.00  0.00    +0.000 HD
ENDBRANCH  25  26
ENDBRANCH  10  18
TORSDOF 2
ENDMDL
MODEL 8
REMARK VINA RESULT:      -5.9      3.844      5.606
REMARK  Name = 
REMARK  2 active torsions:
REMARK  status: ('A' for Active; 'I' for Inactive)
REMARK    1  A    between atoms: C_10  and  C_11
REMARK    2  A    between atoms: C_18  and  O_19
REMARK                            x       y       z     vdW  Elec       q    Type
REMARK                         _______ _______ _______ _____ _____    ______ ____
ROOT
ATOM      1  N   UNL     1      -4.357  12.023  16.981  0.00  0.00    +0.000 N 
ATOM      2  C   UNL     1      -3.224  11.334  17.137  0.00  0.00    +0.000 A 
ATOM      3  N   UNL     1      -2.662  10.511  16.248  0.00  0.00    +0.000 NA
ATOM      4  N   UNL     1      -1.574  10.019  16.896  0.00  0.00    +0.000 N 
ATOM      5  C   UNL     1      -1.443  10.511  18.167  0.00  0.00    +0.000 A 
ATOM      6  N   UNL     1      -0.493  10.190  19.086  0.00  0.00    +0.000 NA
ATOM      7  C   UNL     1      -0.712  10.803  20.216  0.00  0.00    +0.000 A 
ATOM      8  S   UNL     1       0.291  10.611  21.648  0.00  0.00    +0.000 S 
ATOM      9  C   UNL     1      -0.733  11.693  22.558  0.00  0.00    +0.000 A 
ATOM     10  C   UNL     1      -1.746  12.167  21.819  0.00  0.00    +0.000 A 
ATOM     11  N   UNL     1      -1.742  11.708  20.508  0.00  0.00    +0.000 N 
ATOM     12  C   UNL     1      -2.627  12.131  19.522  0.00  0.00    +0.000 A 
ATOM     13  O   UNL     1      -3.424  13.061  19.598  0.00  0.00    +0.000 OA
ATOM     14  C   UNL     1      -2.474  11.391  18.311  0.00  0.00    +0.000 A 
ATOM     15  H   UNL     1      -4.762  12.139  16.062  0.00  0.00    +0.000 HD
ATOM     16  H   UNL     1      -4.607  12.743  17.659  0.00  0.00    +0.000 HD
ATOM     17  H   UNL     1      -0.976   9.358  16.414  0.00  0.00    +0.000 HD
ENDROOT
BRANCH  10  18
ATOM     18  C   UNL     1      -2.808  13.053  22.321  0.00  0.00    +0.000 A 
ATOM     19  C   UNL     1      -3.961  12.493  22.890  0.00  0.00    +0.000 A 
ATOM     20  C   UNL     1      -4.887  13.311  23.543  0.00  0.00    +0.000 A 
ATOM     21 CL   UNL     1      -6.282  12.605  24.261  0.00  0.00    +0.000 Cl
ATOM     22  C   UNL     1      -4.684  14.686  23.644  0.00  0.00    +0.000 A 
ATOM     23  C   UNL     1      -3.548  15.254  23.067  0.00  0.00    +0.000 A 
ATOM     24  I   UNL     1      -3.235  17.309  23.295  0.00  0.00    +0.000 I 
ATOM     25  C   UNL     1      -2.620  14.445  22.397  0.00  0.00    +0.000 A 
BRANCH  25  26
ATOM     26  O   UNL     1      -1.484  14.979  21.844  0.00  0.00    +0.000 OA
ATOM     27  H   UNL     1      -1.272  15.795  22.336  0.00  0.00    +0.000 HD
ENDBRANCH  25  26
ENDBRANCH  10  18
TORSDOF 2
ENDMDL
MODEL 9
REMARK VINA RESULT:      -5.9      3.879      4.930
REMARK  Name = 
REMARK  2 active torsions:
REMARK  status: ('A' for Active; 'I' for Inactive)
REMARK    1  A    between atoms: C_10  and  C_11
REMARK    2  A    between atoms: C_18  and  O_19
REMARK                            x       y       z     vdW  Elec       q    Type
REMARK                         _______ _______ _______ _____ _____    ______ ____
ROOT
ATOM      1  N   UNL     1      -6.925  12.027  23.270  0.00  0.00    +0.000 N 
ATOM      2  C   UNL     1      -6.613  13.282  23.606  0.00  0.00    +0.000 A 
ATOM      3  N   UNL     1      -7.408  14.165  24.215  0.00  0.00    +0.000 NA
ATOM      4  N   UNL     1      -6.657  15.296  24.277  0.00  0.00    +0.000 N 
ATOM      5  C   UNL     1      -5.416  15.142  23.721  0.00  0.00    +0.000 A 
ATOM      6  N   UNL     1      -4.445  16.086  23.587  0.00  0.00    +0.000 NA
ATOM      7  C   UNL     1      -3.412  15.605  22.951  0.00  0.00    +0.000 A 
ATOM      8  S   UNL     1      -1.974  16.541  22.564  0.00  0.00    +0.000 S 
ATOM      9  C   UNL     1      -1.255  15.172  21.753  0.00  0.00    +0.000 A 
ATOM     10  C   UNL     1      -2.047  14.091  21.791  0.00  0.00    +0.000 A 
ATOM     11  N   UNL     1      -3.239  14.298  22.472  0.00  0.00    +0.000 N 
ATOM     12  C   UNL     1      -4.181  13.308  22.733  0.00  0.00    +0.000 A 
ATOM     13  O   UNL     1      -4.048  12.101  22.555  0.00  0.00    +0.000 OA
ATOM     14  C   UNL     1      -5.365  13.837  23.330  0.00  0.00    +0.000 A 
ATOM     15  H   UNL     1      -7.740  11.580  23.666  0.00  0.00    +0.000 HD
ATOM     16  H   UNL     1      -6.192  11.391  22.956  0.00  0.00    +0.000 HD
ATOM     17  H   UNL     1      -7.054  16.123  24.706  0.00  0.00    +0.000 HD
ENDROOT
BRANCH  10  18
ATOM     18  C   UNL     1      -1.742  12.805  21.146  0.00  0.00    +0.000 A 
ATOM     19  C   UNL     1      -2.082  12.612  19.798  0.00  0.00    +0.000 A 
ATOM     20  C   UNL     1      -1.630  11.478  19.119  0.00  0.00    +0.000 A 
ATOM     21 CL   UNL     1      -2.030  11.269  17.459  0.00  0.00    +0.000 Cl
ATOM     22  C   UNL     1      -0.839  10.525  19.759  0.00  0.00    +0.000 A 
ATOM     23  C   UNL     1      -0.510  10.701  21.103  0.00  0.00    +0.000 A 
ATOM     24  I   UNL     1       0.736   9.292  22.017  0.00  0.00    +0.000 I 
ATOM     25  C   UNL     1      -0.970  11.827  21.799  0.00  0.00    +0.000 A 
BRANCH  25  26
ATOM     26  O   UNL     1      -0.638  12.033  23.114  0.00  0.00    +0.000 OA
ATOM     27  H   UNL     1      -0.682  12.993  23.282  0.00  0.00    +0.000 HD
ENDBRANCH  25  26
ENDBRANCH  10  18
TORSDOF 2
ENDMDL
