MODEL 1
REMARK VINA RESULT:      -8.9      0.000      0.000
REMARK  Name = 
REMARK  4 active torsions:
REMARK  status: ('A' for Active; 'I' for Inactive)
REMARK    1  A    between atoms: C_2  and  C_3
REMARK    2  A    between atoms: C_3  and  N_4
REMARK    3  A    between atoms: N_4  and  C_5
REMARK    4  A    between atoms: N_20  and  C_21
REMARK                            x       y       z     vdW  Elec       q    Type
REMARK                         _______ _______ _______ _____ _____    ______ ____
ROOT
ATOM      1  N   UNL     1       7.703   6.817  16.757  0.00  0.00    +0.000 N 
ATOM      2  H   UNL     1       8.583   6.495  16.363  0.00  0.00    +0.000 HD
ENDROOT
BRANCH   1   3
ATOM      3  C   UNL     1       6.687   5.871  16.561  0.00  0.00    +0.000 A 
ATOM      4  N   UNL     1       5.843   5.670  17.584  0.00  0.00    +0.000 NA
ATOM      5  C   UNL     1       4.854   4.782  17.451  0.00  0.00    +0.000 A 
ATOM      6  N   UNL     1       4.079   4.559  18.567  0.00  0.00    +0.000 N 
ATOM      7  C   UNL     1       3.029   3.553  18.542  0.00  0.00    +0.000 C 
ATOM      8  C   UNL     1       1.796   4.285  19.060  0.00  0.00    +0.000 C 
ATOM      9  C   UNL     1       2.373   5.328  20.003  0.00  0.00    +0.000 C 
ATOM     10  C   UNL     1       3.674   5.745  19.320  0.00  0.00    +0.000 C 
ATOM     11  N   UNL     1       4.664   4.080  16.332  0.00  0.00    +0.000 NA
ATOM     12  C   UNL     1       5.490   4.286  15.299  0.00  0.00    +0.000 A 
ATOM     13  C   UNL     1       5.279   3.578  14.121  0.00  0.00    +0.000 A 
ATOM     14  C   UNL     1       6.121   3.712  13.013  0.00  0.00    +0.000 A 
ATOM     15  C   UNL     1       7.207   4.574  13.073  0.00  0.00    +0.000 A 
ATOM     16  C   UNL     1       7.427   5.313  14.233  0.00  0.00    +0.000 A 
ATOM     17  C   UNL     1       6.566   5.177  15.353  0.00  0.00    +0.000 A 
ENDBRANCH   1   3
BRANCH   1  18
ATOM     18  C   UNL     1       7.862   7.320  18.135  0.00  0.00    +0.000 C 
BRANCH  18  20
ATOM     19  O   UNL     1       7.557   9.599  17.464  0.00  0.00    +0.000 OA
ATOM     20  C   UNL     1       8.157   8.821  18.200  0.00  0.00    +0.000 C 
ATOM     21  N   UNL     1       9.138   9.185  19.111  0.00  0.00    +0.000 N 
ATOM     22  H   UNL     1       9.629   8.413  19.571  0.00  0.00    +0.000 HD
BRANCH  21  23
ATOM     23  C   UNL     1       9.607  10.496  19.356  0.00  0.00    +0.000 A 
ATOM     24  C   UNL     1      10.409  11.195  18.447  0.00  0.00    +0.000 A 
ATOM     25  C   UNL     1      10.881  12.472  18.754  0.00  0.00    +0.000 A 
ATOM     26 CL   UNL     1      11.864  13.314  17.617  0.00  0.00    +0.000 Cl
ATOM     27  C   UNL     1      10.566  13.074  19.965  0.00  0.00    +0.000 A 
ATOM     28  C   UNL     1       9.745  12.392  20.861  0.00  0.00    +0.000 A 
ATOM     29 CL   UNL     1       9.354  13.125  22.370  0.00  0.00    +0.000 Cl
ATOM     30  C   UNL     1       9.250  11.120  20.558  0.00  0.00    +0.000 A 
ENDBRANCH  21  23
ENDBRANCH  18  20
ENDBRANCH   1  18
TORSDOF 4
ENDMDL
MODEL 2
REMARK VINA RESULT:      -8.9      0.372      1.720
REMARK  Name = 
REMARK  4 active torsions:
REMARK  status: ('A' for Active; 'I' for Inactive)
REMARK    1  A    between atoms: C_2  and  C_3
REMARK    2  A    between atoms: C_3  and  N_4
REMARK    3  A    between atoms: N_4  and  C_5
REMARK    4  A    between atoms: N_20  and  C_21
REMARK                            x       y       z     vdW  Elec       q    Type
REMARK                         _______ _______ _______ _____ _____    ______ ____
ROOT
ATOM      1  N   UNL     1       7.825   6.468  16.838  0.00  0.00    +0.000 N 
ATOM      2  H   UNL     1       8.702   6.004  16.615  0.00  0.00    +0.000 HD
ENDROOT
BRANCH   1   3
ATOM      3  C   UNL     1       6.732   5.628  16.581  0.00  0.00    +0.000 A 
ATOM      4  N   UNL     1       5.867   5.435  17.588  0.00  0.00    +0.000 NA
ATOM      5  C   UNL     1       4.805   4.648  17.397  0.00  0.00    +0.000 A 
ATOM      6  N   UNL     1       4.006   4.422  18.496  0.00  0.00    +0.000 N 
ATOM      7  C   UNL     1       2.873   3.514  18.405  0.00  0.00    +0.000 C 
ATOM      8  C   UNL     1       1.706   4.316  18.968  0.00  0.00    +0.000 C 
ATOM      9  C   UNL     1       2.364   5.243  19.976  0.00  0.00    +0.000 C 
ATOM     10  C   UNL     1       3.701   5.588  19.323  0.00  0.00    +0.000 C 
ATOM     11  N   UNL     1       4.563   4.038  16.235  0.00  0.00    +0.000 NA
ATOM     12  C   UNL     1       5.411   4.237  15.219  0.00  0.00    +0.000 A 
ATOM     13  C   UNL     1       5.147   3.627  13.997  0.00  0.00    +0.000 A 
ATOM     14  C   UNL     1       6.005   3.757  12.901  0.00  0.00    +0.000 A 
ATOM     15  C   UNL     1       7.160   4.516  13.017  0.00  0.00    +0.000 A 
ATOM     16  C   UNL     1       7.436   5.158  14.222  0.00  0.00    +0.000 A 
ATOM     17  C   UNL     1       6.559   5.025  15.331  0.00  0.00    +0.000 A 
ENDBRANCH   1   3
BRANCH   1  18
ATOM     18  C   UNL     1       7.854   7.101  18.170  0.00  0.00    +0.000 C 
BRANCH  18  20
ATOM     19  O   UNL     1       7.549   9.301  17.274  0.00  0.00    +0.000 OA
ATOM     20  C   UNL     1       8.114   8.610  18.117  0.00  0.00    +0.000 C 
ATOM     21  N   UNL     1       9.023   9.080  19.052  0.00  0.00    +0.000 N 
ATOM     22  H   UNL     1       9.497   8.366  19.613  0.00  0.00    +0.000 HD
BRANCH  21  23
ATOM     23  C   UNL     1       9.448  10.420  19.207  0.00  0.00    +0.000 A 
ATOM     24  C   UNL     1       9.331  11.116  20.415  0.00  0.00    +0.000 A 
ATOM     25  C   UNL     1       9.727  12.451  20.505  0.00  0.00    +0.000 A 
ATOM     26 CL   UNL     1       9.577  13.286  22.005  0.00  0.00    +0.000 Cl
ATOM     27  C   UNL     1      10.243  13.115  19.400  0.00  0.00    +0.000 A 
ATOM     28  C   UNL     1      10.385  12.418  18.203  0.00  0.00    +0.000 A 
ATOM     29 CL   UNL     1      11.016  13.233  16.823  0.00  0.00    +0.000 Cl
ATOM     30  C   UNL     1      10.011  11.074  18.104  0.00  0.00    +0.000 A 
ENDBRANCH  21  23
ENDBRANCH  18  20
ENDBRANCH   1  18
TORSDOF 4
ENDMDL
MODEL 3
REMARK VINA RESULT:      -8.5      3.807      9.191
REMARK  Name = 
REMARK  4 active torsions:
REMARK  status: ('A' for Active; 'I' for Inactive)
REMARK    1  A    between atoms: C_2  and  C_3
REMARK    2  A    between atoms: C_3  and  N_4
REMARK    3  A    between atoms: N_4  and  C_5
REMARK    4  A    between atoms: N_20  and  C_21
REMARK                            x       y       z     vdW  Elec       q    Type
REMARK                         _______ _______ _______ _____ _____    ______ ____
ROOT
ATOM      1  N   UNL     1       9.401   9.568  19.305  0.00  0.00    +0.000 N 
ATOM      2  H   UNL     1      10.307   9.160  19.093  0.00  0.00    +0.000 HD
ENDROOT
BRANCH   1   3
ATOM      3  C   UNL     1       9.541  10.862  19.826  0.00  0.00    +0.000 A 
ATOM      4  N   UNL     1       8.881  11.131  20.963  0.00  0.00    +0.000 NA
ATOM      5  C   UNL     1       8.983  12.348  21.506  0.00  0.00    +0.000 A 
ATOM      6  N   UNL     1       8.212  12.584  22.622  0.00  0.00    +0.000 N 
ATOM      7  C   UNL     1       8.195  13.903  23.235  0.00  0.00    +0.000 C 
ATOM      8  C   UNL     1       8.470  13.634  24.709  0.00  0.00    +0.000 C 
ATOM      9  C   UNL     1       7.884  12.249  24.933  0.00  0.00    +0.000 C 
ATOM     10  C   UNL     1       8.183  11.521  23.624  0.00  0.00    +0.000 C 
ATOM     11  N   UNL     1       9.721  13.317  20.962  0.00  0.00    +0.000 NA
ATOM     12  C   UNL     1      10.397  13.054  19.837  0.00  0.00    +0.000 A 
ATOM     13  C   UNL     1      11.190  14.053  19.283  0.00  0.00    +0.000 A 
ATOM     14  C   UNL     1      11.896  13.865  18.090  0.00  0.00    +0.000 A 
ATOM     15  C   UNL     1      11.814  12.650  17.426  0.00  0.00    +0.000 A 
ATOM     16  C   UNL     1      11.045  11.625  17.972  0.00  0.00    +0.000 A 
ATOM     17  C   UNL     1      10.334  11.819  19.185  0.00  0.00    +0.000 A 
ENDBRANCH   1   3
BRANCH   1  18
ATOM     18  C   UNL     1       8.449   9.421  18.187  0.00  0.00    +0.000 C 
BRANCH  18  20
ATOM     19  O   UNL     1       8.372   7.084  18.705  0.00  0.00    +0.000 OA
ATOM     20  C   UNL     1       7.879   8.006  18.060  0.00  0.00    +0.000 C 
ATOM     21  N   UNL     1       6.823   7.878  17.169  0.00  0.00    +0.000 N 
ATOM     22  H   UNL     1       6.598   8.713  16.620  0.00  0.00    +0.000 HD
BRANCH  21  23
ATOM     23  C   UNL     1       6.131   6.685  16.858  0.00  0.00    +0.000 A 
ATOM     24  C   UNL     1       6.525   5.830  15.823  0.00  0.00    +0.000 A 
ATOM     25  C   UNL     1       5.784   4.685  15.529  0.00  0.00    +0.000 A 
ATOM     26 CL   UNL     1       6.291   3.646  14.251  0.00  0.00    +0.000 Cl
ATOM     27  C   UNL     1       4.642   4.371  16.254  0.00  0.00    +0.000 A 
ATOM     28  C   UNL     1       4.262   5.206  17.303  0.00  0.00    +0.000 A 
ATOM     29 CL   UNL     1       2.843   4.832  18.205  0.00  0.00    +0.000 Cl
ATOM     30  C   UNL     1       5.007   6.346  17.622  0.00  0.00    +0.000 A 
ENDBRANCH  21  23
ENDBRANCH  18  20
ENDBRANCH   1  18
TORSDOF 4
ENDMDL
MODEL 4
REMARK VINA RESULT:      -8.3      5.608      8.441
REMARK  Name = 
REMARK  4 active torsions:
REMARK  status: ('A' for Active; 'I' for Inactive)
REMARK    1  A    between atoms: C_2  and  C_3
REMARK    2  A    between atoms: C_3  and  N_4
REMARK    3  A    between atoms: N_4  and  C_5
REMARK    4  A    between atoms: N_20  and  C_21
REMARK                            x       y       z     vdW  Elec       q    Type
REMARK                         _______ _______ _______ _____ _____    ______ ____
ROOT
ATOM      1  N   UNL     1       2.283   7.330  18.911  0.00  0.00    +0.000 N 
ATOM      2  H   UNL     1       1.284   7.214  19.060  0.00  0.00    +0.000 HD
ENDROOT
BRANCH   1   3
ATOM      3  C   UNL     1       2.901   6.098  18.656  0.00  0.00    +0.000 A 
ATOM      4  N   UNL     1       3.631   6.007  17.534  0.00  0.00    +0.000 NA
ATOM      5  C   UNL     1       4.245   4.857  17.244  0.00  0.00    +0.000 A 
ATOM      6  N   UNL     1       4.904   4.805  16.036  0.00  0.00    +0.000 N 
ATOM      7  C   UNL     1       5.534   3.569  15.597  0.00  0.00    +0.000 C 
ATOM      8  C   UNL     1       6.950   3.985  15.218  0.00  0.00    +0.000 C 
ATOM      9  C   UNL     1       6.786   5.424  14.756  0.00  0.00    +0.000 C 
ATOM     10  C   UNL     1       5.707   5.975  15.686  0.00  0.00    +0.000 C 
ATOM     11  N   UNL     1       4.165   3.782  18.030  0.00  0.00    +0.000 NA
ATOM     12  C   UNL     1       3.453   3.866  19.160  0.00  0.00    +0.000 A 
ATOM     13  C   UNL     1       3.390   2.757  19.997  0.00  0.00    +0.000 A 
ATOM     14  C   UNL     1       2.638   2.757  21.175  0.00  0.00    +0.000 A 
ATOM     15  C   UNL     1       1.924   3.891  21.537  0.00  0.00    +0.000 A 
ATOM     16  C   UNL     1       1.989   5.024  20.728  0.00  0.00    +0.000 A 
ATOM     17  C   UNL     1       2.759   5.020  19.536  0.00  0.00    +0.000 A 
ENDBRANCH   1   3
BRANCH   1  18
ATOM     18  C   UNL     1       2.580   8.412  17.953  0.00  0.00    +0.000 C 
BRANCH  18  20
ATOM     19  O   UNL     1       2.142  10.766  17.999  0.00  0.00    +0.000 OA
ATOM     20  C   UNL     1       1.677   9.637  18.125  0.00  0.00    +0.000 C 
ATOM     21  N   UNL     1       0.358   9.351  18.446  0.00  0.00    +0.000 N 
ATOM     22  H   UNL     1       0.146   8.366  18.630  0.00  0.00    +0.000 HD
BRANCH  21  23
ATOM     23  C   UNL     1      -0.671  10.294  18.672  0.00  0.00    +0.000 A 
ATOM     24  C   UNL     1      -0.723  11.098  19.816  0.00  0.00    +0.000 A 
ATOM     25  C   UNL     1      -1.783  11.984  20.012  0.00  0.00    +0.000 A 
ATOM     26 CL   UNL     1      -1.824  12.965  21.428  0.00  0.00    +0.000 Cl
ATOM     27  C   UNL     1      -2.806  12.087  19.078  0.00  0.00    +0.000 A 
ATOM     28  C   UNL     1      -2.742  11.309  17.924  0.00  0.00    +0.000 A 
ATOM     29 CL   UNL     1      -4.009  11.420  16.762  0.00  0.00    +0.000 Cl
ATOM     30  C   UNL     1      -1.676  10.430  17.706  0.00  0.00    +0.000 A 
ENDBRANCH  21  23
ENDBRANCH  18  20
ENDBRANCH   1  18
TORSDOF 4
ENDMDL
MODEL 5
REMARK VINA RESULT:      -8.3      1.238      4.001
REMARK  Name = 
REMARK  4 active torsions:
REMARK  status: ('A' for Active; 'I' for Inactive)
REMARK    1  A    between atoms: C_2  and  C_3
REMARK    2  A    between atoms: C_3  and  N_4
REMARK    3  A    between atoms: N_4  and  C_5
REMARK    4  A    between atoms: N_20  and  C_21
REMARK                            x       y       z     vdW  Elec       q    Type
REMARK                         _______ _______ _______ _____ _____    ______ ____
ROOT
ATOM      1  N   UNL     1       6.575   6.189  18.605  0.00  0.00    +0.000 N 
ATOM      2  H   UNL     1       5.974   6.961  18.880  0.00  0.00    +0.000 HD
ENDROOT
BRANCH   1   3
ATOM      3  C   UNL     1       5.902   5.310  17.744  0.00  0.00    +0.000 A 
ATOM      4  N   UNL     1       6.209   5.386  16.441  0.00  0.00    +0.000 NA
ATOM      5  C   UNL     1       5.601   4.569  15.576  0.00  0.00    +0.000 A 
ATOM      6  N   UNL     1       5.897   4.759  14.245  0.00  0.00    +0.000 N 
ATOM      7  C   UNL     1       5.223   3.971  13.224  0.00  0.00    +0.000 C 
ATOM      8  C   UNL     1       6.357   3.420  12.369  0.00  0.00    +0.000 C 
ATOM      9  C   UNL     1       7.436   4.485  12.480  0.00  0.00    +0.000 C 
ATOM     10  C   UNL     1       7.305   4.975  13.920  0.00  0.00    +0.000 C 
ATOM     11  N   UNL     1       4.693   3.669  15.957  0.00  0.00    +0.000 NA
ATOM     12  C   UNL     1       4.391   3.573  17.257  0.00  0.00    +0.000 A 
ATOM     13  C   UNL     1       3.466   2.616  17.662  0.00  0.00    +0.000 A 
ATOM     14  C   UNL     1       3.073   2.481  18.997  0.00  0.00    +0.000 A 
ATOM     15  C   UNL     1       3.613   3.318  19.962  0.00  0.00    +0.000 A 
ATOM     16  C   UNL     1       4.560   4.269  19.587  0.00  0.00    +0.000 A 
ATOM     17  C   UNL     1       4.959   4.399  18.231  0.00  0.00    +0.000 A 
ENDBRANCH   1   3
BRANCH   1  18
ATOM     18  C   UNL     1       7.901   6.649  18.151  0.00  0.00    +0.000 C 
BRANCH  18  20
ATOM     19  O   UNL     1       7.362   8.829  17.319  0.00  0.00    +0.000 OA
ATOM     20  C   UNL     1       8.031   8.174  18.114  0.00  0.00    +0.000 C 
ATOM     21  N   UNL     1       8.953   8.705  19.004  0.00  0.00    +0.000 N 
ATOM     22  H   UNL     1       9.517   8.024  19.522  0.00  0.00    +0.000 HD
BRANCH  21  23
ATOM     23  C   UNL     1       9.274  10.073  19.160  0.00  0.00    +0.000 A 
ATOM     24  C   UNL     1       9.729  10.868  18.102  0.00  0.00    +0.000 A 
ATOM     25  C   UNL     1      10.072  12.204  18.317  0.00  0.00    +0.000 A 
ATOM     26 CL   UNL     1      10.628  13.164  16.999  0.00  0.00    +0.000 Cl
ATOM     27  C   UNL     1       9.970  12.770  19.581  0.00  0.00    +0.000 A 
ATOM     28  C   UNL     1       9.491  11.989  20.630  0.00  0.00    +0.000 A 
ATOM     29 CL   UNL     1       9.367  12.677  22.204  0.00  0.00    +0.000 Cl
ATOM     30  C   UNL     1       9.125  10.654  20.425  0.00  0.00    +0.000 A 
ENDBRANCH  21  23
ENDBRANCH  18  20
ENDBRANCH   1  18
TORSDOF 4
ENDMDL
MODEL 6
REMARK VINA RESULT:      -8.3      1.397      1.695
REMARK  Name = 
REMARK  4 active torsions:
REMARK  status: ('A' for Active; 'I' for Inactive)
REMARK    1  A    between atoms: C_2  and  C_3
REMARK    2  A    between atoms: C_3  and  N_4
REMARK    3  A    between atoms: N_4  and  C_5
REMARK    4  A    between atoms: N_20  and  C_21
REMARK                            x       y       z     vdW  Elec       q    Type
REMARK                         _______ _______ _______ _____ _____    ______ ____
ROOT
ATOM      1  N   UNL     1       7.908   5.287  17.796  0.00  0.00    +0.000 N 
ATOM      2  H   UNL     1       8.518   4.526  18.082  0.00  0.00    +0.000 HD
ENDROOT
BRANCH   1   3
ATOM      3  C   UNL     1       6.677   4.799  17.336  0.00  0.00    +0.000 A 
ATOM      4  N   UNL     1       5.737   4.559  18.262  0.00  0.00    +0.000 NA
ATOM      5  C   UNL     1       4.543   4.098  17.878  0.00  0.00    +0.000 A 
ATOM      6  N   UNL     1       3.655   3.790  18.884  0.00  0.00    +0.000 N 
ATOM      7  C   UNL     1       2.361   3.206  18.567  0.00  0.00    +0.000 C 
ATOM      8  C   UNL     1       1.362   4.080  19.315  0.00  0.00    +0.000 C 
ATOM      9  C   UNL     1       2.147   4.560  20.525  0.00  0.00    +0.000 C 
ATOM     10  C   UNL     1       3.560   4.752  19.980  0.00  0.00    +0.000 C 
ATOM     11  N   UNL     1       4.241   3.863  16.600  0.00  0.00    +0.000 NA
ATOM     12  C   UNL     1       5.166   4.115  15.666  0.00  0.00    +0.000 A 
ATOM     13  C   UNL     1       4.846   3.900  14.330  0.00  0.00    +0.000 A 
ATOM     14  C   UNL     1       5.771   4.105  13.302  0.00  0.00    +0.000 A 
ATOM     15  C   UNL     1       7.054   4.538  13.606  0.00  0.00    +0.000 A 
ATOM     16  C   UNL     1       7.394   4.784  14.934  0.00  0.00    +0.000 A 
ATOM     17  C   UNL     1       6.449   4.578  15.974  0.00  0.00    +0.000 A 
ENDBRANCH   1   3
BRANCH   1  18
ATOM     18  C   UNL     1       7.841   6.357  18.809  0.00  0.00    +0.000 C 
BRANCH  18  20
ATOM     19  O   UNL     1       7.821   8.001  17.067  0.00  0.00    +0.000 OA
ATOM     20  C   UNL     1       8.108   7.751  18.235  0.00  0.00    +0.000 C 
ATOM     21  N   UNL     1       8.701   8.643  19.116  0.00  0.00    +0.000 N 
ATOM     22  H   UNL     1       8.986   8.256  20.021  0.00  0.00    +0.000 HD
BRANCH  21  23
ATOM     23  C   UNL     1       9.063   9.981  18.835  0.00  0.00    +0.000 A 
ATOM     24  C   UNL     1       8.229  10.859  18.134  0.00  0.00    +0.000 A 
ATOM     25  C   UNL     1       8.650  12.158  17.846  0.00  0.00    +0.000 A 
ATOM     26 CL   UNL     1       7.605  13.222  16.983  0.00  0.00    +0.000 Cl
ATOM     27  C   UNL     1       9.903  12.605  18.247  0.00  0.00    +0.000 A 
ATOM     28  C   UNL     1      10.724  11.742  18.969  0.00  0.00    +0.000 A 
ATOM     29 CL   UNL     1      12.282  12.282  19.465  0.00  0.00    +0.000 Cl
ATOM     30  C   UNL     1      10.307  10.444  19.282  0.00  0.00    +0.000 A 
ENDBRANCH  21  23
ENDBRANCH  18  20
ENDBRANCH   1  18
TORSDOF 4
ENDMDL
MODEL 7
REMARK VINA RESULT:      -8.3      5.608      8.563
REMARK  Name = 
REMARK  4 active torsions:
REMARK  status: ('A' for Active; 'I' for Inactive)
REMARK    1  A    between atoms: C_2  and  C_3
REMARK    2  A    between atoms: C_3  and  N_4
REMARK    3  A    between atoms: N_4  and  C_5
REMARK    4  A    between atoms: N_20  and  C_21
REMARK                            x       y       z     vdW  Elec       q    Type
REMARK                         _______ _______ _______ _____ _____    ______ ____
ROOT
ATOM      1  N   UNL     1       2.134   6.808  20.445  0.00  0.00    +0.000 N 
ATOM      2  H   UNL     1       1.255   6.506  20.855  0.00  0.00    +0.000 HD
ENDROOT
BRANCH   1   3
ATOM      3  C   UNL     1       2.568   5.906  19.463  0.00  0.00    +0.000 A 
ATOM      4  N   UNL     1       3.569   6.312  18.668  0.00  0.00    +0.000 NA
ATOM      5  C   UNL     1       4.025   5.491  17.718  0.00  0.00    +0.000 A 
ATOM      6  N   UNL     1       4.991   6.001  16.881  0.00  0.00    +0.000 N 
ATOM      7  C   UNL     1       5.490   5.210  15.767  0.00  0.00    +0.000 C 
ATOM      8  C   UNL     1       7.006   5.268  15.917  0.00  0.00    +0.000 C 
ATOM      9  C   UNL     1       7.247   6.617  16.573  0.00  0.00    +0.000 C 
ATOM     10  C   UNL     1       6.058   6.770  17.520  0.00  0.00    +0.000 C 
ATOM     11  N   UNL     1       3.523   4.270  17.523  0.00  0.00    +0.000 NA
ATOM     12  C   UNL     1       2.535   3.848  18.322  0.00  0.00    +0.000 A 
ATOM     13  C   UNL     1       2.029   2.565  18.141  0.00  0.00    +0.000 A 
ATOM     14  C   UNL     1       0.973   2.068  18.911  0.00  0.00    +0.000 A 
ATOM     15  C   UNL     1       0.400   2.866  19.892  0.00  0.00    +0.000 A 
ATOM     16  C   UNL     1       0.904   4.146  20.109  0.00  0.00    +0.000 A 
ATOM     17  C   UNL     1       1.980   4.644  19.327  0.00  0.00    +0.000 A 
ENDBRANCH   1   3
BRANCH   1  18
ATOM     18  C   UNL     1       2.105   8.228  20.049  0.00  0.00    +0.000 C 
BRANCH  18  20
ATOM     19  O   UNL     1       0.033   8.567  21.203  0.00  0.00    +0.000 OA
ATOM     20  C   UNL     1       0.734   8.883  20.246  0.00  0.00    +0.000 C 
ATOM     21  N   UNL     1       0.378   9.800  19.268  0.00  0.00    +0.000 N 
ATOM     22  H   UNL     1       1.017   9.874  18.470  0.00  0.00    +0.000 HD
BRANCH  21  23
ATOM     23  C   UNL     1      -0.832  10.530  19.206  0.00  0.00    +0.000 A 
ATOM     24  C   UNL     1      -1.800  10.306  18.221  0.00  0.00    +0.000 A 
ATOM     25  C   UNL     1      -2.960  11.081  18.179  0.00  0.00    +0.000 A 
ATOM     26 CL   UNL     1      -4.139  10.785  16.958  0.00  0.00    +0.000 Cl
ATOM     27  C   UNL     1      -3.176  12.089  19.110  0.00  0.00    +0.000 A 
ATOM     28  C   UNL     1      -2.226  12.296  20.107  0.00  0.00    +0.000 A 
ATOM     29 CL   UNL     1      -2.478  13.548  21.263  0.00  0.00    +0.000 Cl
ATOM     30  C   UNL     1      -1.069  11.513  20.174  0.00  0.00    +0.000 A 
ENDBRANCH  21  23
ENDBRANCH  18  20
ENDBRANCH   1  18
TORSDOF 4
ENDMDL
MODEL 8
REMARK VINA RESULT:      -8.2      5.511      8.242
REMARK  Name = 
REMARK  4 active torsions:
REMARK  status: ('A' for Active; 'I' for Inactive)
REMARK    1  A    between atoms: C_2  and  C_3
REMARK    2  A    between atoms: C_3  and  N_4
REMARK    3  A    between atoms: N_4  and  C_5
REMARK    4  A    between atoms: N_20  and  C_21
REMARK                            x       y       z     vdW  Elec       q    Type
REMARK                         _______ _______ _______ _____ _____    ______ ____
ROOT
ATOM      1  N   UNL     1       2.210   7.255  18.999  0.00  0.00    +0.000 N 
ATOM      2  H   UNL     1       1.197   7.220  19.077  0.00  0.00    +0.000 HD
ENDROOT
BRANCH   1   3
ATOM      3  C   UNL     1       2.731   6.003  18.643  0.00  0.00    +0.000 A 
ATOM      4  N   UNL     1       3.588   5.975  17.611  0.00  0.00    +0.000 NA
ATOM      5  C   UNL     1       4.118   4.809  17.232  0.00  0.00    +0.000 A 
ATOM      6  N   UNL     1       4.919   4.838  16.113  0.00  0.00    +0.000 N 
ATOM      7  C   UNL     1       5.476   3.605  15.577  0.00  0.00    +0.000 C 
ATOM      8  C   UNL     1       6.963   3.901  15.425  0.00  0.00    +0.000 C 
ATOM      9  C   UNL     1       7.002   5.397  15.159  0.00  0.00    +0.000 C 
ATOM     10  C   UNL     1       5.871   5.943  16.028  0.00  0.00    +0.000 C 
ATOM     11  N   UNL     1       3.831   3.657  17.842  0.00  0.00    +0.000 NA
ATOM     12  C   UNL     1       2.991   3.676  18.883  0.00  0.00    +0.000 A 
ATOM     13  C   UNL     1       2.711   2.483  19.541  0.00  0.00    +0.000 A 
ATOM     14  C   UNL     1       1.816   2.416  20.613  0.00  0.00    +0.000 A 
ATOM     15  C   UNL     1       1.177   3.568  21.048  0.00  0.00    +0.000 A 
ATOM     16  C   UNL     1       1.457   4.781  20.423  0.00  0.00    +0.000 A 
ATOM     17  C   UNL     1       2.371   4.843  19.338  0.00  0.00    +0.000 A 
ENDBRANCH   1   3
BRANCH   1  18
ATOM     18  C   UNL     1       2.667   8.399  18.188  0.00  0.00    +0.000 C 
BRANCH  18  20
ATOM     19  O   UNL     1       1.959  10.606  17.587  0.00  0.00    +0.000 OA
ATOM     20  C   UNL     1       1.682   9.572  18.188  0.00  0.00    +0.000 C 
ATOM     21  N   UNL     1       0.522   9.362  18.919  0.00  0.00    +0.000 N 
ATOM     22  H   UNL     1       0.485   8.493  19.459  0.00  0.00    +0.000 HD
BRANCH  21  23
ATOM     23  C   UNL     1      -0.536  10.284  19.092  0.00  0.00    +0.000 A 
ATOM     24  C   UNL     1      -1.562  10.441  18.153  0.00  0.00    +0.000 A 
ATOM     25  C   UNL     1      -2.562  11.394  18.350  0.00  0.00    +0.000 A 
ATOM     26 CL   UNL     1      -3.817  11.568  17.181  0.00  0.00    +0.000 Cl
ATOM     27  C   UNL     1      -2.560  12.205  19.478  0.00  0.00    +0.000 A 
ATOM     28  C   UNL     1      -1.556  12.032  20.427  0.00  0.00    +0.000 A 
ATOM     29 CL   UNL     1      -1.537  13.037  21.826  0.00  0.00    +0.000 Cl
ATOM     30  C   UNL     1      -0.558  11.067  20.252  0.00  0.00    +0.000 A 
ENDBRANCH  21  23
ENDBRANCH  18  20
ENDBRANCH   1  18
TORSDOF 4
ENDMDL
MODEL 9
REMARK VINA RESULT:      -8.2      5.278      8.001
REMARK  Name = 
REMARK  4 active torsions:
REMARK  status: ('A' for Active; 'I' for Inactive)
REMARK    1  A    between atoms: C_2  and  C_3
REMARK    2  A    between atoms: C_3  and  N_4
REMARK    3  A    between atoms: N_4  and  C_5
REMARK    4  A    between atoms: N_20  and  C_21
REMARK                            x       y       z     vdW  Elec       q    Type
REMARK                         _______ _______ _______ _____ _____    ______ ____
ROOT
ATOM      1  N   UNL     1       2.282   6.897  20.309  0.00  0.00    +0.000 N 
ATOM      2  H   UNL     1       1.708   6.473  21.033  0.00  0.00    +0.000 HD
ENDROOT
BRANCH   1   3
ATOM      3  C   UNL     1       2.682   5.943  19.363  0.00  0.00    +0.000 A 
ATOM      4  N   UNL     1       3.666   6.299  18.523  0.00  0.00    +0.000 NA
ATOM      5  C   UNL     1       4.090   5.428  17.604  0.00  0.00    +0.000 A 
ATOM      6  N   UNL     1       5.039   5.887  16.719  0.00  0.00    +0.000 N 
ATOM      7  C   UNL     1       5.503   5.036  15.634  0.00  0.00    +0.000 C 
ATOM      8  C   UNL     1       7.022   5.086  15.742  0.00  0.00    +0.000 C 
ATOM      9  C   UNL     1       7.292   6.464  16.324  0.00  0.00    +0.000 C 
ATOM     10  C   UNL     1       6.129   6.675  17.291  0.00  0.00    +0.000 C 
ATOM     11  N   UNL     1       3.573   4.204  17.483  0.00  0.00    +0.000 NA
ATOM     12  C   UNL     1       2.603   3.831  18.326  0.00  0.00    +0.000 A 
ATOM     13  C   UNL     1       2.081   2.547  18.223  0.00  0.00    +0.000 A 
ATOM     14  C   UNL     1       1.041   2.098  19.043  0.00  0.00    +0.000 A 
ATOM     15  C   UNL     1       0.501   2.949  19.997  0.00  0.00    +0.000 A 
ATOM     16  C   UNL     1       1.021   4.234  20.137  0.00  0.00    +0.000 A 
ATOM     17  C   UNL     1       2.080   4.682  19.305  0.00  0.00    +0.000 A 
ENDBRANCH   1   3
BRANCH   1  18
ATOM     18  C   UNL     1       1.678   8.129  19.769  0.00  0.00    +0.000 C 
BRANCH  18  20
ATOM     19  O   UNL     1       1.352   8.812  22.041  0.00  0.00    +0.000 OA
ATOM     20  C   UNL     1       1.206   9.099  20.856  0.00  0.00    +0.000 C 
ATOM     21  N   UNL     1       0.607  10.258  20.386  0.00  0.00    +0.000 N 
ATOM     22  H   UNL     1       0.453  10.303  19.374  0.00  0.00    +0.000 HD
BRANCH  21  23
ATOM     23  C   UNL     1       0.074  11.304  21.175  0.00  0.00    +0.000 A 
ATOM     24  C   UNL     1      -1.062  11.143  21.977  0.00  0.00    +0.000 A 
ATOM     25  C   UNL     1      -1.572  12.219  22.706  0.00  0.00    +0.000 A 
ATOM     26 CL   UNL     1      -2.970  11.996  23.687  0.00  0.00    +0.000 Cl
ATOM     27  C   UNL     1      -0.965  13.467  22.650  0.00  0.00    +0.000 A 
ATOM     28  C   UNL     1       0.182  13.622  21.875  0.00  0.00    +0.000 A 
ATOM     29 CL   UNL     1       0.939  15.167  21.792  0.00  0.00    +0.000 Cl
ATOM     30  C   UNL     1       0.715  12.549  21.155  0.00  0.00    +0.000 A 
ENDBRANCH  21  23
ENDBRANCH  18  20
ENDBRANCH   1  18
TORSDOF 4
ENDMDL
