MODEL 1
REMARK VINA RESULT:      -6.7      0.000      0.000
REMARK  Name = 
REMARK  6 active torsions:
REMARK  status: ('A' for Active; 'I' for Inactive)
REMARK    1  A    between atoms: C_2  and  C_3
REMARK    2  A    between atoms: C_2  and  C_4
REMARK    3  A    between atoms: C_4  and  N_5
REMARK    4  A    between atoms: N_8  and  C_9
REMARK    5  A    between atoms: C_9  and  C_10
REMARK    6  A    between atoms: C_12  and  C_13
REMARK                            x       y       z     vdW  Elec       q    Type
REMARK                         _______ _______ _______ _____ _____    ______ ____
ROOT
ATOM      1  N   UNL     1       3.762   4.291  19.784  0.00  0.00    +0.000 NA
ATOM      2  C   UNL     1       4.394   3.227  18.975  0.00  0.00    +0.000 C 
ATOM      3  C   UNL     1       4.329   3.452  17.440  0.00  0.00    +0.000 C 
ATOM      4  N   UNL     1       4.701   4.799  16.929  0.00  0.00    +0.000 NA
ATOM      5  C   UNL     1       4.270   5.864  17.863  0.00  0.00    +0.000 C 
ATOM      6  C   UNL     1       4.429   5.550  19.371  0.00  0.00    +0.000 C 
ENDROOT
BRANCH   1   7
ATOM      7  C   UNL     1       2.295   4.386  19.576  0.00  0.00    +0.000 C 
BRANCH   7   9
ATOM      8  C   UNL     1       1.254   2.804  21.266  0.00  0.00    +0.000 C 
ATOM      9  C   UNL     1       1.424   3.210  19.993  0.00  0.00    +0.000 C 
ATOM     10  C   UNL     1       0.680   2.505  18.885  0.00  0.00    +0.000 C 
ENDBRANCH   7   9
ENDBRANCH   1   7
BRANCH   4  11
ATOM     11  C   UNL     1       6.149   4.847  16.642  0.00  0.00    +0.000 C 
BRANCH  11  12
ATOM     12  C   UNL     1       6.492   4.629  15.196  0.00  0.00    +0.000 A 
ATOM     13  N   UNL     1       5.913   3.774  14.376  0.00  0.00    +0.000 NA
ATOM     14  C   UNL     1       6.525   3.942  13.155  0.00  0.00    +0.000 A 
ATOM     15  C   UNL     1       6.110   3.134  11.989  0.00  0.00    +0.000 C 
ATOM     16  C   UNL     1       7.496   4.921  13.242  0.00  0.00    +0.000 A 
ATOM     17  N   UNL     1       7.483   5.325  14.549  0.00  0.00    +0.000 N 
ATOM     18  H   UNL     1       8.096   6.001  14.987  0.00  0.00    +0.000 HD
ENDBRANCH  11  12
ENDBRANCH   4  11
TORSDOF 4
ENDMDL
MODEL 2
REMARK VINA RESULT:      -6.5      1.364      6.853
REMARK  Name = 
REMARK  6 active torsions:
REMARK  status: ('A' for Active; 'I' for Inactive)
REMARK    1  A    between atoms: C_2  and  C_3
REMARK    2  A    between atoms: C_2  and  C_4
REMARK    3  A    between atoms: C_4  and  N_5
REMARK    4  A    between atoms: N_8  and  C_9
REMARK    5  A    between atoms: C_9  and  C_10
REMARK    6  A    between atoms: C_12  and  C_13
REMARK                            x       y       z     vdW  Elec       q    Type
REMARK                         _______ _______ _______ _____ _____    ______ ____
ROOT
ATOM      1  N   UNL     1       6.593   5.655  15.518  0.00  0.00    +0.000 NA
ATOM      2  C   UNL     1       5.153   5.823  15.810  0.00  0.00    +0.000 C 
ATOM      3  C   UNL     1       4.573   4.801  16.825  0.00  0.00    +0.000 C 
ATOM      4  N   UNL     1       5.342   4.565  18.076  0.00  0.00    +0.000 NA
ATOM      5  C   UNL     1       6.801   4.630  17.827  0.00  0.00    +0.000 C 
ATOM      6  C   UNL     1       7.273   5.722  16.835  0.00  0.00    +0.000 C 
ENDROOT
BRANCH   1   7
ATOM      7  C   UNL     1       6.903   4.374  14.836  0.00  0.00    +0.000 C 
BRANCH   7   9
ATOM      8  C   UNL     1       6.076   3.537  12.588  0.00  0.00    +0.000 C 
ATOM      9  C   UNL     1       6.879   4.336  13.315  0.00  0.00    +0.000 C 
ATOM     10  C   UNL     1       7.796   5.306  12.609  0.00  0.00    +0.000 C 
ENDBRANCH   7   9
ENDBRANCH   1   7
BRANCH   4  11
ATOM     11  C   UNL     1       4.902   5.507  19.124  0.00  0.00    +0.000 C 
BRANCH  11  12
ATOM     12  C   UNL     1       3.612   5.121  19.789  0.00  0.00    +0.000 A 
ATOM     13  N   UNL     1       3.230   3.899  20.103  0.00  0.00    +0.000 NA
ATOM     14  C   UNL     1       2.007   4.029  20.718  0.00  0.00    +0.000 A 
ATOM     15  C   UNL     1       1.284   2.837  21.211  0.00  0.00    +0.000 C 
ATOM     16  C   UNL     1       1.642   5.360  20.775  0.00  0.00    +0.000 A 
ATOM     17  N   UNL     1       2.656   6.037  20.155  0.00  0.00    +0.000 N 
ATOM     18  H   UNL     1       2.707   7.031  19.972  0.00  0.00    +0.000 HD
ENDBRANCH  11  12
ENDBRANCH   4  11
TORSDOF 4
ENDMDL
MODEL 3
REMARK VINA RESULT:      -6.4      1.947      3.287
REMARK  Name = 
REMARK  6 active torsions:
REMARK  status: ('A' for Active; 'I' for Inactive)
REMARK    1  A    between atoms: C_2  and  C_3
REMARK    2  A    between atoms: C_2  and  C_4
REMARK    3  A    between atoms: C_4  and  N_5
REMARK    4  A    between atoms: N_8  and  C_9
REMARK    5  A    between atoms: C_9  and  C_10
REMARK    6  A    between atoms: C_12  and  C_13
REMARK                            x       y       z     vdW  Elec       q    Type
REMARK                         _______ _______ _______ _____ _____    ______ ____
ROOT
ATOM      1  N   UNL     1       3.602   4.321  19.673  0.00  0.00    +0.000 NA
ATOM      2  C   UNL     1       4.221   3.132  19.049  0.00  0.00    +0.000 C 
ATOM      3  C   UNL     1       4.132   3.093  17.499  0.00  0.00    +0.000 C 
ATOM      4  N   UNL     1       4.498   4.331  16.759  0.00  0.00    +0.000 NA
ATOM      5  C   UNL     1       4.082   5.542  17.505  0.00  0.00    +0.000 C 
ATOM      6  C   UNL     1       4.264   5.489  19.041  0.00  0.00    +0.000 C 
ENDROOT
BRANCH   1   7
ATOM      7  C   UNL     1       2.133   4.384  19.474  0.00  0.00    +0.000 C 
BRANCH   7   9
ATOM      8  C   UNL     1       0.621   2.405  18.983  0.00  0.00    +0.000 C 
ATOM      9  C   UNL     1       1.294   3.175  19.860  0.00  0.00    +0.000 C 
ATOM     10  C   UNL     1       1.277   2.815  21.326  0.00  0.00    +0.000 C 
ENDBRANCH   7   9
ENDBRANCH   1   7
BRANCH   4  11
ATOM     11  C   UNL     1       5.940   4.324  16.446  0.00  0.00    +0.000 C 
BRANCH  11  12
ATOM     12  C   UNL     1       6.737   5.336  17.218  0.00  0.00    +0.000 A 
ATOM     13  N   UNL     1       6.928   6.597  16.887  0.00  0.00    +0.000 NA
ATOM     14  C   UNL     1       7.686   7.146  17.895  0.00  0.00    +0.000 A 
ATOM     15  C   UNL     1       8.085   8.569  17.846  0.00  0.00    +0.000 C 
ATOM     16  C   UNL     1       7.958   6.193  18.858  0.00  0.00    +0.000 A 
ATOM     17  N   UNL     1       7.375   5.043  18.399  0.00  0.00    +0.000 N 
ATOM     18  H   UNL     1       7.410   4.126  18.827  0.00  0.00    +0.000 HD
ENDBRANCH  11  12
ENDBRANCH   4  11
TORSDOF 4
ENDMDL
MODEL 4
REMARK VINA RESULT:      -6.4      1.084      1.403
REMARK  Name = 
REMARK  6 active torsions:
REMARK  status: ('A' for Active; 'I' for Inactive)
REMARK    1  A    between atoms: C_2  and  C_3
REMARK    2  A    between atoms: C_2  and  C_4
REMARK    3  A    between atoms: C_4  and  N_5
REMARK    4  A    between atoms: N_8  and  C_9
REMARK    5  A    between atoms: C_9  and  C_10
REMARK    6  A    between atoms: C_12  and  C_13
REMARK                            x       y       z     vdW  Elec       q    Type
REMARK                         _______ _______ _______ _____ _____    ______ ____
ROOT
ATOM      1  N   UNL     1       2.821   5.151  20.162  0.00  0.00    +0.000 NA
ATOM      2  C   UNL     1       3.882   4.272  19.628  0.00  0.00    +0.000 C 
ATOM      3  C   UNL     1       3.904   4.148  18.080  0.00  0.00    +0.000 C 
ATOM      4  N   UNL     1       3.809   5.405  17.290  0.00  0.00    +0.000 NA
ATOM      5  C   UNL     1       2.919   6.388  17.952  0.00  0.00    +0.000 C 
ATOM      6  C   UNL     1       3.019   6.462  19.495  0.00  0.00    +0.000 C 
ENDROOT
BRANCH   1   7
ATOM      7  C   UNL     1       1.453   4.636  19.903  0.00  0.00    +0.000 C 
BRANCH   7   9
ATOM      8  C   UNL     1       0.830   2.287  19.171  0.00  0.00    +0.000 C 
ATOM      9  C   UNL     1       1.176   3.159  20.138  0.00  0.00    +0.000 C 
ATOM     10  C   UNL     1       1.357   2.663  21.552  0.00  0.00    +0.000 C 
ENDBRANCH   7   9
ENDBRANCH   1   7
BRANCH   4  11
ATOM     11  C   UNL     1       5.159   5.944  17.035  0.00  0.00    +0.000 C 
BRANCH  11  12
ATOM     12  C   UNL     1       5.834   5.354  15.830  0.00  0.00    +0.000 A 
ATOM     13  N   UNL     1       5.267   4.605  14.905  0.00  0.00    +0.000 NA
ATOM     14  C   UNL     1       6.251   4.324  13.986  0.00  0.00    +0.000 A 
ATOM     15  C   UNL     1       5.954   3.497  12.797  0.00  0.00    +0.000 C 
ATOM     16  C   UNL     1       7.439   4.917  14.366  0.00  0.00    +0.000 A 
ATOM     17  N   UNL     1       7.166   5.541  15.552  0.00  0.00    +0.000 N 
ATOM     18  H   UNL     1       7.817   6.042  16.144  0.00  0.00    +0.000 HD
ENDBRANCH  11  12
ENDBRANCH   4  11
TORSDOF 4
ENDMDL
MODEL 5
REMARK VINA RESULT:      -6.4      1.342      6.558
REMARK  Name = 
REMARK  6 active torsions:
REMARK  status: ('A' for Active; 'I' for Inactive)
REMARK    1  A    between atoms: C_2  and  C_3
REMARK    2  A    between atoms: C_2  and  C_4
REMARK    3  A    between atoms: C_4  and  N_5
REMARK    4  A    between atoms: N_8  and  C_9
REMARK    5  A    between atoms: C_9  and  C_10
REMARK    6  A    between atoms: C_12  and  C_13
REMARK                            x       y       z     vdW  Elec       q    Type
REMARK                         _______ _______ _______ _____ _____    ______ ____
ROOT
ATOM      1  N   UNL     1       6.362   3.974  14.857  0.00  0.00    +0.000 NA
ATOM      2  C   UNL     1       6.884   5.171  15.549  0.00  0.00    +0.000 C 
ATOM      3  C   UNL     1       5.802   6.048  16.236  0.00  0.00    +0.000 C 
ATOM      4  N   UNL     1       4.787   5.353  17.073  0.00  0.00    +0.000 NA
ATOM      5  C   UNL     1       4.432   4.034  16.499  0.00  0.00    +0.000 C 
ATOM      6  C   UNL     1       5.600   3.224  15.886  0.00  0.00    +0.000 C 
ENDROOT
BRANCH   1   7
ATOM      7  C   UNL     1       5.491   4.303  13.702  0.00  0.00    +0.000 C 
BRANCH   7   9
ATOM      8  C   UNL     1       6.934   3.242  11.903  0.00  0.00    +0.000 C 
ATOM      9  C   UNL     1       5.721   3.572  12.387  0.00  0.00    +0.000 C 
ATOM     10  C   UNL     1       4.483   3.164  11.625  0.00  0.00    +0.000 C 
ENDBRANCH   7   9
ENDBRANCH   1   7
BRANCH   4  11
ATOM     11  C   UNL     1       5.264   5.256  18.467  0.00  0.00    +0.000 C 
BRANCH  11  12
ATOM     12  C   UNL     1       4.550   4.219  19.285  0.00  0.00    +0.000 A 
ATOM     13  N   UNL     1       3.370   4.352  19.858  0.00  0.00    +0.000 NA
ATOM     14  C   UNL     1       3.104   3.147  20.467  0.00  0.00    +0.000 A 
ATOM     15  C   UNL     1       1.841   2.943  21.209  0.00  0.00    +0.000 C 
ATOM     16  C   UNL     1       4.149   2.268  20.258  0.00  0.00    +0.000 A 
ATOM     17  N   UNL     1       5.071   2.972  19.532  0.00  0.00    +0.000 N 
ATOM     18  H   UNL     1       5.985   2.657  19.235  0.00  0.00    +0.000 HD
ENDBRANCH  11  12
ENDBRANCH   4  11
TORSDOF 4
ENDMDL
MODEL 6
REMARK VINA RESULT:      -6.3      1.278      6.725
REMARK  Name = 
REMARK  6 active torsions:
REMARK  status: ('A' for Active; 'I' for Inactive)
REMARK    1  A    between atoms: C_2  and  C_3
REMARK    2  A    between atoms: C_2  and  C_4
REMARK    3  A    between atoms: C_4  and  N_5
REMARK    4  A    between atoms: N_8  and  C_9
REMARK    5  A    between atoms: C_9  and  C_10
REMARK    6  A    between atoms: C_12  and  C_13
REMARK                            x       y       z     vdW  Elec       q    Type
REMARK                         _______ _______ _______ _____ _____    ______ ____
ROOT
ATOM      1  N   UNL     1       6.295   3.990  15.703  0.00  0.00    +0.000 NA
ATOM      2  C   UNL     1       7.208   4.561  16.715  0.00  0.00    +0.000 C 
ATOM      3  C   UNL     1       6.682   5.845  17.413  0.00  0.00    +0.000 C 
ATOM      4  N   UNL     1       5.281   5.829  17.913  0.00  0.00    +0.000 NA
ATOM      5  C   UNL     1       4.401   5.049  17.012  0.00  0.00    +0.000 C 
ATOM      6  C   UNL     1       5.012   3.760  16.414  0.00  0.00    +0.000 C 
ENDROOT
BRANCH   1   7
ATOM      7  C   UNL     1       6.089   4.881  14.535  0.00  0.00    +0.000 C 
BRANCH   7   9
ATOM      8  C   UNL     1       7.815   5.113  12.688  0.00  0.00    +0.000 C 
ATOM      9  C   UNL     1       6.735   4.502  13.210  0.00  0.00    +0.000 C 
ATOM     10  C   UNL     1       6.125   3.327  12.483  0.00  0.00    +0.000 C 
ENDBRANCH   7   9
ENDBRANCH   1   7
BRANCH   4  11
ATOM     11  C   UNL     1       5.249   5.337  19.305  0.00  0.00    +0.000 C 
BRANCH  11  12
ATOM     12  C   UNL     1       3.866   5.071  19.825  0.00  0.00    +0.000 A 
ATOM     13  N   UNL     1       3.351   3.890  20.108  0.00  0.00    +0.000 NA
ATOM     14  C   UNL     1       2.082   4.131  20.581  0.00  0.00    +0.000 A 
ATOM     15  C   UNL     1       1.213   3.012  21.002  0.00  0.00    +0.000 C 
ATOM     16  C   UNL     1       1.825   5.488  20.583  0.00  0.00    +0.000 A 
ATOM     17  N   UNL     1       2.954   6.068  20.073  0.00  0.00    +0.000 N 
ATOM     18  H   UNL     1       3.107   7.051  19.887  0.00  0.00    +0.000 HD
ENDBRANCH  11  12
ENDBRANCH   4  11
TORSDOF 4
ENDMDL
MODEL 7
REMARK VINA RESULT:      -6.3      2.074      6.504
REMARK  Name = 
REMARK  6 active torsions:
REMARK  status: ('A' for Active; 'I' for Inactive)
REMARK    1  A    between atoms: C_2  and  C_3
REMARK    2  A    between atoms: C_2  and  C_4
REMARK    3  A    between atoms: C_4  and  N_5
REMARK    4  A    between atoms: N_8  and  C_9
REMARK    5  A    between atoms: C_9  and  C_10
REMARK    6  A    between atoms: C_12  and  C_13
REMARK                            x       y       z     vdW  Elec       q    Type
REMARK                         _______ _______ _______ _____ _____    ______ ____
ROOT
ATOM      1  N   UNL     1       5.813   6.342  16.214  0.00  0.00    +0.000 NA
ATOM      2  C   UNL     1       5.374   5.233  15.341  0.00  0.00    +0.000 C 
ATOM      3  C   UNL     1       5.329   3.842  16.031  0.00  0.00    +0.000 C 
ATOM      4  N   UNL     1       4.673   3.758  17.363  0.00  0.00    +0.000 NA
ATOM      5  C   UNL     1       4.920   4.984  18.159  0.00  0.00    +0.000 C 
ATOM      6  C   UNL     1       4.890   6.319  17.376  0.00  0.00    +0.000 C 
ENDROOT
BRANCH   1   7
ATOM      7  C   UNL     1       7.220   6.206  16.664  0.00  0.00    +0.000 C 
BRANCH   7   9
ATOM      8  C   UNL     1       7.798   8.460  17.678  0.00  0.00    +0.000 C 
ATOM      9  C   UNL     1       7.720   7.119  17.774  0.00  0.00    +0.000 C 
ATOM     10  C   UNL     1       8.100   6.446  19.071  0.00  0.00    +0.000 C 
ENDBRANCH   7   9
ENDBRANCH   1   7
BRANCH   4  11
ATOM     11  C   UNL     1       3.235   3.467  17.200  0.00  0.00    +0.000 C 
BRANCH  11  12
ATOM     12  C   UNL     1       2.462   3.472  18.487  0.00  0.00    +0.000 A 
ATOM     13  N   UNL     1       2.704   2.725  19.546  0.00  0.00    +0.000 NA
ATOM     14  C   UNL     1       1.771   3.088  20.490  0.00  0.00    +0.000 A 
ATOM     15  C   UNL     1       1.757   2.442  21.820  0.00  0.00    +0.000 C 
ATOM     16  C   UNL     1       0.947   4.077  19.988  0.00  0.00    +0.000 A 
ATOM     17  N   UNL     1       1.379   4.288  18.707  0.00  0.00    +0.000 N 
ATOM     18  H   UNL     1       0.978   4.914  18.021  0.00  0.00    +0.000 HD
ENDBRANCH  11  12
ENDBRANCH   4  11
TORSDOF 4
ENDMDL
MODEL 8
REMARK VINA RESULT:      -6.3      0.669      1.302
REMARK  Name = 
REMARK  6 active torsions:
REMARK  status: ('A' for Active; 'I' for Inactive)
REMARK    1  A    between atoms: C_2  and  C_3
REMARK    2  A    between atoms: C_2  and  C_4
REMARK    3  A    between atoms: C_4  and  N_5
REMARK    4  A    between atoms: N_8  and  C_9
REMARK    5  A    between atoms: C_9  and  C_10
REMARK    6  A    between atoms: C_12  and  C_13
REMARK                            x       y       z     vdW  Elec       q    Type
REMARK                         _______ _______ _______ _____ _____    ______ ____
ROOT
ATOM      1  N   UNL     1       3.293   4.737  20.013  0.00  0.00    +0.000 NA
ATOM      2  C   UNL     1       4.215   3.704  19.493  0.00  0.00    +0.000 C 
ATOM      3  C   UNL     1       4.250   3.585  17.946  0.00  0.00    +0.000 C 
ATOM      4  N   UNL     1       4.371   4.844  17.163  0.00  0.00    +0.000 NA
ATOM      5  C   UNL     1       3.633   5.952  17.815  0.00  0.00    +0.000 C 
ATOM      6  C   UNL     1       3.710   6.002  19.360  0.00  0.00    +0.000 C 
ENDROOT
BRANCH   1   7
ATOM      7  C   UNL     1       1.868   4.445  19.721  0.00  0.00    +0.000 C 
BRANCH   7   9
ATOM      8  C   UNL     1       1.256   2.675  21.435  0.00  0.00    +0.000 C 
ATOM      9  C   UNL     1       1.296   3.104  20.159  0.00  0.00    +0.000 C 
ATOM     10  C   UNL     1       0.699   2.246  19.070  0.00  0.00    +0.000 C 
ENDBRANCH   7   9
ENDBRANCH   1   7
BRANCH   4  11
ATOM     11  C   UNL     1       5.795   5.165  16.940  0.00  0.00    +0.000 C 
BRANCH  11  12
ATOM     12  C   UNL     1       6.262   4.921  15.534  0.00  0.00    +0.000 A 
ATOM     13  N   UNL     1       7.189   5.602  14.890  0.00  0.00    +0.000 NA
ATOM     14  C   UNL     1       7.308   5.010  13.654  0.00  0.00    +0.000 A 
ATOM     15  C   UNL     1       8.276   5.526  12.663  0.00  0.00    +0.000 C 
ATOM     16  C   UNL     1       6.432   3.946  13.551  0.00  0.00    +0.000 A 
ATOM     17  N   UNL     1       5.755   3.922  14.740  0.00  0.00    +0.000 N 
ATOM     18  H   UNL     1       5.001   3.300  15.002  0.00  0.00    +0.000 HD
ENDBRANCH  11  12
ENDBRANCH   4  11
TORSDOF 4
ENDMDL
MODEL 9
REMARK VINA RESULT:      -6.2      1.029      1.425
REMARK  Name = 
REMARK  6 active torsions:
REMARK  status: ('A' for Active; 'I' for Inactive)
REMARK    1  A    between atoms: C_2  and  C_3
REMARK    2  A    between atoms: C_2  and  C_4
REMARK    3  A    between atoms: C_4  and  N_5
REMARK    4  A    between atoms: N_8  and  C_9
REMARK    5  A    between atoms: C_9  and  C_10
REMARK    6  A    between atoms: C_12  and  C_13
REMARK                            x       y       z     vdW  Elec       q    Type
REMARK                         _______ _______ _______ _____ _____    ______ ____
ROOT
ATOM      1  N   UNL     1       3.196   2.469  18.996  0.00  0.00    +0.000 NA
ATOM      2  C   UNL     1       3.606   2.379  17.579  0.00  0.00    +0.000 C 
ATOM      3  C   UNL     1       3.952   3.740  16.916  0.00  0.00    +0.000 C 
ATOM      4  N   UNL     1       4.844   4.663  17.668  0.00  0.00    +0.000 NA
ATOM      5  C   UNL     1       4.593   4.580  19.126  0.00  0.00    +0.000 C 
ATOM      6  C   UNL     1       4.310   3.165  19.686  0.00  0.00    +0.000 C 
ENDROOT
BRANCH   1   7
ATOM      7  C   UNL     1       1.923   3.207  19.189  0.00  0.00    +0.000 C 
BRANCH   7   9
ATOM      8  C   UNL     1       1.358   2.779  21.626  0.00  0.00    +0.000 C 
ATOM      9  C   UNL     1       1.534   3.630  20.597  0.00  0.00    +0.000 C 
ATOM     10  C   UNL     1       1.390   5.115  20.832  0.00  0.00    +0.000 C 
ENDBRANCH   7   9
ENDBRANCH   1   7
BRANCH   4  11
ATOM     11  C   UNL     1       6.254   4.397  17.318  0.00  0.00    +0.000 C 
BRANCH  11  12
ATOM     12  C   UNL     1       6.541   4.464  15.846  0.00  0.00    +0.000 A 
ATOM     13  N   UNL     1       6.051   3.667  14.917  0.00  0.00    +0.000 NA
ATOM     14  C   UNL     1       6.558   4.119  13.721  0.00  0.00    +0.000 A 
ATOM     15  C   UNL     1       6.204   3.446  12.453  0.00  0.00    +0.000 C 
ATOM     16  C   UNL     1       7.373   5.214  13.933  0.00  0.00    +0.000 A 
ATOM     17  N   UNL     1       7.375   5.402  15.288  0.00  0.00    +0.000 N 
ATOM     18  H   UNL     1       7.903   6.091  15.810  0.00  0.00    +0.000 HD
ENDBRANCH  11  12
ENDBRANCH   4  11
TORSDOF 4
ENDMDL
