MODEL 1
REMARK VINA RESULT:      -7.7      0.000      0.000
REMARK  Name = 
REMARK  5 active torsions:
REMARK  status: ('A' for Active; 'I' for Inactive)
REMARK    1  A    between atoms: C_1  and  C_2
REMARK    2  A    between atoms: C_2  and  C_5
REMARK    3  A    between atoms: C_9  and  C_10
REMARK    4  A    between atoms: N_13  and  C_14
REMARK    5  A    between atoms: N_24  and  C_25
REMARK                            x       y       z     vdW  Elec       q    Type
REMARK                         _______ _______ _______ _____ _____    ______ ____
ROOT
ATOM      1  C   UNL     1       0.672  10.671  19.609  0.00  0.00    +0.000 A 
ATOM      2  N   UNL     1      -0.565  10.873  19.158  0.00  0.00    +0.000 NA
ATOM      3  C   UNL     1      -0.841  12.103  18.749  0.00  0.00    +0.000 A 
ATOM      4  N   UNL     1      -2.113  12.354  18.263  0.00  0.00    +0.000 N 
ATOM      5  N   UNL     1       0.039  13.103  18.795  0.00  0.00    +0.000 NA
ATOM      6  C   UNL     1       1.210  12.839  19.375  0.00  0.00    +0.000 A 
ATOM      7  N   UNL     1       2.133  13.812  19.653  0.00  0.00    +0.000 N 
ATOM      8  N   UNL     1       1.590  11.624  19.758  0.00  0.00    +0.000 NA
ATOM      9  H   UNL     1      -2.132  12.931  17.437  0.00  0.00    +0.000 HD
ATOM     10  H   UNL     1       2.957  13.457  20.115  0.00  0.00    +0.000 HD
ENDROOT
BRANCH   4  11
ATOM     11  C   UNL     1      -3.204  11.444  18.613  0.00  0.00    +0.000 C 
ATOM     12  C   UNL     1      -3.759  10.675  17.405  0.00  0.00    +0.000 C 
ATOM     13  C   UNL     1      -4.845  11.394  16.607  0.00  0.00    +0.000 C 
ATOM     14  C   UNL     1      -5.902  12.019  17.494  0.00  0.00    +0.000 C 
ATOM     15  F   UNL     1      -6.615  11.039  18.105  0.00  0.00    +0.000 F 
ATOM     16  F   UNL     1      -6.779  12.716  16.731  0.00  0.00    +0.000 F 
ATOM     17  C   UNL     1      -5.307  12.933  18.544  0.00  0.00    +0.000 C 
ATOM     18  C   UNL     1      -4.286  12.199  19.403  0.00  0.00    +0.000 C 
ENDBRANCH   4  11
BRANCH   7  19
ATOM     19  C   UNL     1       2.129  15.130  19.046  0.00  0.00    +0.000 C 
ATOM     20  C   UNL     1       2.950  15.142  17.750  0.00  0.00    +0.000 C 
ATOM     21  C   UNL     1       4.452  15.000  17.989  0.00  0.00    +0.000 C 
ATOM     22  C   UNL     1       4.965  16.044  18.962  0.00  0.00    +0.000 C 
ATOM     23  F   UNL     1       4.904  17.266  18.369  0.00  0.00    +0.000 F 
ATOM     24  F   UNL     1       6.275  15.810  19.223  0.00  0.00    +0.000 F 
ATOM     25  C   UNL     1       4.192  16.091  20.266  0.00  0.00    +0.000 C 
ATOM     26  C   UNL     1       2.677  16.174  20.042  0.00  0.00    +0.000 C 
ENDBRANCH   7  19
BRANCH   1  31
ATOM     27  C   UNL     1       2.218   7.353  19.292  0.00  0.00    +0.000 A 
ATOM     28  C   UNL     1       1.849   6.764  20.494  0.00  0.00    +0.000 A 
ATOM     29  N   UNL     1       1.091   7.397  21.420  0.00  0.00    +0.000 NA
ATOM     30  C   UNL     1       0.702   8.656  21.092  0.00  0.00    +0.000 A 
ATOM     31  C   UNL     1       1.064   9.282  19.905  0.00  0.00    +0.000 A 
ATOM     32  N   UNL     1       1.836   8.627  18.989  0.00  0.00    +0.000 NA
BRANCH  27  34
ATOM     33  C   UNL     1       4.120   5.735  18.871  0.00  0.00    +0.000 C 
ATOM     34  C   UNL     1       2.972   6.530  18.268  0.00  0.00    +0.000 C 
ATOM     35  F   UNL     1       3.488   7.316  17.275  0.00  0.00    +0.000 F 
ATOM     36  F   UNL     1       2.159   5.637  17.622  0.00  0.00    +0.000 F 
ENDBRANCH  27  34
ENDBRANCH   1  31
TORSDOF 4
ENDMDL
MODEL 2
REMARK VINA RESULT:      -7.6      1.844      8.731
REMARK  Name = 
REMARK  5 active torsions:
REMARK  status: ('A' for Active; 'I' for Inactive)
REMARK    1  A    between atoms: C_1  and  C_2
REMARK    2  A    between atoms: C_2  and  C_5
REMARK    3  A    between atoms: C_9  and  C_10
REMARK    4  A    between atoms: N_13  and  C_14
REMARK    5  A    between atoms: N_24  and  C_25
REMARK                            x       y       z     vdW  Elec       q    Type
REMARK                         _______ _______ _______ _____ _____    ______ ____
ROOT
ATOM      1  C   UNL     1       0.192  12.684  18.847  0.00  0.00    +0.000 A 
ATOM      2  N   UNL     1       0.664  11.439  18.882  0.00  0.00    +0.000 NA
ATOM      3  C   UNL     1      -0.242  10.477  18.976  0.00  0.00    +0.000 A 
ATOM      4  N   UNL     1       0.205   9.166  19.005  0.00  0.00    +0.000 N 
ATOM      5  N   UNL     1      -1.552  10.711  19.056  0.00  0.00    +0.000 NA
ATOM      6  C   UNL     1      -1.924  11.989  19.139  0.00  0.00    +0.000 A 
ATOM      7  N   UNL     1      -3.213  12.368  19.407  0.00  0.00    +0.000 N 
ATOM      8  N   UNL     1      -1.090  13.013  18.994  0.00  0.00    +0.000 NA
ATOM      9  H   UNL     1      -0.342   8.532  18.444  0.00  0.00    +0.000 HD
ATOM     10  H   UNL     1      -3.329  13.368  19.462  0.00  0.00    +0.000 HD
ENDROOT
BRANCH   4  11
ATOM     11  C   UNL     1       1.594   8.894  19.373  0.00  0.00    +0.000 C 
ATOM     12  C   UNL     1       2.414   8.284  18.227  0.00  0.00    +0.000 C 
ATOM     13  C   UNL     1       2.332   6.765  18.091  0.00  0.00    +0.000 C 
ATOM     14  C   UNL     1       2.484   6.053  19.420  0.00  0.00    +0.000 C 
ATOM     15  F   UNL     1       3.751   6.220  19.879  0.00  0.00    +0.000 F 
ATOM     16  F   UNL     1       2.310   4.721  19.243  0.00  0.00    +0.000 F 
ATOM     17  C   UNL     1       1.505   6.558  20.460  0.00  0.00    +0.000 C 
ATOM     18  C   UNL     1       1.642   8.061  20.665  0.00  0.00    +0.000 C 
ENDBRANCH   4  11
BRANCH   7  19
ATOM     19  C   UNL     1      -4.361  11.491  19.266  0.00  0.00    +0.000 C 
ATOM     20  C   UNL     1      -4.543  11.051  17.808  0.00  0.00    +0.000 C 
ATOM     21  C   UNL     1      -5.002  12.184  16.892  0.00  0.00    +0.000 C 
ATOM     22  C   UNL     1      -6.258  12.853  17.414  0.00  0.00    +0.000 C 
ATOM     23  F   UNL     1      -7.297  11.985  17.304  0.00  0.00    +0.000 F 
ATOM     24  F   UNL     1      -6.562  13.916  16.629  0.00  0.00    +0.000 F 
ATOM     25  C   UNL     1      -6.149  13.308  18.857  0.00  0.00    +0.000 C 
ATOM     26  C   UNL     1      -5.633  12.198  19.780  0.00  0.00    +0.000 C 
ENDBRANCH   7  19
BRANCH   1  31
ATOM     27  C   UNL     1       1.607  16.040  18.365  0.00  0.00    +0.000 A 
ATOM     28  C   UNL     1       2.943  15.742  18.132  0.00  0.00    +0.000 A 
ATOM     29  N   UNL     1       3.419  14.475  18.106  0.00  0.00    +0.000 NA
ATOM     30  C   UNL     1       2.496  13.502  18.315  0.00  0.00    +0.000 A 
ATOM     31  C   UNL     1       1.154  13.764  18.567  0.00  0.00    +0.000 A 
ATOM     32  N   UNL     1       0.698  15.050  18.596  0.00  0.00    +0.000 NA
BRANCH  27  34
ATOM     33  C   UNL     1      -0.368  17.619  18.236  0.00  0.00    +0.000 C 
ATOM     34  C   UNL     1       1.145  17.479  18.265  0.00  0.00    +0.000 C 
ATOM     35  F   UNL     1       1.640  18.086  17.144  0.00  0.00    +0.000 F 
ATOM     36  F   UNL     1       1.600  18.243  19.307  0.00  0.00    +0.000 F 
ENDBRANCH  27  34
ENDBRANCH   1  31
TORSDOF 4
ENDMDL
MODEL 3
REMARK VINA RESULT:      -7.3      1.683      6.696
REMARK  Name = 
REMARK  5 active torsions:
REMARK  status: ('A' for Active; 'I' for Inactive)
REMARK    1  A    between atoms: C_1  and  C_2
REMARK    2  A    between atoms: C_2  and  C_5
REMARK    3  A    between atoms: C_9  and  C_10
REMARK    4  A    between atoms: N_13  and  C_14
REMARK    5  A    between atoms: N_24  and  C_25
REMARK                            x       y       z     vdW  Elec       q    Type
REMARK                         _______ _______ _______ _____ _____    ______ ____
ROOT
ATOM      1  C   UNL     1      -1.810  12.690  20.076  0.00  0.00    +0.000 A 
ATOM      2  N   UNL     1      -1.053  11.596  20.011  0.00  0.00    +0.000 NA
ATOM      3  C   UNL     1       0.256  11.790  20.069  0.00  0.00    +0.000 A 
ATOM      4  N   UNL     1       1.079  10.678  20.015  0.00  0.00    +0.000 N 
ATOM      5  N   UNL     1       0.812  12.998  20.161  0.00  0.00    +0.000 NA
ATOM      6  C   UNL     1      -0.016  14.041  20.094  0.00  0.00    +0.000 A 
ATOM      7  N   UNL     1       0.429  15.333  19.994  0.00  0.00    +0.000 N 
ATOM      8  N   UNL     1      -1.341  13.936  20.096  0.00  0.00    +0.000 NA
ATOM      9  H   UNL     1       1.851  10.706  20.662  0.00  0.00    +0.000 HD
ATOM     10  H   UNL     1      -0.320  16.006  19.927  0.00  0.00    +0.000 HD
ENDROOT
BRANCH   4  11
ATOM     11  C   UNL     1       0.555   9.427  19.469  0.00  0.00    +0.000 C 
ATOM     12  C   UNL     1       0.939   8.196  20.302  0.00  0.00    +0.000 C 
ATOM     13  C   UNL     1       2.294   7.572  19.973  0.00  0.00    +0.000 C 
ATOM     14  C   UNL     1       2.515   7.415  18.482  0.00  0.00    +0.000 C 
ATOM     15  F   UNL     1       1.658   6.483  17.994  0.00  0.00    +0.000 F 
ATOM     16  F   UNL     1       3.766   6.945  18.257  0.00  0.00    +0.000 F 
ATOM     17  C   UNL     1       2.320   8.715  17.730  0.00  0.00    +0.000 C 
ATOM     18  C   UNL     1       0.937   9.300  17.985  0.00  0.00    +0.000 C 
ENDBRANCH   4  11
BRANCH   7  19
ATOM     19  C   UNL     1       1.781  15.751  20.313  0.00  0.00    +0.000 C 
ATOM     20  C   UNL     1       1.988  17.238  19.999  0.00  0.00    +0.000 C 
ATOM     21  C   UNL     1       1.998  17.539  18.501  0.00  0.00    +0.000 C 
ATOM     22  C   UNL     1       3.014  16.687  17.765  0.00  0.00    +0.000 C 
ATOM     23  F   UNL     1       4.263  17.082  18.125  0.00  0.00    +0.000 F 
ATOM     24  F   UNL     1       2.909  16.913  16.432  0.00  0.00    +0.000 F 
ATOM     25  C   UNL     1       2.871  15.202  18.038  0.00  0.00    +0.000 C 
ATOM     26  C   UNL     1       2.799  14.888  19.537  0.00  0.00    +0.000 C 
ENDBRANCH   7  19
BRANCH   1  31
ATOM     27  C   UNL     1      -5.288  11.869  19.221  0.00  0.00    +0.000 A 
ATOM     28  C   UNL     1      -5.924  12.072  20.439  0.00  0.00    +0.000 A 
ATOM     29  N   UNL     1      -5.268  12.487  21.549  0.00  0.00    +0.000 NA
ATOM     30  C   UNL     1      -3.938  12.705  21.392  0.00  0.00    +0.000 A 
ATOM     31  C   UNL     1      -3.266  12.499  20.193  0.00  0.00    +0.000 A 
ATOM     32  N   UNL     1      -3.945  12.072  19.089  0.00  0.00    +0.000 NA
BRANCH  27  34
ATOM     33  C   UNL     1      -6.997  12.657  17.528  0.00  0.00    +0.000 C 
ATOM     34  C   UNL     1      -6.120  11.512  18.007  0.00  0.00    +0.000 C 
ATOM     35  F   UNL     1      -6.933  10.441  18.255  0.00  0.00    +0.000 F 
ATOM     36  F   UNL     1      -5.345  11.126  16.945  0.00  0.00    +0.000 F 
ENDBRANCH  27  34
ENDBRANCH   1  31
TORSDOF 4
ENDMDL
MODEL 4
REMARK VINA RESULT:      -7.2      1.512      8.480
REMARK  Name = 
REMARK  5 active torsions:
REMARK  status: ('A' for Active; 'I' for Inactive)
REMARK    1  A    between atoms: C_1  and  C_2
REMARK    2  A    between atoms: C_2  and  C_5
REMARK    3  A    between atoms: C_9  and  C_10
REMARK    4  A    between atoms: N_13  and  C_14
REMARK    5  A    between atoms: N_24  and  C_25
REMARK                            x       y       z     vdW  Elec       q    Type
REMARK                         _______ _______ _______ _____ _____    ______ ____
ROOT
ATOM      1  C   UNL     1       0.560  12.239  18.987  0.00  0.00    +0.000 A 
ATOM      2  N   UNL     1       1.146  11.062  18.769  0.00  0.00    +0.000 NA
ATOM      3  C   UNL     1       0.371  10.113  18.263  0.00  0.00    +0.000 A 
ATOM      4  N   UNL     1       0.942   8.877  18.011  0.00  0.00    +0.000 N 
ATOM      5  N   UNL     1      -0.923  10.289  18.002  0.00  0.00    +0.000 NA
ATOM      6  C   UNL     1      -1.452  11.458  18.367  0.00  0.00    +0.000 A 
ATOM      7  N   UNL     1      -2.799  11.705  18.325  0.00  0.00    +0.000 N 
ATOM      8  N   UNL     1      -0.739  12.482  18.823  0.00  0.00    +0.000 NA
ATOM      9  H   UNL     1       0.659   8.464  17.137  0.00  0.00    +0.000 HD
ATOM     10  H   UNL     1      -3.043  12.626  18.658  0.00  0.00    +0.000 HD
ENDROOT
BRANCH   4  11
ATOM     11  C   UNL     1       2.187   8.514  18.687  0.00  0.00    +0.000 C 
ATOM     12  C   UNL     1       3.078   7.582  17.853  0.00  0.00    +0.000 C 
ATOM     13  C   UNL     1       2.775   6.091  17.981  0.00  0.00    +0.000 C 
ATOM     14  C   UNL     1       2.586   5.657  19.420  0.00  0.00    +0.000 C 
ATOM     15  F   UNL     1       3.768   5.754  20.080  0.00  0.00    +0.000 F 
ATOM     16  F   UNL     1       2.230   4.349  19.455  0.00  0.00    +0.000 F 
ATOM     17  C   UNL     1       1.542   6.485  20.139  0.00  0.00    +0.000 C 
ATOM     18  C   UNL     1       1.884   7.969  20.092  0.00  0.00    +0.000 C 
ENDBRANCH   4  11
BRANCH   7  19
ATOM     19  C   UNL     1      -3.745  10.913  17.562  0.00  0.00    +0.000 C 
ATOM     20  C   UNL     1      -4.635  11.807  16.690  0.00  0.00    +0.000 C 
ATOM     21  C   UNL     1      -5.628  12.639  17.500  0.00  0.00    +0.000 C 
ATOM     22  C   UNL     1      -6.468  11.772  18.417  0.00  0.00    +0.000 C 
ATOM     23  F   UNL     1      -7.308  11.018  17.662  0.00  0.00    +0.000 F 
ATOM     24  F   UNL     1      -7.254  12.564  19.190  0.00  0.00    +0.000 F 
ATOM     25  C   UNL     1      -5.649  10.856  19.306  0.00  0.00    +0.000 C 
ATOM     26  C   UNL     1      -4.607  10.057  18.514  0.00  0.00    +0.000 C 
ENDBRANCH   7  19
BRANCH   1  31
ATOM     27  C   UNL     1       3.008  14.973  18.796  0.00  0.00    +0.000 A 
ATOM     28  C   UNL     1       2.957  15.476  20.089  0.00  0.00    +0.000 A 
ATOM     29  N   UNL     1       2.160  14.951  21.050  0.00  0.00    +0.000 NA
ATOM     30  C   UNL     1       1.414  13.884  20.669  0.00  0.00    +0.000 A 
ATOM     31  C   UNL     1       1.428  13.362  19.380  0.00  0.00    +0.000 A 
ATOM     32  N   UNL     1       2.233  13.913  18.425  0.00  0.00    +0.000 NA
BRANCH  27  34
ATOM     33  C   UNL     1       5.343  14.822  17.828  0.00  0.00    +0.000 C 
ATOM     34  C   UNL     1       4.010  15.552  17.819  0.00  0.00    +0.000 C 
ATOM     35  F   UNL     1       4.257  16.872  18.079  0.00  0.00    +0.000 F 
ATOM     36  F   UNL     1       3.547  15.531  16.530  0.00  0.00    +0.000 F 
ENDBRANCH  27  34
ENDBRANCH   1  31
TORSDOF 4
ENDMDL
MODEL 5
REMARK VINA RESULT:      -7.2      1.193      1.467
REMARK  Name = 
REMARK  5 active torsions:
REMARK  status: ('A' for Active; 'I' for Inactive)
REMARK    1  A    between atoms: C_1  and  C_2
REMARK    2  A    between atoms: C_2  and  C_5
REMARK    3  A    between atoms: C_9  and  C_10
REMARK    4  A    between atoms: N_13  and  C_14
REMARK    5  A    between atoms: N_24  and  C_25
REMARK                            x       y       z     vdW  Elec       q    Type
REMARK                         _______ _______ _______ _____ _____    ______ ____
ROOT
ATOM      1  C   UNL     1       0.544  10.821  19.350  0.00  0.00    +0.000 A 
ATOM      2  N   UNL     1      -0.689  10.938  18.859  0.00  0.00    +0.000 NA
ATOM      3  C   UNL     1      -1.017  12.135  18.394  0.00  0.00    +0.000 A 
ATOM      4  N   UNL     1      -2.287  12.298  17.865  0.00  0.00    +0.000 N 
ATOM      5  N   UNL     1      -0.193  13.181  18.423  0.00  0.00    +0.000 NA
ATOM      6  C   UNL     1       0.974  13.004  19.044  0.00  0.00    +0.000 A 
ATOM      7  N   UNL     1       1.836  14.035  19.307  0.00  0.00    +0.000 N 
ATOM      8  N   UNL     1       1.406  11.827  19.484  0.00  0.00    +0.000 NA
ATOM      9  H   UNL     1      -2.312  12.841  17.017  0.00  0.00    +0.000 HD
ATOM     10  H   UNL     1       2.664  13.743  19.804  0.00  0.00    +0.000 HD
ENDROOT
BRANCH   4  11
ATOM     11  C   UNL     1      -3.337  11.345  18.222  0.00  0.00    +0.000 C 
ATOM     12  C   UNL     1      -4.214  10.938  17.029  0.00  0.00    +0.000 C 
ATOM     13  C   UNL     1      -5.392  11.862  16.730  0.00  0.00    +0.000 C 
ATOM     14  C   UNL     1      -6.165  12.242  17.977  0.00  0.00    +0.000 C 
ATOM     15  F   UNL     1      -6.795  11.145  18.469  0.00  0.00    +0.000 F 
ATOM     16  F   UNL     1      -7.135  13.133  17.654  0.00  0.00    +0.000 F 
ATOM     17  C   UNL     1      -5.274  12.831  19.050  0.00  0.00    +0.000 C 
ATOM     18  C   UNL     1      -4.145  11.876  19.418  0.00  0.00    +0.000 C 
ENDBRANCH   4  11
BRANCH   7  19
ATOM     19  C   UNL     1       1.780  15.326  18.647  0.00  0.00    +0.000 C 
ATOM     20  C   UNL     1       3.147  16.020  18.675  0.00  0.00    +0.000 C 
ATOM     21  C   UNL     1       3.554  16.489  20.071  0.00  0.00    +0.000 C 
ATOM     22  C   UNL     1       2.490  17.369  20.698  0.00  0.00    +0.000 C 
ATOM     23  F   UNL     1       2.442  18.548  20.025  0.00  0.00    +0.000 F 
ATOM     24  F   UNL     1       2.848  17.669  21.972  0.00  0.00    +0.000 F 
ATOM     25  C   UNL     1       1.108  16.745  20.697  0.00  0.00    +0.000 C 
ATOM     26  C   UNL     1       0.709  16.215  19.315  0.00  0.00    +0.000 C 
ENDBRANCH   7  19
BRANCH   1  31
ATOM     27  C   UNL     1       2.201   7.546  19.167  0.00  0.00    +0.000 A 
ATOM     28  C   UNL     1       1.903   7.019  20.416  0.00  0.00    +0.000 A 
ATOM     29  N   UNL     1       1.159   7.681  21.334  0.00  0.00    +0.000 NA
ATOM     30  C   UNL     1       0.710   8.902  20.948  0.00  0.00    +0.000 A 
ATOM     31  C   UNL     1       1.001   9.467  19.712  0.00  0.00    +0.000 A 
ATOM     32  N   UNL     1       1.759   8.785  18.805  0.00  0.00    +0.000 NA
BRANCH  27  34
ATOM     33  C   UNL     1       4.051   5.858  18.793  0.00  0.00    +0.000 C 
ATOM     34  C   UNL     1       2.945   6.689  18.163  0.00  0.00    +0.000 C 
ATOM     35  F   UNL     1       3.507   7.449  17.175  0.00  0.00    +0.000 F 
ATOM     36  F   UNL     1       2.112   5.821  17.507  0.00  0.00    +0.000 F 
ENDBRANCH  27  34
ENDBRANCH   1  31
TORSDOF 4
ENDMDL
MODEL 6
REMARK VINA RESULT:      -7.0      5.663     10.035
REMARK  Name = 
REMARK  5 active torsions:
REMARK  status: ('A' for Active; 'I' for Inactive)
REMARK    1  A    between atoms: C_1  and  C_2
REMARK    2  A    between atoms: C_2  and  C_5
REMARK    3  A    between atoms: C_9  and  C_10
REMARK    4  A    between atoms: N_13  and  C_14
REMARK    5  A    between atoms: N_24  and  C_25
REMARK                            x       y       z     vdW  Elec       q    Type
REMARK                         _______ _______ _______ _____ _____    ______ ____
ROOT
ATOM      1  C   UNL     1       6.125  13.579  22.925  0.00  0.00    +0.000 A 
ATOM      2  N   UNL     1       7.153  13.812  22.111  0.00  0.00    +0.000 NA
ATOM      3  C   UNL     1       6.869  14.447  20.983  0.00  0.00    +0.000 A 
ATOM      4  N   UNL     1       7.910  14.718  20.112  0.00  0.00    +0.000 N 
ATOM      5  N   UNL     1       5.635  14.820  20.646  0.00  0.00    +0.000 NA
ATOM      6  C   UNL     1       4.652  14.435  21.461  0.00  0.00    +0.000 A 
ATOM      7  N   UNL     1       3.328  14.590  21.148  0.00  0.00    +0.000 N 
ATOM      8  N   UNL     1       4.853  13.850  22.638  0.00  0.00    +0.000 NA
ATOM      9  H   UNL     1       7.877  15.640  19.705  0.00  0.00    +0.000 HD
ATOM     10  H   UNL     1       2.708  14.227  21.856  0.00  0.00    +0.000 HD
ENDROOT
BRANCH   4  11
ATOM     11  C   UNL     1       9.150  13.950  20.220  0.00  0.00    +0.000 C 
ATOM     12  C   UNL     1      10.406  14.786  19.931  0.00  0.00    +0.000 C 
ATOM     13  C   UNL     1      10.803  14.895  18.461  0.00  0.00    +0.000 C 
ATOM     14  C   UNL     1      10.759  13.560  17.746  0.00  0.00    +0.000 C 
ATOM     15  F   UNL     1      11.736  12.754  18.235  0.00  0.00    +0.000 F 
ATOM     16  F   UNL     1      11.031  13.742  16.430  0.00  0.00    +0.000 F 
ATOM     17  C   UNL     1       9.420  12.870  17.895  0.00  0.00    +0.000 C 
ATOM     18  C   UNL     1       9.057  12.677  19.362  0.00  0.00    +0.000 C 
ENDBRANCH   4  11
BRANCH   7  19
ATOM     19  C   UNL     1       2.839  15.488  20.118  0.00  0.00    +0.000 C 
ATOM     20  C   UNL     1       1.545  16.183  20.561  0.00  0.00    +0.000 C 
ATOM     21  C   UNL     1       0.348  15.236  20.633  0.00  0.00    +0.000 C 
ATOM     22  C   UNL     1       0.141  14.495  19.326  0.00  0.00    +0.000 C 
ATOM     23  F   UNL     1      -0.274  15.378  18.381  0.00  0.00    +0.000 F 
ATOM     24  F   UNL     1      -0.860  13.593  19.475  0.00  0.00    +0.000 F 
ATOM     25  C   UNL     1       1.387  13.788  18.825  0.00  0.00    +0.000 C 
ATOM     26  C   UNL     1       2.611  14.711  18.804  0.00  0.00    +0.000 C 
ENDBRANCH   7  19
BRANCH   1  31
ATOM     27  C   UNL     1       5.833  11.671  26.052  0.00  0.00    +0.000 A 
ATOM     28  C   UNL     1       7.036  11.981  26.674  0.00  0.00    +0.000 A 
ATOM     29  N   UNL     1       7.954  12.811  26.125  0.00  0.00    +0.000 NA
ATOM     30  C   UNL     1       7.617  13.335  24.919  0.00  0.00    +0.000 A 
ATOM     31  C   UNL     1       6.430  13.036  24.260  0.00  0.00    +0.000 A 
ATOM     32  N   UNL     1       5.523  12.191  24.829  0.00  0.00    +0.000 NA
BRANCH  27  34
ATOM     33  C   UNL     1       5.441   9.957  27.874  0.00  0.00    +0.000 C 
ATOM     34  C   UNL     1       4.819  10.823  26.790  0.00  0.00    +0.000 C 
ATOM     35  F   UNL     1       4.142   9.996  25.937  0.00  0.00    +0.000 F 
ATOM     36  F   UNL     1       3.847  11.581  27.388  0.00  0.00    +0.000 F 
ENDBRANCH  27  34
ENDBRANCH   1  31
TORSDOF 4
ENDMDL
MODEL 7
REMARK VINA RESULT:      -6.9      3.423      7.491
REMARK  Name = 
REMARK  5 active torsions:
REMARK  status: ('A' for Active; 'I' for Inactive)
REMARK    1  A    between atoms: C_1  and  C_2
REMARK    2  A    between atoms: C_2  and  C_5
REMARK    3  A    between atoms: C_9  and  C_10
REMARK    4  A    between atoms: N_13  and  C_14
REMARK    5  A    between atoms: N_24  and  C_25
REMARK                            x       y       z     vdW  Elec       q    Type
REMARK                         _______ _______ _______ _____ _____    ______ ____
ROOT
ATOM      1  C   UNL     1      -0.239  11.540  21.602  0.00  0.00    +0.000 A 
ATOM      2  N   UNL     1       0.455  12.668  21.459  0.00  0.00    +0.000 NA
ATOM      3  C   UNL     1      -0.074  13.749  22.013  0.00  0.00    +0.000 A 
ATOM      4  N   UNL     1       0.619  14.942  21.896  0.00  0.00    +0.000 N 
ATOM      5  N   UNL     1      -1.240  13.744  22.659  0.00  0.00    +0.000 NA
ATOM      6  C   UNL     1      -1.923  12.598  22.645  0.00  0.00    +0.000 A 
ATOM      7  N   UNL     1      -3.208  12.498  23.110  0.00  0.00    +0.000 N 
ATOM      8  N   UNL     1      -1.441  11.455  22.167  0.00  0.00    +0.000 NA
ATOM      9  H   UNL     1       0.636  15.493  22.741  0.00  0.00    +0.000 HD
ATOM     10  H   UNL     1      -3.595  11.571  23.008  0.00  0.00    +0.000 HD
ENDROOT
BRANCH   4  11
ATOM     11  C   UNL     1       1.625  15.084  20.844  0.00  0.00    +0.000 C 
ATOM     12  C   UNL     1       2.458  16.368  20.974  0.00  0.00    +0.000 C 
ATOM     13  C   UNL     1       1.855  17.614  20.328  0.00  0.00    +0.000 C 
ATOM     14  C   UNL     1       1.324  17.348  18.934  0.00  0.00    +0.000 C 
ATOM     15  F   UNL     1       2.361  17.080  18.100  0.00  0.00    +0.000 F 
ATOM     16  F   UNL     1       0.723  18.466  18.458  0.00  0.00    +0.000 F 
ATOM     17  C   UNL     1       0.345  16.194  18.901  0.00  0.00    +0.000 C 
ATOM     18  C   UNL     1       0.968  14.922  19.463  0.00  0.00    +0.000 C 
ENDBRANCH   4  11
BRANCH   7  19
ATOM     19  C   UNL     1      -3.833  13.475  23.980  0.00  0.00    +0.000 C 
ATOM     20  C   UNL     1      -4.651  12.790  25.082  0.00  0.00    +0.000 C 
ATOM     21  C   UNL     1      -5.911  12.105  24.557  0.00  0.00    +0.000 C 
ATOM     22  C   UNL     1      -6.777  13.061  23.760  0.00  0.00    +0.000 C 
ATOM     23  F   UNL     1      -7.308  13.983  24.605  0.00  0.00    +0.000 F 
ATOM     24  F   UNL     1      -7.824  12.382  23.227  0.00  0.00    +0.000 F 
ATOM     25  C   UNL     1      -6.028  13.781  22.655  0.00  0.00    +0.000 C 
ATOM     26  C   UNL     1      -4.729  14.423  23.154  0.00  0.00    +0.000 C 
ENDBRANCH   7  19
BRANCH   1  31
ATOM     27  C   UNL     1       1.490   9.085  19.484  0.00  0.00    +0.000 A 
ATOM     28  C   UNL     1       1.652   8.027  20.369  0.00  0.00    +0.000 A 
ATOM     29  N   UNL     1       1.205   8.063  21.646  0.00  0.00    +0.000 NA
ATOM     30  C   UNL     1       0.571   9.207  22.009  0.00  0.00    +0.000 A 
ATOM     31  C   UNL     1       0.403  10.291  21.155  0.00  0.00    +0.000 A 
ATOM     32  N   UNL     1       0.870  10.236  19.874  0.00  0.00    +0.000 NA
BRANCH  27  34
ATOM     33  C   UNL     1       2.986   7.842  17.863  0.00  0.00    +0.000 C 
ATOM     34  C   UNL     1       1.923   8.913  18.043  0.00  0.00    +0.000 C 
ATOM     35  F   UNL     1       2.417  10.079  17.527  0.00  0.00    +0.000 F 
ATOM     36  F   UNL     1       0.876   8.584  17.224  0.00  0.00    +0.000 F 
ENDBRANCH  27  34
ENDBRANCH   1  31
TORSDOF 4
ENDMDL
MODEL 8
REMARK VINA RESULT:      -6.9      5.905      7.544
REMARK  Name = 
REMARK  5 active torsions:
REMARK  status: ('A' for Active; 'I' for Inactive)
REMARK    1  A    between atoms: C_1  and  C_2
REMARK    2  A    between atoms: C_2  and  C_5
REMARK    3  A    between atoms: C_9  and  C_10
REMARK    4  A    between atoms: N_13  and  C_14
REMARK    5  A    between atoms: N_24  and  C_25
REMARK                            x       y       z     vdW  Elec       q    Type
REMARK                         _______ _______ _______ _____ _____    ______ ____
ROOT
ATOM      1  C   UNL     1       5.478  14.709  22.102  0.00  0.00    +0.000 A 
ATOM      2  N   UNL     1       4.323  14.937  21.479  0.00  0.00    +0.000 NA
ATOM      3  C   UNL     1       4.386  15.053  20.161  0.00  0.00    +0.000 A 
ATOM      4  N   UNL     1       3.206  15.280  19.473  0.00  0.00    +0.000 N 
ATOM      5  N   UNL     1       5.526  14.976  19.475  0.00  0.00    +0.000 NA
ATOM      6  C   UNL     1       6.647  14.872  20.191  0.00  0.00    +0.000 A 
ATOM      7  N   UNL     1       7.893  14.965  19.631  0.00  0.00    +0.000 N 
ATOM      8  N   UNL     1       6.669  14.689  21.507  0.00  0.00    +0.000 NA
ATOM      9  H   UNL     1       3.117  14.747  18.622  0.00  0.00    +0.000 HD
ATOM     10  H   UNL     1       8.638  14.890  20.307  0.00  0.00    +0.000 HD
ENDROOT
BRANCH   4  11
ATOM     11  C   UNL     1       2.050  15.813  20.193  0.00  0.00    +0.000 C 
ATOM     12  C   UNL     1       0.762  15.017  19.941  0.00  0.00    +0.000 C 
ATOM     13  C   UNL     1      -0.036  15.427  18.705  0.00  0.00    +0.000 C 
ATOM     14  C   UNL     1      -0.192  16.929  18.585  0.00  0.00    +0.000 C 
ATOM     15  F   UNL     1      -0.988  17.381  19.588  0.00  0.00    +0.000 F 
ATOM     16  F   UNL     1      -0.827  17.227  17.425  0.00  0.00    +0.000 F 
ATOM     17  C   UNL     1       1.136  17.653  18.636  0.00  0.00    +0.000 C 
ATOM     18  C   UNL     1       1.901  17.317  19.910  0.00  0.00    +0.000 C 
ENDBRANCH   4  11
BRANCH   7  19
ATOM     19  C   UNL     1       8.157  14.816  18.212  0.00  0.00    +0.000 C 
ATOM     20  C   UNL     1       8.156  13.338  17.802  0.00  0.00    +0.000 C 
ATOM     21  C   UNL     1       9.356  12.563  18.345  0.00  0.00    +0.000 C 
ATOM     22  C   UNL     1      10.667  13.225  17.968  0.00  0.00    +0.000 C 
ATOM     23  F   UNL     1      10.853  13.101  16.628  0.00  0.00    +0.000 F 
ATOM     24  F   UNL     1      11.692  12.564  18.561  0.00  0.00    +0.000 F 
ATOM     25  C   UNL     1      10.733  14.695  18.339  0.00  0.00    +0.000 C 
ATOM     26  C   UNL     1       9.506  15.475  17.852  0.00  0.00    +0.000 C 
ENDBRANCH   7  19
BRANCH   1  31
ATOM     27  C   UNL     1       5.608  12.842  25.264  0.00  0.00    +0.000 A 
ATOM     28  C   UNL     1       5.394  13.856  26.188  0.00  0.00    +0.000 A 
ATOM     29  N   UNL     1       5.188  15.145  25.830  0.00  0.00    +0.000 NA
ATOM     30  C   UNL     1       5.195  15.386  24.494  0.00  0.00    +0.000 A 
ATOM     31  C   UNL     1       5.420  14.400  23.541  0.00  0.00    +0.000 A 
ATOM     32  N   UNL     1       5.633  13.108  23.926  0.00  0.00    +0.000 NA
BRANCH  27  34
ATOM     33  C   UNL     1       4.871  11.134  26.981  0.00  0.00    +0.000 C 
ATOM     34  C   UNL     1       5.718  11.412  25.750  0.00  0.00    +0.000 C 
ATOM     35  F   UNL     1       7.011  11.084  26.053  0.00  0.00    +0.000 F 
ATOM     36  F   UNL     1       5.343  10.509  24.791  0.00  0.00    +0.000 F 
ENDBRANCH  27  34
ENDBRANCH   1  31
TORSDOF 4
ENDMDL
MODEL 9
REMARK VINA RESULT:      -6.8      1.590      8.403
REMARK  Name = 
REMARK  5 active torsions:
REMARK  status: ('A' for Active; 'I' for Inactive)
REMARK    1  A    between atoms: C_1  and  C_2
REMARK    2  A    between atoms: C_2  and  C_5
REMARK    3  A    between atoms: C_9  and  C_10
REMARK    4  A    between atoms: N_13  and  C_14
REMARK    5  A    between atoms: N_24  and  C_25
REMARK                            x       y       z     vdW  Elec       q    Type
REMARK                         _______ _______ _______ _____ _____    ______ ____
ROOT
ATOM      1  C   UNL     1      -0.135  13.072  19.021  0.00  0.00    +0.000 A 
ATOM      2  N   UNL     1       0.415  11.864  18.909  0.00  0.00    +0.000 NA
ATOM      3  C   UNL     1      -0.430  10.845  18.842  0.00  0.00    +0.000 A 
ATOM      4  N   UNL     1       0.100   9.572  18.716  0.00  0.00    +0.000 N 
ATOM      5  N   UNL     1      -1.753  10.987  18.906  0.00  0.00    +0.000 NA
ATOM      6  C   UNL     1      -2.209  12.218  19.143  0.00  0.00    +0.000 A 
ATOM      7  N   UNL     1      -3.527  12.480  19.411  0.00  0.00    +0.000 N 
ATOM      8  N   UNL     1      -1.439  13.301  19.164  0.00  0.00    +0.000 NA
ATOM      9  H   UNL     1      -0.390   8.986  18.057  0.00  0.00    +0.000 HD
ATOM     10  H   UNL     1      -3.708  13.455  19.593  0.00  0.00    +0.000 HD
ENDROOT
BRANCH   4  11
ATOM     11  C   UNL     1       1.492   9.336  19.094  0.00  0.00    +0.000 C 
ATOM     12  C   UNL     1       2.320   8.684  17.978  0.00  0.00    +0.000 C 
ATOM     13  C   UNL     1       2.259   7.159  17.915  0.00  0.00    +0.000 C 
ATOM     14  C   UNL     1       2.422   6.514  19.276  0.00  0.00    +0.000 C 
ATOM     15  F   UNL     1       3.686   6.719  19.724  0.00  0.00    +0.000 F 
ATOM     16  F   UNL     1       2.266   5.172  19.162  0.00  0.00    +0.000 F 
ATOM     17  C   UNL     1       1.437   7.053  20.291  0.00  0.00    +0.000 C 
ATOM     18  C   UNL     1       1.552   8.567  20.425  0.00  0.00    +0.000 C 
ENDBRANCH   4  11
BRANCH   7  19
ATOM     19  C   UNL     1      -4.611  11.562  19.115  0.00  0.00    +0.000 C 
ATOM     20  C   UNL     1      -5.054  11.685  17.652  0.00  0.00    +0.000 C 
ATOM     21  C   UNL     1      -5.771  13.000  17.349  0.00  0.00    +0.000 C 
ATOM     22  C   UNL     1      -6.941  13.228  18.287  0.00  0.00    +0.000 C 
ATOM     23  F   UNL     1      -7.914  12.323  18.004  0.00  0.00    +0.000 F 
ATOM     24  F   UNL     1      -7.475  14.452  18.050  0.00  0.00    +0.000 F 
ATOM     25  C   UNL     1      -6.574  13.114  19.754  0.00  0.00    +0.000 C 
ATOM     26  C   UNL     1      -5.801  11.826  20.063  0.00  0.00    +0.000 C 
ENDBRANCH   7  19
BRANCH   1  31
ATOM     27  C   UNL     1       2.925  15.087  18.749  0.00  0.00    +0.000 A 
ATOM     28  C   UNL     1       2.400  16.369  18.651  0.00  0.00    +0.000 A 
ATOM     29  N   UNL     1       1.071  16.622  18.685  0.00  0.00    +0.000 NA
ATOM     30  C   UNL     1       0.274  15.533  18.833  0.00  0.00    +0.000 A 
ATOM     31  C   UNL     1       0.763  14.235  18.920  0.00  0.00    +0.000 A 
ATOM     32  N   UNL     1       2.107  14.002  18.875  0.00  0.00    +0.000 NA
BRANCH  27  34
ATOM     33  C   UNL     1       5.194  16.185  18.504  0.00  0.00    +0.000 C 
ATOM     34  C   UNL     1       4.428  14.909  18.814  0.00  0.00    +0.000 C 
ATOM     35  F   UNL     1       4.856  13.946  17.942  0.00  0.00    +0.000 F 
ATOM     36  F   UNL     1       4.845  14.477  20.045  0.00  0.00    +0.000 F 
ENDBRANCH  27  34
ENDBRANCH   1  31
TORSDOF 4
ENDMDL
