MODEL 1
REMARK VINA RESULT:      -7.8      0.000      0.000
REMARK  Name = 
REMARK  10 active torsions:
REMARK  status: ('A' for Active; 'I' for Inactive)
REMARK    1  A    between atoms: C_1  and  C_2
REMARK    2  A    between atoms: C_2  and  C_3
REMARK    3  A    between atoms: C_2  and  C_4
REMARK    4  A    between atoms: C_4  and  C_5
REMARK    5  A    between atoms: C_5  and  S_6
REMARK    6  A    between atoms: S_6  and  N_9
REMARK    7  A    between atoms: C_13  and  C_14
REMARK    8  A    between atoms: N_16  and  C_17
REMARK    9  A    between atoms: C_17  and  C_18
REMARK   10  A    between atoms: C_21  and  C_22
REMARK                            x       y       z     vdW  Elec       q    Type
REMARK                         _______ _______ _______ _____ _____    ______ ____
ROOT
ATOM      1  C   UNL     1       4.178   7.026  17.174  0.00  0.00    +0.000 C 
ATOM      2  O   UNL     1       4.284   7.526  16.057  0.00  0.00    +0.000 OA
ATOM      3  N   UNL     1       3.241   7.436  18.096  0.00  0.00    +0.000 N 
ATOM      4  H   UNL     1       3.252   6.959  18.991  0.00  0.00    +0.000 HD
ENDROOT
BRANCH   1   9
ATOM      5  N   UNL     1       4.313   4.540  17.569  0.00  0.00    +0.000 NA
ATOM      6  C   UNL     1       4.796   3.878  16.329  0.00  0.00    +0.000 C 
ATOM      7  C   UNL     1       6.254   4.268  16.224  0.00  0.00    +0.000 C 
ATOM      8  C   UNL     1       6.282   5.704  16.717  0.00  0.00    +0.000 C 
ATOM      9  C   UNL     1       5.066   5.862  17.641  0.00  0.00    +0.000 C 
BRANCH   5  10
ATOM     10  S   UNL     1       4.448   3.647  19.021  0.00  0.00    +0.000 S 
ATOM     11  O   UNL     1       5.759   3.932  19.559  0.00  0.00    +0.000 OA
ATOM     12  O   UNL     1       4.028   2.288  18.749  0.00  0.00    +0.000 OA
BRANCH  10  13
ATOM     13  C   UNL     1       3.232   4.433  20.078  0.00  0.00    +0.000 C 
BRANCH  13  14
ATOM     14  C   UNL     1       1.861   4.434  19.404  0.00  0.00    +0.000 C 
BRANCH  14  16
ATOM     15  C   UNL     1       0.626   2.298  18.969  0.00  0.00    +0.000 C 
ATOM     16  C   UNL     1       0.875   3.411  19.991  0.00  0.00    +0.000 C 
ATOM     17  C   UNL     1       1.375   2.802  21.303  0.00  0.00    +0.000 C 
ENDBRANCH  14  16
ENDBRANCH  13  14
ENDBRANCH  10  13
ENDBRANCH   5  10
ENDBRANCH   1   9
BRANCH   3  18
ATOM     18  C   UNL     1       2.284   8.489  17.849  0.00  0.00    +0.000 C 
BRANCH  18  19
ATOM     19  C   UNL     1       1.565   8.902  19.111  0.00  0.00    +0.000 A 
ATOM     20  C   UNL     1       1.685   8.136  20.281  0.00  0.00    +0.000 A 
ATOM     21  C   UNL     1       1.068   8.545  21.468  0.00  0.00    +0.000 A 
ATOM     22  C   UNL     1       0.329   9.730  21.503  0.00  0.00    +0.000 A 
ATOM     23  C   UNL     1       0.185  10.489  20.336  0.00  0.00    +0.000 A 
ATOM     24  C   UNL     1       0.803  10.079  19.150  0.00  0.00    +0.000 A 
BRANCH  22  25
ATOM     25  C   UNL     1      -0.307  10.174  22.777  0.00  0.00    +0.000 C 
ATOM     26  N   UNL     1      -0.016   9.657  23.929  0.00  0.00    +0.000 NA
ATOM     27  N   UNL     1      -1.241  11.167  22.779  0.00  0.00    +0.000 N 
ATOM     28  H   UNL     1       0.647   8.884  23.835  0.00  0.00    +0.000 HD
ATOM     29  H   UNL     1      -1.102  11.919  22.115  0.00  0.00    +0.000 HD
ATOM     30  H   UNL     1      -1.417  11.500  23.723  0.00  0.00    +0.000 HD
ENDBRANCH  22  25
ENDBRANCH  18  19
ENDBRANCH   3  18
TORSDOF 8
ENDMDL
MODEL 2
REMARK VINA RESULT:      -7.7      2.193      4.473
REMARK  Name = 
REMARK  10 active torsions:
REMARK  status: ('A' for Active; 'I' for Inactive)
REMARK    1  A    between atoms: C_1  and  C_2
REMARK    2  A    between atoms: C_2  and  C_3
REMARK    3  A    between atoms: C_2  and  C_4
REMARK    4  A    between atoms: C_4  and  C_5
REMARK    5  A    between atoms: C_5  and  S_6
REMARK    6  A    between atoms: S_6  and  N_9
REMARK    7  A    between atoms: C_13  and  C_14
REMARK    8  A    between atoms: N_16  and  C_17
REMARK    9  A    between atoms: C_17  and  C_18
REMARK   10  A    between atoms: C_21  and  C_22
REMARK                            x       y       z     vdW  Elec       q    Type
REMARK                         _______ _______ _______ _____ _____    ______ ____
ROOT
ATOM      1  C   UNL     1       2.426   5.925  19.827  0.00  0.00    +0.000 C 
ATOM      2  O   UNL     1       3.464   6.404  19.379  0.00  0.00    +0.000 OA
ATOM      3  N   UNL     1       1.583   6.613  20.670  0.00  0.00    +0.000 N 
ATOM      4  H   UNL     1       0.758   6.114  20.987  0.00  0.00    +0.000 HD
ENDROOT
BRANCH   1   9
ATOM      5  N   UNL     1       3.083   3.504  19.572  0.00  0.00    +0.000 NA
ATOM      6  C   UNL     1       2.860   2.804  20.865  0.00  0.00    +0.000 C 
ATOM      7  C   UNL     1       1.356   2.718  21.003  0.00  0.00    +0.000 C 
ATOM      8  C   UNL     1       0.862   4.036  20.434  0.00  0.00    +0.000 C 
ATOM      9  C   UNL     1       1.946   4.512  19.458  0.00  0.00    +0.000 C 
BRANCH   5  10
ATOM     10  S   UNL     1       3.212   2.524  18.177  0.00  0.00    +0.000 S 
ATOM     11  O   UNL     1       2.047   2.803  17.369  0.00  0.00    +0.000 OA
ATOM     12  O   UNL     1       3.522   1.176  18.607  0.00  0.00    +0.000 OA
BRANCH  10  13
ATOM     13  C   UNL     1       4.643   3.215  17.346  0.00  0.00    +0.000 C 
BRANCH  13  14
ATOM     14  C   UNL     1       4.254   4.476  16.577  0.00  0.00    +0.000 C 
BRANCH  14  16
ATOM     15  C   UNL     1       5.671   4.458  14.510  0.00  0.00    +0.000 C 
ATOM     16  C   UNL     1       5.429   5.155  15.853  0.00  0.00    +0.000 C 
ATOM     17  C   UNL     1       5.190   6.648  15.622  0.00  0.00    +0.000 C 
ENDBRANCH  14  16
ENDBRANCH  13  14
ENDBRANCH  10  13
ENDBRANCH   5  10
ENDBRANCH   1   9
BRANCH   3  18
ATOM     18  C   UNL     1       1.824   7.965  21.114  0.00  0.00    +0.000 C 
BRANCH  18  19
ATOM     19  C   UNL     1       0.988   8.965  20.352  0.00  0.00    +0.000 A 
ATOM     20  C   UNL     1      -0.026   9.687  21.001  0.00  0.00    +0.000 A 
ATOM     21  C   UNL     1      -0.765  10.655  20.314  0.00  0.00    +0.000 A 
ATOM     22  C   UNL     1      -0.493  10.922  18.969  0.00  0.00    +0.000 A 
ATOM     23  C   UNL     1       0.500  10.192  18.307  0.00  0.00    +0.000 A 
ATOM     24  C   UNL     1       1.238   9.223  18.996  0.00  0.00    +0.000 A 
BRANCH  22  25
ATOM     25  C   UNL     1      -1.267  11.972  18.247  0.00  0.00    +0.000 C 
ATOM     26  N   UNL     1      -1.553  13.123  18.771  0.00  0.00    +0.000 NA
ATOM     27  N   UNL     1      -1.714  11.759  16.977  0.00  0.00    +0.000 N 
ATOM     28  H   UNL     1      -1.234  13.183  19.740  0.00  0.00    +0.000 HD
ATOM     29  H   UNL     1      -1.110  11.217  16.371  0.00  0.00    +0.000 HD
ATOM     30  H   UNL     1      -2.027  12.626  16.550  0.00  0.00    +0.000 HD
ENDBRANCH  22  25
ENDBRANCH  18  19
ENDBRANCH   3  18
TORSDOF 8
ENDMDL
MODEL 3
REMARK VINA RESULT:      -7.7      2.133      4.465
REMARK  Name = 
REMARK  10 active torsions:
REMARK  status: ('A' for Active; 'I' for Inactive)
REMARK    1  A    between atoms: C_1  and  C_2
REMARK    2  A    between atoms: C_2  and  C_3
REMARK    3  A    between atoms: C_2  and  C_4
REMARK    4  A    between atoms: C_4  and  C_5
REMARK    5  A    between atoms: C_5  and  S_6
REMARK    6  A    between atoms: S_6  and  N_9
REMARK    7  A    between atoms: C_13  and  C_14
REMARK    8  A    between atoms: N_16  and  C_17
REMARK    9  A    between atoms: C_17  and  C_18
REMARK   10  A    between atoms: C_21  and  C_22
REMARK                            x       y       z     vdW  Elec       q    Type
REMARK                         _______ _______ _______ _____ _____    ______ ____
ROOT
ATOM      1  C   UNL     1       2.318   6.042  19.763  0.00  0.00    +0.000 C 
ATOM      2  O   UNL     1       3.293   6.541  19.206  0.00  0.00    +0.000 OA
ATOM      3  N   UNL     1       1.570   6.706  20.709  0.00  0.00    +0.000 N 
ATOM      4  H   UNL     1       0.794   6.192  21.111  0.00  0.00    +0.000 HD
ENDROOT
BRANCH   1   9
ATOM      5  N   UNL     1       2.966   3.629  19.428  0.00  0.00    +0.000 NA
ATOM      6  C   UNL     1       2.870   2.917  20.730  0.00  0.00    +0.000 C 
ATOM      7  C   UNL     1       1.387   2.818  21.009  0.00  0.00    +0.000 C 
ATOM      8  C   UNL     1       0.832   4.137  20.500  0.00  0.00    +0.000 C 
ATOM      9  C   UNL     1       1.816   4.628  19.430  0.00  0.00    +0.000 C 
BRANCH   5  10
ATOM     10  S   UNL     1       2.969   2.660  18.019  0.00  0.00    +0.000 S 
ATOM     11  O   UNL     1       1.616   2.667  17.511  0.00  0.00    +0.000 OA
ATOM     12  O   UNL     1       3.646   1.419  18.334  0.00  0.00    +0.000 OA
BRANCH  10  13
ATOM     13  C   UNL     1       3.989   3.612  16.894  0.00  0.00    +0.000 C 
BRANCH  13  14
ATOM     14  C   UNL     1       5.148   4.264  17.647  0.00  0.00    +0.000 C 
BRANCH  14  16
ATOM     15  C   UNL     1       7.622   4.626  17.487  0.00  0.00    +0.000 C 
ATOM     16  C   UNL     1       6.291   4.748  16.739  0.00  0.00    +0.000 C 
ATOM     17  C   UNL     1       6.365   3.967  15.426  0.00  0.00    +0.000 C 
ENDBRANCH  14  16
ENDBRANCH  13  14
ENDBRANCH  10  13
ENDBRANCH   5  10
ENDBRANCH   1   9
BRANCH   3  18
ATOM     18  C   UNL     1       1.846   8.055  21.144  0.00  0.00    +0.000 C 
BRANCH  18  19
ATOM     19  C   UNL     1       0.943   9.059  20.467  0.00  0.00    +0.000 A 
ATOM     20  C   UNL     1      -0.035   9.745  21.202  0.00  0.00    +0.000 A 
ATOM     21  C   UNL     1      -0.835  10.718  20.594  0.00  0.00    +0.000 A 
ATOM     22  C   UNL     1      -0.660  11.024  19.241  0.00  0.00    +0.000 A 
ATOM     23  C   UNL     1       0.298  10.331  18.494  0.00  0.00    +0.000 A 
ATOM     24  C   UNL     1       1.097   9.358  19.105  0.00  0.00    +0.000 A 
BRANCH  22  25
ATOM     25  C   UNL     1      -1.498  12.079  18.602  0.00  0.00    +0.000 C 
ATOM     26  N   UNL     1      -2.517  12.624  19.190  0.00  0.00    +0.000 NA
ATOM     27  N   UNL     1      -1.219  12.523  17.344  0.00  0.00    +0.000 N 
ATOM     28  H   UNL     1      -2.693  12.198  20.103  0.00  0.00    +0.000 HD
ATOM     29  H   UNL     1      -0.239  12.581  17.093  0.00  0.00    +0.000 HD
ATOM     30  H   UNL     1      -1.731  13.375  17.136  0.00  0.00    +0.000 HD
ENDBRANCH  22  25
ENDBRANCH  18  19
ENDBRANCH   3  18
TORSDOF 8
ENDMDL
MODEL 4
REMARK VINA RESULT:      -7.7      2.184      4.424
REMARK  Name = 
REMARK  10 active torsions:
REMARK  status: ('A' for Active; 'I' for Inactive)
REMARK    1  A    between atoms: C_1  and  C_2
REMARK    2  A    between atoms: C_2  and  C_3
REMARK    3  A    between atoms: C_2  and  C_4
REMARK    4  A    between atoms: C_4  and  C_5
REMARK    5  A    between atoms: C_5  and  S_6
REMARK    6  A    between atoms: S_6  and  N_9
REMARK    7  A    between atoms: C_13  and  C_14
REMARK    8  A    between atoms: N_16  and  C_17
REMARK    9  A    between atoms: C_17  and  C_18
REMARK   10  A    between atoms: C_21  and  C_22
REMARK                            x       y       z     vdW  Elec       q    Type
REMARK                         _______ _______ _______ _____ _____    ______ ____
ROOT
ATOM      1  C   UNL     1       2.378   6.052  19.828  0.00  0.00    +0.000 C 
ATOM      2  O   UNL     1       3.402   6.564  19.383  0.00  0.00    +0.000 OA
ATOM      3  N   UNL     1       1.527   6.701  20.694  0.00  0.00    +0.000 N 
ATOM      4  H   UNL     1       0.716   6.178  21.006  0.00  0.00    +0.000 HD
ENDROOT
BRANCH   1   9
ATOM      5  N   UNL     1       3.092   3.658  19.491  0.00  0.00    +0.000 NA
ATOM      6  C   UNL     1       2.916   2.916  20.768  0.00  0.00    +0.000 C 
ATOM      7  C   UNL     1       1.419   2.786  20.938  0.00  0.00    +0.000 C 
ATOM      8  C   UNL     1       0.878   4.106  20.418  0.00  0.00    +0.000 C 
ATOM      9  C   UNL     1       1.927   4.638  19.431  0.00  0.00    +0.000 C 
BRANCH   5  10
ATOM     10  S   UNL     1       3.214   2.720  18.067  0.00  0.00    +0.000 S 
ATOM     11  O   UNL     1       1.959   2.872  17.365  0.00  0.00    +0.000 OA
ATOM     12  O   UNL     1       3.712   1.411  18.436  0.00  0.00    +0.000 OA
BRANCH  10  13
ATOM     13  C   UNL     1       4.478   3.585  17.137  0.00  0.00    +0.000 C 
BRANCH  13  14
ATOM     14  C   UNL     1       5.483   4.238  18.084  0.00  0.00    +0.000 C 
BRANCH  14  16
ATOM     15  C   UNL     1       5.817   6.274  16.662  0.00  0.00    +0.000 C 
ATOM     16  C   UNL     1       6.526   5.121  17.379  0.00  0.00    +0.000 C 
ATOM     17  C   UNL     1       7.570   5.681  18.347  0.00  0.00    +0.000 C 
ENDBRANCH  14  16
ENDBRANCH  13  14
ENDBRANCH  10  13
ENDBRANCH   5  10
ENDBRANCH   1   9
BRANCH   3  18
ATOM     18  C   UNL     1       1.742   8.049  21.167  0.00  0.00    +0.000 C 
BRANCH  18  19
ATOM     19  C   UNL     1       0.895   9.049  20.418  0.00  0.00    +0.000 A 
ATOM     20  C   UNL     1      -0.076   9.806  21.094  0.00  0.00    +0.000 A 
ATOM     21  C   UNL     1      -0.823  10.775  20.417  0.00  0.00    +0.000 A 
ATOM     22  C   UNL     1      -0.604  11.008  19.057  0.00  0.00    +0.000 A 
ATOM     23  C   UNL     1       0.346  10.244  18.370  0.00  0.00    +0.000 A 
ATOM     24  C   UNL     1       1.093   9.274  19.048  0.00  0.00    +0.000 A 
BRANCH  22  25
ATOM     25  C   UNL     1      -1.386  12.059  18.345  0.00  0.00    +0.000 C 
ATOM     26  N   UNL     1      -0.831  13.047  17.716  0.00  0.00    +0.000 NA
ATOM     27  N   UNL     1      -2.748  12.020  18.326  0.00  0.00    +0.000 N 
ATOM     28  H   UNL     1       0.185  13.036  17.825  0.00  0.00    +0.000 HD
ATOM     29  H   UNL     1      -3.173  11.101  18.279  0.00  0.00    +0.000 HD
ATOM     30  H   UNL     1      -3.122  12.664  17.635  0.00  0.00    +0.000 HD
ENDBRANCH  22  25
ENDBRANCH  18  19
ENDBRANCH   3  18
TORSDOF 8
ENDMDL
MODEL 5
REMARK VINA RESULT:      -7.6      2.915      4.943
REMARK  Name = 
REMARK  10 active torsions:
REMARK  status: ('A' for Active; 'I' for Inactive)
REMARK    1  A    between atoms: C_1  and  C_2
REMARK    2  A    between atoms: C_2  and  C_3
REMARK    3  A    between atoms: C_2  and  C_4
REMARK    4  A    between atoms: C_4  and  C_5
REMARK    5  A    between atoms: C_5  and  S_6
REMARK    6  A    between atoms: S_6  and  N_9
REMARK    7  A    between atoms: C_13  and  C_14
REMARK    8  A    between atoms: N_16  and  C_17
REMARK    9  A    between atoms: C_17  and  C_18
REMARK   10  A    between atoms: C_21  and  C_22
REMARK                            x       y       z     vdW  Elec       q    Type
REMARK                         _______ _______ _______ _____ _____    ______ ____
ROOT
ATOM      1  C   UNL     1       4.256   4.971  18.122  0.00  0.00    +0.000 C 
ATOM      2  O   UNL     1       3.359   4.512  17.419  0.00  0.00    +0.000 OA
ATOM      3  N   UNL     1       4.025   5.584  19.332  0.00  0.00    +0.000 N 
ATOM      4  H   UNL     1       4.841   5.935  19.822  0.00  0.00    +0.000 HD
ENDROOT
BRANCH   1   9
ATOM      5  N   UNL     1       6.021   5.678  16.466  0.00  0.00    +0.000 NA
ATOM      6  C   UNL     1       6.648   6.941  16.937  0.00  0.00    +0.000 C 
ATOM      7  C   UNL     1       7.474   6.539  18.139  0.00  0.00    +0.000 C 
ATOM      8  C   UNL     1       6.630   5.478  18.822  0.00  0.00    +0.000 C 
ATOM      9  C   UNL     1       5.739   4.873  17.728  0.00  0.00    +0.000 C 
BRANCH   5  10
ATOM     10  S   UNL     1       6.894   4.770  15.309  0.00  0.00    +0.000 S 
ATOM     11  O   UNL     1       7.350   3.575  15.984  0.00  0.00    +0.000 OA
ATOM     12  O   UNL     1       7.826   5.663  14.653  0.00  0.00    +0.000 OA
BRANCH  10  13
ATOM     13  C   UNL     1       5.619   4.296  14.142  0.00  0.00    +0.000 C 
BRANCH  13  14
ATOM     14  C   UNL     1       6.246   3.784  12.847  0.00  0.00    +0.000 C 
BRANCH  14  16
ATOM     15  C   UNL     1       4.279   3.274  11.380  0.00  0.00    +0.000 C 
ATOM     16  C   UNL     1       5.444   2.663  12.164  0.00  0.00    +0.000 C 
ATOM     17  C   UNL     1       6.306   1.815  11.227  0.00  0.00    +0.000 C 
ENDBRANCH  14  16
ENDBRANCH  13  14
ENDBRANCH  10  13
ENDBRANCH   5  10
ENDBRANCH   1   9
BRANCH   3  18
ATOM     18  C   UNL     1       2.711   5.749  19.907  0.00  0.00    +0.000 C 
BRANCH  18  19
ATOM     19  C   UNL     1       2.176   7.145  19.695  0.00  0.00    +0.000 A 
ATOM     20  C   UNL     1       2.279   7.763  18.438  0.00  0.00    +0.000 A 
ATOM     21  C   UNL     1       1.734   9.032  18.220  0.00  0.00    +0.000 A 
ATOM     22  C   UNL     1       1.070   9.698  19.254  0.00  0.00    +0.000 A 
ATOM     23  C   UNL     1       0.982   9.100  20.516  0.00  0.00    +0.000 A 
ATOM     24  C   UNL     1       1.528   7.830  20.733  0.00  0.00    +0.000 A 
BRANCH  22  25
ATOM     25  C   UNL     1       0.469  11.041  19.010  0.00  0.00    +0.000 C 
ATOM     26  N   UNL     1      -0.239  11.317  17.961  0.00  0.00    +0.000 NA
ATOM     27  N   UNL     1       0.645  12.055  19.904  0.00  0.00    +0.000 N 
ATOM     28  H   UNL     1      -0.276  10.525  17.315  0.00  0.00    +0.000 HD
ATOM     29  H   UNL     1       0.665  11.795  20.883  0.00  0.00    +0.000 HD
ATOM     30  H   UNL     1       0.010  12.824  19.712  0.00  0.00    +0.000 HD
ENDBRANCH  22  25
ENDBRANCH  18  19
ENDBRANCH   3  18
TORSDOF 8
ENDMDL
MODEL 6
REMARK VINA RESULT:      -7.6      2.208      4.500
REMARK  Name = 
REMARK  10 active torsions:
REMARK  status: ('A' for Active; 'I' for Inactive)
REMARK    1  A    between atoms: C_1  and  C_2
REMARK    2  A    between atoms: C_2  and  C_3
REMARK    3  A    between atoms: C_2  and  C_4
REMARK    4  A    between atoms: C_4  and  C_5
REMARK    5  A    between atoms: C_5  and  S_6
REMARK    6  A    between atoms: S_6  and  N_9
REMARK    7  A    between atoms: C_13  and  C_14
REMARK    8  A    between atoms: N_16  and  C_17
REMARK    9  A    between atoms: C_17  and  C_18
REMARK   10  A    between atoms: C_21  and  C_22
REMARK                            x       y       z     vdW  Elec       q    Type
REMARK                         _______ _______ _______ _____ _____    ______ ____
ROOT
ATOM      1  C   UNL     1       2.364   5.960  19.923  0.00  0.00    +0.000 C 
ATOM      2  O   UNL     1       3.432   6.386  19.491  0.00  0.00    +0.000 OA
ATOM      3  N   UNL     1       1.526   6.702  20.725  0.00  0.00    +0.000 N 
ATOM      4  H   UNL     1       0.675   6.244  21.032  0.00  0.00    +0.000 HD
ENDROOT
BRANCH   1   9
ATOM      5  N   UNL     1       2.985   3.555  19.488  0.00  0.00    +0.000 NA
ATOM      6  C   UNL     1       2.957   2.808  20.774  0.00  0.00    +0.000 C 
ATOM      7  C   UNL     1       1.491   2.704  21.130  0.00  0.00    +0.000 C 
ATOM      8  C   UNL     1       0.914   4.037  20.687  0.00  0.00    +0.000 C 
ATOM      9  C   UNL     1       1.840   4.556  19.579  0.00  0.00    +0.000 C 
BRANCH   5  10
ATOM     10  S   UNL     1       2.910   2.625  18.055  0.00  0.00    +0.000 S 
ATOM     11  O   UNL     1       1.535   2.665  17.610  0.00  0.00    +0.000 OA
ATOM     12  O   UNL     1       3.581   1.366  18.306  0.00  0.00    +0.000 OA
BRANCH  10  13
ATOM     13  C   UNL     1       3.892   3.593  16.910  0.00  0.00    +0.000 C 
BRANCH  13  14
ATOM     14  C   UNL     1       5.137   4.139  17.606  0.00  0.00    +0.000 C 
BRANCH  14  16
ATOM     15  C   UNL     1       6.033   5.371  15.616  0.00  0.00    +0.000 C 
ATOM     16  C   UNL     1       6.350   4.311  16.676  0.00  0.00    +0.000 C 
ATOM     17  C   UNL     1       7.618   4.706  17.435  0.00  0.00    +0.000 C 
ENDBRANCH  14  16
ENDBRANCH  13  14
ENDBRANCH  10  13
ENDBRANCH   5  10
ENDBRANCH   1   9
BRANCH   3  18
ATOM     18  C   UNL     1       1.808   8.056  21.139  0.00  0.00    +0.000 C 
BRANCH  18  19
ATOM     19  C   UNL     1       0.958   9.060  20.396  0.00  0.00    +0.000 A 
ATOM     20  C   UNL     1       1.155   9.282  19.025  0.00  0.00    +0.000 A 
ATOM     21  C   UNL     1       0.333  10.167  18.319  0.00  0.00    +0.000 A 
ATOM     22  C   UNL     1      -0.704  10.836  18.976  0.00  0.00    +0.000 A 
ATOM     23  C   UNL     1      -0.894  10.638  20.348  0.00  0.00    +0.000 A 
ATOM     24  C   UNL     1      -0.071   9.752  21.051  0.00  0.00    +0.000 A 
BRANCH  22  25
ATOM     25  C   UNL     1      -1.593  11.761  18.215  0.00  0.00    +0.000 C 
ATOM     26  N   UNL     1      -1.747  11.693  16.930  0.00  0.00    +0.000 NA
ATOM     27  N   UNL     1      -2.295  12.736  18.858  0.00  0.00    +0.000 N 
ATOM     28  H   UNL     1      -1.146  10.976  16.518  0.00  0.00    +0.000 HD
ATOM     29  H   UNL     1      -2.648  12.506  19.779  0.00  0.00    +0.000 HD
ATOM     30  H   UNL     1      -3.006  13.134  18.250  0.00  0.00    +0.000 HD
ENDBRANCH  22  25
ENDBRANCH  18  19
ENDBRANCH   3  18
TORSDOF 8
ENDMDL
MODEL 7
REMARK VINA RESULT:      -7.5      0.862      1.295
REMARK  Name = 
REMARK  10 active torsions:
REMARK  status: ('A' for Active; 'I' for Inactive)
REMARK    1  A    between atoms: C_1  and  C_2
REMARK    2  A    between atoms: C_2  and  C_3
REMARK    3  A    between atoms: C_2  and  C_4
REMARK    4  A    between atoms: C_4  and  C_5
REMARK    5  A    between atoms: C_5  and  S_6
REMARK    6  A    between atoms: S_6  and  N_9
REMARK    7  A    between atoms: C_13  and  C_14
REMARK    8  A    between atoms: N_16  and  C_17
REMARK    9  A    between atoms: C_17  and  C_18
REMARK   10  A    between atoms: C_21  and  C_22
REMARK                            x       y       z     vdW  Elec       q    Type
REMARK                         _______ _______ _______ _____ _____    ______ ____
ROOT
ATOM      1  C   UNL     1       4.418   6.889  17.600  0.00  0.00    +0.000 C 
ATOM      2  O   UNL     1       5.115   7.754  17.075  0.00  0.00    +0.000 OA
ATOM      3  N   UNL     1       3.098   7.089  17.938  0.00  0.00    +0.000 N 
ATOM      4  H   UNL     1       2.622   6.308  18.375  0.00  0.00    +0.000 HD
ENDROOT
BRANCH   1   9
ATOM      5  N   UNL     1       4.175   4.428  17.109  0.00  0.00    +0.000 NA
ATOM      6  C   UNL     1       5.054   4.074  15.964  0.00  0.00    +0.000 C 
ATOM      7  C   UNL     1       6.460   4.157  16.514  0.00  0.00    +0.000 C 
ATOM      8  C   UNL     1       6.411   5.343  17.461  0.00  0.00    +0.000 C 
ATOM      9  C   UNL     1       4.946   5.477  17.900  0.00  0.00    +0.000 C 
BRANCH   5  10
ATOM     10  S   UNL     1       3.647   3.139  18.102  0.00  0.00    +0.000 S 
ATOM     11  O   UNL     1       4.216   3.368  19.411  0.00  0.00    +0.000 OA
ATOM     12  O   UNL     1       3.882   1.902  17.388  0.00  0.00    +0.000 OA
BRANCH  10  13
ATOM     13  C   UNL     1       1.880   3.426  18.207  0.00  0.00    +0.000 C 
BRANCH  13  14
ATOM     14  C   UNL     1       1.250   2.497  19.243  0.00  0.00    +0.000 C 
BRANCH  14  16
ATOM     15  C   UNL     1       1.763   2.557  21.695  0.00  0.00    +0.000 C 
ATOM     16  C   UNL     1       0.920   3.182  20.579  0.00  0.00    +0.000 C 
ATOM     17  C   UNL     1       1.159   4.692  20.537  0.00  0.00    +0.000 C 
ENDBRANCH  14  16
ENDBRANCH  13  14
ENDBRANCH  10  13
ENDBRANCH   5  10
ENDBRANCH   1   9
BRANCH   3  18
ATOM     18  C   UNL     1       2.394   8.329  17.709  0.00  0.00    +0.000 C 
BRANCH  18  19
ATOM     19  C   UNL     1       1.665   8.797  18.946  0.00  0.00    +0.000 A 
ATOM     20  C   UNL     1       1.775   8.084  20.150  0.00  0.00    +0.000 A 
ATOM     21  C   UNL     1       1.150   8.545  21.313  0.00  0.00    +0.000 A 
ATOM     22  C   UNL     1       0.411   9.731  21.289  0.00  0.00    +0.000 A 
ATOM     23  C   UNL     1       0.277  10.438  20.089  0.00  0.00    +0.000 A 
ATOM     24  C   UNL     1       0.904   9.975  18.927  0.00  0.00    +0.000 A 
BRANCH  22  25
ATOM     25  C   UNL     1      -0.234  10.232  22.537  0.00  0.00    +0.000 C 
ATOM     26  N   UNL     1      -0.454  11.489  22.763  0.00  0.00    +0.000 NA
ATOM     27  N   UNL     1      -0.629   9.365  23.512  0.00  0.00    +0.000 N 
ATOM     28  H   UNL     1      -0.079  12.075  22.013  0.00  0.00    +0.000 HD
ATOM     29  H   UNL     1      -0.992   8.472  23.202  0.00  0.00    +0.000 HD
ATOM     30  H   UNL     1      -1.235   9.826  24.186  0.00  0.00    +0.000 HD
ENDBRANCH  22  25
ENDBRANCH  18  19
ENDBRANCH   3  18
TORSDOF 8
ENDMDL
MODEL 8
REMARK VINA RESULT:      -7.4      2.262      4.200
REMARK  Name = 
REMARK  10 active torsions:
REMARK  status: ('A' for Active; 'I' for Inactive)
REMARK    1  A    between atoms: C_1  and  C_2
REMARK    2  A    between atoms: C_2  and  C_3
REMARK    3  A    between atoms: C_2  and  C_4
REMARK    4  A    between atoms: C_4  and  C_5
REMARK    5  A    between atoms: C_5  and  S_6
REMARK    6  A    between atoms: S_6  and  N_9
REMARK    7  A    between atoms: C_13  and  C_14
REMARK    8  A    between atoms: N_16  and  C_17
REMARK    9  A    between atoms: C_17  and  C_18
REMARK   10  A    between atoms: C_21  and  C_22
REMARK                            x       y       z     vdW  Elec       q    Type
REMARK                         _______ _______ _______ _____ _____    ______ ____
ROOT
ATOM      1  C   UNL     1       2.199   5.724  20.347  0.00  0.00    +0.000 C 
ATOM      2  O   UNL     1       1.923   5.182  21.414  0.00  0.00    +0.000 OA
ATOM      3  N   UNL     1       2.079   7.079  20.137  0.00  0.00    +0.000 N 
ATOM      4  H   UNL     1       2.325   7.415  19.213  0.00  0.00    +0.000 HD
ENDROOT
BRANCH   1   9
ATOM      5  N   UNL     1       2.634   3.436  19.380  0.00  0.00    +0.000 NA
ATOM      6  C   UNL     1       1.437   2.999  18.613  0.00  0.00    +0.000 C 
ATOM      7  C   UNL     1       1.427   3.875  17.380  0.00  0.00    +0.000 C 
ATOM      8  C   UNL     1       1.903   5.224  17.888  0.00  0.00    +0.000 C 
ATOM      9  C   UNL     1       2.740   4.937  19.142  0.00  0.00    +0.000 C 
BRANCH   5  10
ATOM     10  S   UNL     1       4.103   2.629  19.041  0.00  0.00    +0.000 S 
ATOM     11  O   UNL     1       3.790   1.585  18.092  0.00  0.00    +0.000 OA
ATOM     12  O   UNL     1       4.747   2.327  20.303  0.00  0.00    +0.000 OA
BRANCH  10  13
ATOM     13  C   UNL     1       5.052   3.888  18.188  0.00  0.00    +0.000 C 
BRANCH  13  14
ATOM     14  C   UNL     1       4.958   3.693  16.676  0.00  0.00    +0.000 C 
BRANCH  14  16
ATOM     15  C   UNL     1       5.866   4.236  14.404  0.00  0.00    +0.000 C 
ATOM     16  C   UNL     1       5.789   4.699  15.863  0.00  0.00    +0.000 C 
ATOM     17  C   UNL     1       5.215   6.116  15.923  0.00  0.00    +0.000 C 
ENDBRANCH  14  16
ENDBRANCH  13  14
ENDBRANCH  10  13
ENDBRANCH   5  10
ENDBRANCH   1   9
BRANCH   3  18
ATOM     18  C   UNL     1       1.625   8.007  21.146  0.00  0.00    +0.000 C 
BRANCH  18  19
ATOM     19  C   UNL     1       0.829   9.142  20.548  0.00  0.00    +0.000 A 
ATOM     20  C   UNL     1      -0.033   9.906  21.350  0.00  0.00    +0.000 A 
ATOM     21  C   UNL     1      -0.729  10.995  20.814  0.00  0.00    +0.000 A 
ATOM     22  C   UNL     1      -0.564  11.341  19.470  0.00  0.00    +0.000 A 
ATOM     23  C   UNL     1       0.277  10.572  18.657  0.00  0.00    +0.000 A 
ATOM     24  C   UNL     1       0.972   9.483  19.195  0.00  0.00    +0.000 A 
BRANCH  22  25
ATOM     25  C   UNL     1      -1.289  12.517  18.909  0.00  0.00    +0.000 C 
ATOM     26  N   UNL     1      -2.269  13.101  19.524  0.00  0.00    +0.000 NA
ATOM     27  N   UNL     1      -0.939  13.038  17.699  0.00  0.00    +0.000 N 
ATOM     28  H   UNL     1      -2.506  12.618  20.393  0.00  0.00    +0.000 HD
ATOM     29  H   UNL     1       0.048  13.028  17.471  0.00  0.00    +0.000 HD
ATOM     30  H   UNL     1      -1.368  13.947  17.556  0.00  0.00    +0.000 HD
ENDBRANCH  22  25
ENDBRANCH  18  19
ENDBRANCH   3  18
TORSDOF 8
ENDMDL
MODEL 9
REMARK VINA RESULT:      -7.3      2.298      4.696
REMARK  Name = 
REMARK  10 active torsions:
REMARK  status: ('A' for Active; 'I' for Inactive)
REMARK    1  A    between atoms: C_1  and  C_2
REMARK    2  A    between atoms: C_2  and  C_3
REMARK    3  A    between atoms: C_2  and  C_4
REMARK    4  A    between atoms: C_4  and  C_5
REMARK    5  A    between atoms: C_5  and  S_6
REMARK    6  A    between atoms: S_6  and  N_9
REMARK    7  A    between atoms: C_13  and  C_14
REMARK    8  A    between atoms: N_16  and  C_17
REMARK    9  A    between atoms: C_17  and  C_18
REMARK   10  A    between atoms: C_21  and  C_22
REMARK                            x       y       z     vdW  Elec       q    Type
REMARK                         _______ _______ _______ _____ _____    ______ ____
ROOT
ATOM      1  C   UNL     1       2.351   6.137  19.856  0.00  0.00    +0.000 C 
ATOM      2  O   UNL     1       3.398   6.683  19.517  0.00  0.00    +0.000 OA
ATOM      3  N   UNL     1       1.425   6.733  20.682  0.00  0.00    +0.000 N 
ATOM      4  H   UNL     1       0.601   6.185  20.905  0.00  0.00    +0.000 HD
ENDROOT
BRANCH   1   9
ATOM      5  N   UNL     1       3.136   3.778  19.437  0.00  0.00    +0.000 NA
ATOM      6  C   UNL     1       2.903   2.966  20.660  0.00  0.00    +0.000 C 
ATOM      7  C   UNL     1       1.401   2.799  20.734  0.00  0.00    +0.000 C 
ATOM      8  C   UNL     1       0.862   4.134  20.252  0.00  0.00    +0.000 C 
ATOM      9  C   UNL     1       1.955   4.738  19.359  0.00  0.00    +0.000 C 
BRANCH   5  10
ATOM     10  S   UNL     1       3.362   2.921  17.975  0.00  0.00    +0.000 S 
ATOM     11  O   UNL     1       2.229   3.236  17.134  0.00  0.00    +0.000 OA
ATOM     12  O   UNL     1       3.691   1.551  18.308  0.00  0.00    +0.000 OA
BRANCH  10  13
ATOM     13  C   UNL     1       4.809   3.716  17.276  0.00  0.00    +0.000 C 
BRANCH  13  14
ATOM     14  C   UNL     1       4.955   3.354  15.799  0.00  0.00    +0.000 C 
BRANCH  14  16
ATOM     15  C   UNL     1       6.984   4.822  15.725  0.00  0.00    +0.000 C 
ATOM     16  C   UNL     1       5.719   4.400  14.971  0.00  0.00    +0.000 C 
ATOM     17  C   UNL     1       6.097   3.884  13.581  0.00  0.00    +0.000 C 
ENDBRANCH  14  16
ENDBRANCH  13  14
ENDBRANCH  10  13
ENDBRANCH   5  10
ENDBRANCH   1   9
BRANCH   3  18
ATOM     18  C   UNL     1       1.580   8.059  21.234  0.00  0.00    +0.000 C 
BRANCH  18  19
ATOM     19  C   UNL     1       0.905   9.105  20.380  0.00  0.00    +0.000 A 
ATOM     20  C   UNL     1       1.328   9.328  19.061  0.00  0.00    +0.000 A 
ATOM     21  C   UNL     1       0.669  10.255  18.246  0.00  0.00    +0.000 A 
ATOM     22  C   UNL     1      -0.429  10.967  18.740  0.00  0.00    +0.000 A 
ATOM     23  C   UNL     1      -0.844  10.768  20.061  0.00  0.00    +0.000 A 
ATOM     24  C   UNL     1      -0.183   9.840  20.874  0.00  0.00    +0.000 A 
BRANCH  22  25
ATOM     25  C   UNL     1      -1.143  11.937  17.861  0.00  0.00    +0.000 C 
ATOM     26  N   UNL     1      -0.877  13.205  17.848  0.00  0.00    +0.000 NA
ATOM     27  N   UNL     1      -2.126  11.517  17.016  0.00  0.00    +0.000 N 
ATOM     28  H   UNL     1      -0.172  13.447  18.547  0.00  0.00    +0.000 HD
ATOM     29  H   UNL     1      -1.997  10.607  16.589  0.00  0.00    +0.000 HD
ATOM     30  H   UNL     1      -2.361  12.240  16.342  0.00  0.00    +0.000 HD
ENDBRANCH  22  25
ENDBRANCH  18  19
ENDBRANCH   3  18
TORSDOF 8
ENDMDL
