MODEL 1
REMARK VINA RESULT:      -8.4      0.000      0.000
REMARK  Name = 
REMARK  8 active torsions:
REMARK  status: ('A' for Active; 'I' for Inactive)
REMARK    1  A    between atoms: C_1  and  O_2
REMARK    2  A    between atoms: O_2  and  C_3
REMARK    3  A    between atoms: N_11  and  C_12
REMARK    4  A    between atoms: C_12  and  C_13
REMARK    5  A    between atoms: C_13  and  N_14
REMARK    6  A    between atoms: C_17  and  N_18
REMARK    7  A    between atoms: N_21  and  C_22
REMARK    8  A    between atoms: C_22  and  C_23
REMARK                            x       y       z     vdW  Elec       q    Type
REMARK                         _______ _______ _______ _____ _____    ______ ____
ROOT
ATOM      1  N   UNL     1       1.912   8.463  19.793  0.00  0.00    +0.000 NA
ATOM      2  C   UNL     1       1.588   9.047  18.478  0.00  0.00    +0.000 C 
ATOM      3  C   UNL     1       1.223  10.524  18.605  0.00  0.00    +0.000 C 
ATOM      4  C   UNL     1       0.046  10.737  19.558  0.00  0.00    +0.000 C 
ATOM      5  C   UNL     1       0.328  10.041  20.889  0.00  0.00    +0.000 C 
ATOM      6  C   UNL     1       0.766   8.583  20.709  0.00  0.00    +0.000 C 
ENDROOT
BRANCH   4   7
ATOM      7  N   UNL     1      -1.223  10.293  18.976  0.00  0.00    +0.000 N 
ATOM      8  C   UNL     1      -1.908  11.099  18.103  0.00  0.00    +0.000 C 
ATOM      9  O   UNL     1      -1.604  12.260  17.865  0.00  0.00    +0.000 OA
ATOM     10  N   UNL     1      -2.958  10.454  17.508  0.00  0.00    +0.000 N 
ATOM     11  H   UNL     1      -1.387   9.301  18.892  0.00  0.00    +0.000 HD
ATOM     12  H   UNL     1      -3.315   9.622  17.952  0.00  0.00    +0.000 HD
BRANCH  10  13
ATOM     13  C   UNL     1      -3.866  11.189  16.657  0.00  0.00    +0.000 C 
BRANCH  13  14
ATOM     14  C   UNL     1      -5.141  11.530  17.380  0.00  0.00    +0.000 A 
ATOM     15  C   UNL     1      -5.618  10.730  18.428  0.00  0.00    +0.000 A 
ATOM     16  C   UNL     1      -6.811  11.057  19.077  0.00  0.00    +0.000 A 
ATOM     17  C   UNL     1      -7.538  12.179  18.684  0.00  0.00    +0.000 A 
ATOM     18  C   UNL     1      -7.074  12.979  17.642  0.00  0.00    +0.000 A 
ATOM     19  C   UNL     1      -5.883  12.654  16.991  0.00  0.00    +0.000 A 
ENDBRANCH  13  14
ENDBRANCH  10  13
ENDBRANCH   4   7
BRANCH   1  20
ATOM     20  C   UNL     1       2.350   7.050  19.676  0.00  0.00    +0.000 C 
BRANCH  20  21
ATOM     21  C   UNL     1       2.254   6.514  18.231  0.00  0.00    +0.000 C 
BRANCH  21  30
ATOM     22  C   UNL     1       6.391   6.497  16.860  0.00  0.00    +0.000 A 
ATOM     23  C   UNL     1       6.892   5.276  16.428  0.00  0.00    +0.000 A 
ATOM     24  N   UNL     1       6.210   4.110  16.495  0.00  0.00    +0.000 NA
ATOM     25  C   UNL     1       4.964   4.174  17.018  0.00  0.00    +0.000 A 
ATOM     26  C   UNL     1       4.262   2.905  17.107  0.00  0.00    +0.000 A 
ATOM     27  C   UNL     1       3.047   2.853  17.663  0.00  0.00    +0.000 A 
ATOM     28  C   UNL     1       2.362   4.074  18.154  0.00  0.00    +0.000 A 
ATOM     29  O   UNL     1       1.247   3.956  18.663  0.00  0.00    +0.000 OA
ATOM     30  N   UNL     1       3.016   5.291  17.978  0.00  0.00    +0.000 N 
ATOM     31  C   UNL     1       4.347   5.349  17.459  0.00  0.00    +0.000 A 
ATOM     32  C   UNL     1       5.091   6.526  17.373  0.00  0.00    +0.000 A 
BRANCH  22  34
ATOM     33  C   UNL     1       7.970   7.921  17.903  0.00  0.00    +0.000 C 
ATOM     34  O   UNL     1       7.046   7.696  16.843  0.00  0.00    +0.000 OA
ENDBRANCH  22  34
ENDBRANCH  21  30
ENDBRANCH  20  21
ENDBRANCH   1  20
TORSDOF 7
ENDMDL
MODEL 2
REMARK VINA RESULT:      -8.3      2.905     10.481
REMARK  Name = 
REMARK  8 active torsions:
REMARK  status: ('A' for Active; 'I' for Inactive)
REMARK    1  A    between atoms: C_1  and  O_2
REMARK    2  A    between atoms: O_2  and  C_3
REMARK    3  A    between atoms: N_11  and  C_12
REMARK    4  A    between atoms: C_12  and  C_13
REMARK    5  A    between atoms: C_13  and  N_14
REMARK    6  A    between atoms: C_17  and  N_18
REMARK    7  A    between atoms: N_21  and  C_22
REMARK    8  A    between atoms: C_22  and  C_23
REMARK                            x       y       z     vdW  Elec       q    Type
REMARK                         _______ _______ _______ _____ _____    ______ ____
ROOT
ATOM      1  N   UNL     1      -1.144  12.452  20.552  0.00  0.00    +0.000 NA
ATOM      2  C   UNL     1       0.210  12.214  21.084  0.00  0.00    +0.000 C 
ATOM      3  C   UNL     1       1.251  12.218  19.967  0.00  0.00    +0.000 C 
ATOM      4  C   UNL     1       0.937  11.172  18.896  0.00  0.00    +0.000 C 
ATOM      5  C   UNL     1      -0.504  11.344  18.416  0.00  0.00    +0.000 C 
ATOM      6  C   UNL     1      -1.505  11.413  19.574  0.00  0.00    +0.000 C 
ENDROOT
BRANCH   4   7
ATOM      7  N   UNL     1       1.190   9.809  19.366  0.00  0.00    +0.000 N 
ATOM      8  C   UNL     1       1.851   8.909  18.570  0.00  0.00    +0.000 C 
ATOM      9  O   UNL     1       2.139   9.118  17.399  0.00  0.00    +0.000 OA
ATOM     10  N   UNL     1       2.174   7.758  19.236  0.00  0.00    +0.000 N 
ATOM     11  H   UNL     1       1.246   9.651  20.362  0.00  0.00    +0.000 HD
ATOM     12  H   UNL     1       1.668   7.542  20.081  0.00  0.00    +0.000 HD
BRANCH  10  13
ATOM     13  C   UNL     1       2.760   6.649  18.516  0.00  0.00    +0.000 C 
BRANCH  13  14
ATOM     14  C   UNL     1       2.136   5.342  18.923  0.00  0.00    +0.000 A 
ATOM     15  C   UNL     1       1.847   4.349  17.977  0.00  0.00    +0.000 A 
ATOM     16  C   UNL     1       1.255   3.148  18.375  0.00  0.00    +0.000 A 
ATOM     17  C   UNL     1       0.944   2.930  19.716  0.00  0.00    +0.000 A 
ATOM     18  C   UNL     1       1.226   3.910  20.664  0.00  0.00    +0.000 A 
ATOM     19  C   UNL     1       1.816   5.112  20.269  0.00  0.00    +0.000 A 
ENDBRANCH  13  14
ENDBRANCH  10  13
ENDBRANCH   4   7
BRANCH   1  20
ATOM     20  C   UNL     1      -2.156  12.535  21.634  0.00  0.00    +0.000 C 
BRANCH  20  21
ATOM     21  C   UNL     1      -3.306  13.510  21.302  0.00  0.00    +0.000 C 
BRANCH  21  30
ATOM     22  C   UNL     1      -5.642  11.880  18.005  0.00  0.00    +0.000 A 
ATOM     23  C   UNL     1      -6.982  11.622  18.267  0.00  0.00    +0.000 A 
ATOM     24  N   UNL     1      -7.557  11.762  19.483  0.00  0.00    +0.000 NA
ATOM     25  C   UNL     1      -6.749  12.184  20.483  0.00  0.00    +0.000 A 
ATOM     26  C   UNL     1      -7.382  12.298  21.787  0.00  0.00    +0.000 A 
ATOM     27  C   UNL     1      -6.655  12.651  22.851  0.00  0.00    +0.000 A 
ATOM     28  C   UNL     1      -5.214  12.983  22.735  0.00  0.00    +0.000 A 
ATOM     29  O   UNL     1      -4.600  13.294  23.757  0.00  0.00    +0.000 OA
ATOM     30  N   UNL     1      -4.649  12.953  21.463  0.00  0.00    +0.000 N 
ATOM     31  C   UNL     1      -5.396  12.499  20.331  0.00  0.00    +0.000 A 
ATOM     32  C   UNL     1      -4.846  12.337  19.059  0.00  0.00    +0.000 A 
BRANCH  22  34
ATOM     33  C   UNL     1      -3.868  10.871  16.806  0.00  0.00    +0.000 C 
ATOM     34  O   UNL     1      -5.005  11.727  16.806  0.00  0.00    +0.000 OA
ENDBRANCH  22  34
ENDBRANCH  21  30
ENDBRANCH  20  21
ENDBRANCH   1  20
TORSDOF 7
ENDMDL
MODEL 3
REMARK VINA RESULT:      -8.0      3.202     10.938
REMARK  Name = 
REMARK  8 active torsions:
REMARK  status: ('A' for Active; 'I' for Inactive)
REMARK    1  A    between atoms: C_1  and  O_2
REMARK    2  A    between atoms: O_2  and  C_3
REMARK    3  A    between atoms: N_11  and  C_12
REMARK    4  A    between atoms: C_12  and  C_13
REMARK    5  A    between atoms: C_13  and  N_14
REMARK    6  A    between atoms: C_17  and  N_18
REMARK    7  A    between atoms: N_21  and  C_22
REMARK    8  A    between atoms: C_22  and  C_23
REMARK                            x       y       z     vdW  Elec       q    Type
REMARK                         _______ _______ _______ _____ _____    ______ ____
ROOT
ATOM      1  N   UNL     1      -1.486  12.010  19.780  0.00  0.00    +0.000 NA
ATOM      2  C   UNL     1      -0.245  11.922  20.572  0.00  0.00    +0.000 C 
ATOM      3  C   UNL     1       0.977  11.776  19.669  0.00  0.00    +0.000 C 
ATOM      4  C   UNL     1       0.867  10.550  18.761  0.00  0.00    +0.000 C 
ATOM      5  C   UNL     1      -0.467  10.578  18.017  0.00  0.00    +0.000 C 
ATOM      6  C   UNL     1      -1.658  10.804  18.954  0.00  0.00    +0.000 C 
ENDROOT
BRANCH   4   7
ATOM      7  N   UNL     1       1.047   9.298  19.501  0.00  0.00    +0.000 N 
ATOM      8  C   UNL     1       1.991   8.386  19.108  0.00  0.00    +0.000 C 
ATOM      9  O   UNL     1       2.631   8.472  18.068  0.00  0.00    +0.000 OA
ATOM     10  N   UNL     1       2.157   7.378  20.018  0.00  0.00    +0.000 N 
ATOM     11  H   UNL     1       0.785   9.280  20.476  0.00  0.00    +0.000 HD
ATOM     12  H   UNL     1       1.419   7.217  20.685  0.00  0.00    +0.000 HD
BRANCH  10  13
ATOM     13  C   UNL     1       3.021   6.261  19.707  0.00  0.00    +0.000 C 
BRANCH  13  14
ATOM     14  C   UNL     1       2.245   4.974  19.628  0.00  0.00    +0.000 A 
ATOM     15  C   UNL     1       1.828   4.305  20.787  0.00  0.00    +0.000 A 
ATOM     16  C   UNL     1       1.120   3.104  20.691  0.00  0.00    +0.000 A 
ATOM     17  C   UNL     1       0.828   2.560  19.441  0.00  0.00    +0.000 A 
ATOM     18  C   UNL     1       1.240   3.216  18.284  0.00  0.00    +0.000 A 
ATOM     19  C   UNL     1       1.947   4.415  18.376  0.00  0.00    +0.000 A 
ENDBRANCH  13  14
ENDBRANCH  10  13
ENDBRANCH   4   7
BRANCH   1  20
ATOM     20  C   UNL     1      -2.674  12.237  20.641  0.00  0.00    +0.000 C 
BRANCH  20  21
ATOM     21  C   UNL     1      -3.816  12.964  19.899  0.00  0.00    +0.000 C 
BRANCH  21  30
ATOM     22  C   UNL     1      -6.642  13.128  23.212  0.00  0.00    +0.000 A 
ATOM     23  C   UNL     1      -7.688  12.214  23.177  0.00  0.00    +0.000 A 
ATOM     24  N   UNL     1      -7.917  11.364  22.151  0.00  0.00    +0.000 NA
ATOM     25  C   UNL     1      -7.053  11.432  21.111  0.00  0.00    +0.000 A 
ATOM     26  C   UNL     1      -7.336  10.530  20.008  0.00  0.00    +0.000 A 
ATOM     27  C   UNL     1      -6.575  10.562  18.910  0.00  0.00    +0.000 A 
ATOM     28  C   UNL     1      -5.404  11.466  18.799  0.00  0.00    +0.000 A 
ATOM     29  O   UNL     1      -4.748  11.451  17.756  0.00  0.00    +0.000 OA
ATOM     30  N   UNL     1      -5.098  12.258  19.903  0.00  0.00    +0.000 N 
ATOM     31  C   UNL     1      -5.951  12.290  21.050  0.00  0.00    +0.000 A 
ATOM     32  C   UNL     1      -5.757  13.152  22.131  0.00  0.00    +0.000 A 
BRANCH  22  34
ATOM     33  C   UNL     1      -5.955  15.320  23.789  0.00  0.00    +0.000 C 
ATOM     34  O   UNL     1      -6.382  14.028  24.208  0.00  0.00    +0.000 OA
ENDBRANCH  22  34
ENDBRANCH  21  30
ENDBRANCH  20  21
ENDBRANCH   1  20
TORSDOF 7
ENDMDL
MODEL 4
REMARK VINA RESULT:      -7.8      1.573      1.900
REMARK  Name = 
REMARK  8 active torsions:
REMARK  status: ('A' for Active; 'I' for Inactive)
REMARK    1  A    between atoms: C_1  and  O_2
REMARK    2  A    between atoms: O_2  and  C_3
REMARK    3  A    between atoms: N_11  and  C_12
REMARK    4  A    between atoms: C_12  and  C_13
REMARK    5  A    between atoms: C_13  and  N_14
REMARK    6  A    between atoms: C_17  and  N_18
REMARK    7  A    between atoms: N_21  and  C_22
REMARK    8  A    between atoms: C_22  and  C_23
REMARK                            x       y       z     vdW  Elec       q    Type
REMARK                         _______ _______ _______ _____ _____    ______ ____
ROOT
ATOM      1  N   UNL     1       1.838   9.110  19.125  0.00  0.00    +0.000 NA
ATOM      2  C   UNL     1       1.425  10.141  18.156  0.00  0.00    +0.000 C 
ATOM      3  C   UNL     1       1.424  11.529  18.793  0.00  0.00    +0.000 C 
ATOM      4  C   UNL     1       0.510  11.589  20.018  0.00  0.00    +0.000 C 
ATOM      5  C   UNL     1       0.862  10.453  20.979  0.00  0.00    +0.000 C 
ATOM      6  C   UNL     1       0.927   9.091  20.280  0.00  0.00    +0.000 C 
ENDROOT
BRANCH   4   7
ATOM      7  N   UNL     1      -0.907  11.565  19.650  0.00  0.00    +0.000 N 
ATOM      8  C   UNL     1      -1.785  12.460  20.204  0.00  0.00    +0.000 C 
ATOM      9  O   UNL     1      -1.498  13.219  21.120  0.00  0.00    +0.000 OA
ATOM     10  N   UNL     1      -3.015  12.427  19.605  0.00  0.00    +0.000 N 
ATOM     11  H   UNL     1      -1.158  11.193  18.746  0.00  0.00    +0.000 HD
ATOM     12  H   UNL     1      -3.262  11.606  19.075  0.00  0.00    +0.000 HD
BRANCH  10  13
ATOM     13  C   UNL     1      -4.102  13.213  20.146  0.00  0.00    +0.000 C 
BRANCH  13  14
ATOM     14  C   UNL     1      -5.359  12.396  20.272  0.00  0.00    +0.000 A 
ATOM     15  C   UNL     1      -5.787  11.556  19.235  0.00  0.00    +0.000 A 
ATOM     16  C   UNL     1      -6.965  10.817  19.367  0.00  0.00    +0.000 A 
ATOM     17  C   UNL     1      -7.726  10.913  20.531  0.00  0.00    +0.000 A 
ATOM     18  C   UNL     1      -7.310  11.745  21.567  0.00  0.00    +0.000 A 
ATOM     19  C   UNL     1      -6.135  12.486  21.438  0.00  0.00    +0.000 A 
ENDBRANCH  13  14
ENDBRANCH  10  13
ENDBRANCH   4   7
BRANCH   1  20
ATOM     20  C   UNL     1       1.925   7.767  18.497  0.00  0.00    +0.000 C 
BRANCH  20  21
ATOM     21  C   UNL     1       2.708   6.755  19.361  0.00  0.00    +0.000 C 
BRANCH  21  30
ATOM     22  C   UNL     1       6.052   6.139  16.636  0.00  0.00    +0.000 A 
ATOM     23  C   UNL     1       6.042   4.957  15.905  0.00  0.00    +0.000 A 
ATOM     24  N   UNL     1       5.123   3.978  16.060  0.00  0.00    +0.000 NA
ATOM     25  C   UNL     1       4.166   4.196  16.991  0.00  0.00    +0.000 A 
ATOM     26  C   UNL     1       3.207   3.118  17.161  0.00  0.00    +0.000 A 
ATOM     27  C   UNL     1       2.257   3.212  18.096  0.00  0.00    +0.000 A 
ATOM     28  C   UNL     1       2.117   4.421  18.946  0.00  0.00    +0.000 A 
ATOM     29  O   UNL     1       1.225   4.440  19.795  0.00  0.00    +0.000 OA
ATOM     30  N   UNL     1       2.991   5.479  18.706  0.00  0.00    +0.000 N 
ATOM     31  C   UNL     1       4.060   5.356  17.764  0.00  0.00    +0.000 A 
ATOM     32  C   UNL     1       5.033   6.338  17.571  0.00  0.00    +0.000 A 
BRANCH  22  34
ATOM     33  C   UNL     1       7.602   7.535  17.756  0.00  0.00    +0.000 C 
ATOM     34  O   UNL     1       6.972   7.146  16.540  0.00  0.00    +0.000 OA
ENDBRANCH  22  34
ENDBRANCH  21  30
ENDBRANCH  20  21
ENDBRANCH   1  20
TORSDOF 7
ENDMDL
MODEL 5
REMARK VINA RESULT:      -7.8      1.123      1.314
REMARK  Name = 
REMARK  8 active torsions:
REMARK  status: ('A' for Active; 'I' for Inactive)
REMARK    1  A    between atoms: C_1  and  O_2
REMARK    2  A    between atoms: O_2  and  C_3
REMARK    3  A    between atoms: N_11  and  C_12
REMARK    4  A    between atoms: C_12  and  C_13
REMARK    5  A    between atoms: C_13  and  N_14
REMARK    6  A    between atoms: C_17  and  N_18
REMARK    7  A    between atoms: N_21  and  C_22
REMARK    8  A    between atoms: C_22  and  C_23
REMARK                            x       y       z     vdW  Elec       q    Type
REMARK                         _______ _______ _______ _____ _____    ______ ____
ROOT
ATOM      1  N   UNL     1       2.062   7.573  19.854  0.00  0.00    +0.000 NA
ATOM      2  C   UNL     1       1.767   7.871  18.440  0.00  0.00    +0.000 C 
ATOM      3  C   UNL     1       1.824   9.373  18.169  0.00  0.00    +0.000 C 
ATOM      4  C   UNL     1       0.855  10.147  19.063  0.00  0.00    +0.000 C 
ATOM      5  C   UNL     1       1.082   9.761  20.524  0.00  0.00    +0.000 C 
ATOM      6  C   UNL     1       1.093   8.243  20.736  0.00  0.00    +0.000 C 
ENDROOT
BRANCH   4   7
ATOM      7  N   UNL     1      -0.540   9.952  18.664  0.00  0.00    +0.000 N 
ATOM      8  C   UNL     1      -1.301  11.014  18.250  0.00  0.00    +0.000 C 
ATOM      9  O   UNL     1      -0.939  12.181  18.320  0.00  0.00    +0.000 OA
ATOM     10  N   UNL     1      -2.506  10.625  17.730  0.00  0.00    +0.000 N 
ATOM     11  H   UNL     1      -0.813   9.044  18.318  0.00  0.00    +0.000 HD
ATOM     12  H   UNL     1      -2.848   9.706  17.965  0.00  0.00    +0.000 HD
BRANCH  10  13
ATOM     13  C   UNL     1      -3.488  11.621  17.364  0.00  0.00    +0.000 C 
BRANCH  13  14
ATOM     14  C   UNL     1      -4.658  11.610  18.310  0.00  0.00    +0.000 A 
ATOM     15  C   UNL     1      -5.840  10.924  17.997  0.00  0.00    +0.000 A 
ATOM     16  C   UNL     1      -6.919  10.939  18.884  0.00  0.00    +0.000 A 
ATOM     17  C   UNL     1      -6.830  11.641  20.084  0.00  0.00    +0.000 A 
ATOM     18  C   UNL     1      -5.661  12.328  20.404  0.00  0.00    +0.000 A 
ATOM     19  C   UNL     1      -4.582  12.316  19.520  0.00  0.00    +0.000 A 
ENDBRANCH  13  14
ENDBRANCH  10  13
ENDBRANCH   4   7
BRANCH   1  20
ATOM     20  C   UNL     1       2.092   6.112  20.114  0.00  0.00    +0.000 C 
BRANCH  20  21
ATOM     21  C   UNL     1       3.525   5.538  20.125  0.00  0.00    +0.000 C 
BRANCH  21  30
ATOM     22  C   UNL     1       6.034   6.179  16.620  0.00  0.00    +0.000 A 
ATOM     23  C   UNL     1       5.979   5.201  15.635  0.00  0.00    +0.000 A 
ATOM     24  N   UNL     1       5.277   4.050  15.748  0.00  0.00    +0.000 NA
ATOM     25  C   UNL     1       4.595   3.875  16.903  0.00  0.00    +0.000 A 
ATOM     26  C   UNL     1       3.873   2.619  17.014  0.00  0.00    +0.000 A 
ATOM     27  C   UNL     1       3.216   2.326  18.140  0.00  0.00    +0.000 A 
ATOM     28  C   UNL     1       3.158   3.275  19.278  0.00  0.00    +0.000 A 
ATOM     29  O   UNL     1       2.541   2.940  20.290  0.00  0.00    +0.000 OA
ATOM     30  N   UNL     1       3.782   4.510  19.117  0.00  0.00    +0.000 N 
ATOM     31  C   UNL     1       4.555   4.801  17.949  0.00  0.00    +0.000 A 
ATOM     32  C   UNL     1       5.297   5.972  17.789  0.00  0.00    +0.000 A 
BRANCH  22  34
ATOM     33  C   UNL     1       7.649   7.572  17.650  0.00  0.00    +0.000 C 
ATOM     34  O   UNL     1       6.749   7.343  16.571  0.00  0.00    +0.000 OA
ENDBRANCH  22  34
ENDBRANCH  21  30
ENDBRANCH  20  21
ENDBRANCH   1  20
TORSDOF 7
ENDMDL
MODEL 6
REMARK VINA RESULT:      -7.8      1.462      3.203
REMARK  Name = 
REMARK  8 active torsions:
REMARK  status: ('A' for Active; 'I' for Inactive)
REMARK    1  A    between atoms: C_1  and  O_2
REMARK    2  A    between atoms: O_2  and  C_3
REMARK    3  A    between atoms: N_11  and  C_12
REMARK    4  A    between atoms: C_12  and  C_13
REMARK    5  A    between atoms: C_13  and  N_14
REMARK    6  A    between atoms: C_17  and  N_18
REMARK    7  A    between atoms: N_21  and  C_22
REMARK    8  A    between atoms: C_22  and  C_23
REMARK                            x       y       z     vdW  Elec       q    Type
REMARK                         _______ _______ _______ _____ _____    ______ ____
ROOT
ATOM      1  N   UNL     1       1.740   8.638  19.833  0.00  0.00    +0.000 NA
ATOM      2  C   UNL     1       1.384   9.140  18.493  0.00  0.00    +0.000 C 
ATOM      3  C   UNL     1       0.966  10.608  18.546  0.00  0.00    +0.000 C 
ATOM      4  C   UNL     1      -0.210  10.827  19.499  0.00  0.00    +0.000 C 
ATOM      5  C   UNL     1       0.109  10.213  20.861  0.00  0.00    +0.000 C 
ATOM      6  C   UNL     1       0.598   8.765  20.753  0.00  0.00    +0.000 C 
ENDROOT
BRANCH   4   7
ATOM      7  N   UNL     1      -1.466  10.309  18.953  0.00  0.00    +0.000 N 
ATOM      8  C   UNL     1      -2.194  11.047  18.057  0.00  0.00    +0.000 C 
ATOM      9  O   UNL     1      -1.941  12.209  17.766  0.00  0.00    +0.000 OA
ATOM     10  N   UNL     1      -3.224  10.335  17.505  0.00  0.00    +0.000 N 
ATOM     11  H   UNL     1      -1.590   9.308  18.914  0.00  0.00    +0.000 HD
ATOM     12  H   UNL     1      -3.541   9.510  17.988  0.00  0.00    +0.000 HD
BRANCH  10  13
ATOM     13  C   UNL     1      -4.172  10.996  16.635  0.00  0.00    +0.000 C 
BRANCH  13  14
ATOM     14  C   UNL     1      -5.356  11.512  17.408  0.00  0.00    +0.000 A 
ATOM     15  C   UNL     1      -5.901  10.785  18.474  0.00  0.00    +0.000 A 
ATOM     16  C   UNL     1      -7.009  11.276  19.169  0.00  0.00    +0.000 A 
ATOM     17  C   UNL     1      -7.583  12.492  18.802  0.00  0.00    +0.000 A 
ATOM     18  C   UNL     1      -7.050  13.222  17.743  0.00  0.00    +0.000 A 
ATOM     19  C   UNL     1      -5.944  12.733  17.047  0.00  0.00    +0.000 A 
ENDBRANCH  13  14
ENDBRANCH  10  13
ENDBRANCH   4   7
BRANCH   1  20
ATOM     20  C   UNL     1       2.229   7.238  19.785  0.00  0.00    +0.000 C 
BRANCH  20  21
ATOM     21  C   UNL     1       2.540   6.763  18.349  0.00  0.00    +0.000 C 
BRANCH  21  30
ATOM     22  C   UNL     1       2.897   2.762  20.037  0.00  0.00    +0.000 A 
ATOM     23  C   UNL     1       4.172   2.210  20.051  0.00  0.00    +0.000 A 
ATOM     24  N   UNL     1       5.258   2.798  19.500  0.00  0.00    +0.000 NA
ATOM     25  C   UNL     1       5.055   3.998  18.910  0.00  0.00    +0.000 A 
ATOM     26  C   UNL     1       6.230   4.596  18.299  0.00  0.00    +0.000 A 
ATOM     27  C   UNL     1       6.122   5.754  17.640  0.00  0.00    +0.000 A 
ATOM     28  C   UNL     1       4.834   6.484  17.554  0.00  0.00    +0.000 A 
ATOM     29  O   UNL     1       4.801   7.543  16.925  0.00  0.00    +0.000 OA
ATOM     30  N   UNL     1       3.740   5.938  18.222  0.00  0.00    +0.000 N 
ATOM     31  C   UNL     1       3.826   4.661  18.860  0.00  0.00    +0.000 A 
ATOM     32  C   UNL     1       2.733   4.014  19.440  0.00  0.00    +0.000 A 
BRANCH  22  34
ATOM     33  C   UNL     1       1.342   2.686  21.822  0.00  0.00    +0.000 C 
ATOM     34  O   UNL     1       1.762   2.200  20.551  0.00  0.00    +0.000 OA
ENDBRANCH  22  34
ENDBRANCH  21  30
ENDBRANCH  20  21
ENDBRANCH   1  20
TORSDOF 7
ENDMDL
MODEL 7
REMARK VINA RESULT:      -7.8      3.552      4.617
REMARK  Name = 
REMARK  8 active torsions:
REMARK  status: ('A' for Active; 'I' for Inactive)
REMARK    1  A    between atoms: C_1  and  O_2
REMARK    2  A    between atoms: O_2  and  C_3
REMARK    3  A    between atoms: N_11  and  C_12
REMARK    4  A    between atoms: C_12  and  C_13
REMARK    5  A    between atoms: C_13  and  N_14
REMARK    6  A    between atoms: C_17  and  N_18
REMARK    7  A    between atoms: N_21  and  C_22
REMARK    8  A    between atoms: C_22  and  C_23
REMARK                            x       y       z     vdW  Elec       q    Type
REMARK                         _______ _______ _______ _____ _____    ______ ____
ROOT
ATOM      1  N   UNL     1       0.896   8.936  19.073  0.00  0.00    +0.000 NA
ATOM      2  C   UNL     1       1.107   9.706  20.312  0.00  0.00    +0.000 C 
ATOM      3  C   UNL     1      -0.185  10.378  20.771  0.00  0.00    +0.000 C 
ATOM      4  C   UNL     1      -0.758  11.299  19.693  0.00  0.00    +0.000 C 
ATOM      5  C   UNL     1      -0.879  10.536  18.375  0.00  0.00    +0.000 C 
ATOM      6  C   UNL     1       0.418   9.815  17.993  0.00  0.00    +0.000 C 
ENDROOT
BRANCH   4   7
ATOM      7  N   UNL     1       0.029  12.524  19.539  0.00  0.00    +0.000 N 
ATOM      8  C   UNL     1      -0.520  13.747  19.827  0.00  0.00    +0.000 C 
ATOM      9  O   UNL     1      -1.704  13.919  20.082  0.00  0.00    +0.000 OA
ATOM     10  N   UNL     1       0.407  14.753  19.818  0.00  0.00    +0.000 N 
ATOM     11  H   UNL     1       1.034  12.456  19.612  0.00  0.00    +0.000 HD
ATOM     12  H   UNL     1       1.275  14.593  19.331  0.00  0.00    +0.000 HD
BRANCH  10  13
ATOM     13  C   UNL     1      -0.018  16.126  19.974  0.00  0.00    +0.000 C 
BRANCH  13  14
ATOM     14  C   UNL     1       0.263  16.931  18.735  0.00  0.00    +0.000 A 
ATOM     15  C   UNL     1       1.551  16.992  18.184  0.00  0.00    +0.000 A 
ATOM     16  C   UNL     1       1.794  17.757  17.041  0.00  0.00    +0.000 A 
ATOM     17  C   UNL     1       0.756  18.469  16.442  0.00  0.00    +0.000 A 
ATOM     18  C   UNL     1      -0.526  18.418  16.982  0.00  0.00    +0.000 A 
ATOM     19  C   UNL     1      -0.771  17.655  18.124  0.00  0.00    +0.000 A 
ENDBRANCH  13  14
ENDBRANCH  10  13
ENDBRANCH   4   7
BRANCH   1  20
ATOM     20  C   UNL     1       2.122   8.209  18.661  0.00  0.00    +0.000 C 
BRANCH  20  21
ATOM     21  C   UNL     1       2.506   7.082  19.644  0.00  0.00    +0.000 C 
BRANCH  21  30
ATOM     22  C   UNL     1       5.626   6.205  16.731  0.00  0.00    +0.000 A 
ATOM     23  C   UNL     1       5.517   4.995  16.056  0.00  0.00    +0.000 A 
ATOM     24  N   UNL     1       4.571   4.064  16.317  0.00  0.00    +0.000 NA
ATOM     25  C   UNL     1       3.691   4.364  17.299  0.00  0.00    +0.000 A 
ATOM     26  C   UNL     1       2.702   3.336  17.582  0.00  0.00    +0.000 A 
ATOM     27  C   UNL     1       1.824   3.512  18.573  0.00  0.00    +0.000 A 
ATOM     28  C   UNL     1       1.793   4.760  19.375  0.00  0.00    +0.000 A 
ATOM     29  O   UNL     1       0.962   4.855  20.280  0.00  0.00    +0.000 OA
ATOM     30  N   UNL     1       2.690   5.767  19.029  0.00  0.00    +0.000 N 
ATOM     31  C   UNL     1       3.686   5.559  18.024  0.00  0.00    +0.000 A 
ATOM     32  C   UNL     1       4.683   6.488  17.722  0.00  0.00    +0.000 A 
BRANCH  22  34
ATOM     33  C   UNL     1       7.542   7.319  17.564  0.00  0.00    +0.000 C 
ATOM     34  O   UNL     1       6.577   7.165  16.529  0.00  0.00    +0.000 OA
ENDBRANCH  22  34
ENDBRANCH  21  30
ENDBRANCH  20  21
ENDBRANCH   1  20
TORSDOF 7
ENDMDL
MODEL 8
REMARK VINA RESULT:      -7.7      4.384     11.139
REMARK  Name = 
REMARK  8 active torsions:
REMARK  status: ('A' for Active; 'I' for Inactive)
REMARK    1  A    between atoms: C_1  and  O_2
REMARK    2  A    between atoms: O_2  and  C_3
REMARK    3  A    between atoms: N_11  and  C_12
REMARK    4  A    between atoms: C_12  and  C_13
REMARK    5  A    between atoms: C_13  and  N_14
REMARK    6  A    between atoms: C_17  and  N_18
REMARK    7  A    between atoms: N_21  and  C_22
REMARK    8  A    between atoms: C_22  and  C_23
REMARK                            x       y       z     vdW  Elec       q    Type
REMARK                         _______ _______ _______ _____ _____    ______ ____
ROOT
ATOM      1  N   UNL     1      -0.425  13.295  20.680  0.00  0.00    +0.000 NA
ATOM      2  C   UNL     1       0.936  12.916  20.261  0.00  0.00    +0.000 C 
ATOM      3  C   UNL     1       0.941  12.356  18.841  0.00  0.00    +0.000 C 
ATOM      4  C   UNL     1       0.014  11.148  18.705  0.00  0.00    +0.000 C 
ATOM      5  C   UNL     1      -1.374  11.500  19.239  0.00  0.00    +0.000 C 
ATOM      6  C   UNL     1      -1.324  12.130  20.635  0.00  0.00    +0.000 C 
ENDROOT
BRANCH   4   7
ATOM      7  N   UNL     1       0.559   9.958  19.362  0.00  0.00    +0.000 N 
ATOM      8  C   UNL     1       1.406   9.116  18.689  0.00  0.00    +0.000 C 
ATOM      9  O   UNL     1       1.647   9.206  17.492  0.00  0.00    +0.000 OA
ATOM     10  N   UNL     1       1.971   8.176  19.507  0.00  0.00    +0.000 N 
ATOM     11  H   UNL     1       0.643   9.966  20.368  0.00  0.00    +0.000 HD
ATOM     12  H   UNL     1       1.521   7.983  20.388  0.00  0.00    +0.000 HD
BRANCH  10  13
ATOM     13  C   UNL     1       2.790   7.127  18.941  0.00  0.00    +0.000 C 
BRANCH  13  14
ATOM     14  C   UNL     1       2.172   5.773  19.158  0.00  0.00    +0.000 A 
ATOM     15  C   UNL     1       1.823   5.330  20.441  0.00  0.00    +0.000 A 
ATOM     16  C   UNL     1       1.263   4.063  20.621  0.00  0.00    +0.000 A 
ATOM     17  C   UNL     1       1.052   3.228  19.525  0.00  0.00    +0.000 A 
ATOM     18  C   UNL     1       1.398   3.657  18.246  0.00  0.00    +0.000 A 
ATOM     19  C   UNL     1       1.958   4.922  18.063  0.00  0.00    +0.000 A 
ENDBRANCH  13  14
ENDBRANCH  10  13
ENDBRANCH   4   7
BRANCH   1  20
ATOM     20  C   UNL     1      -0.434  13.919  22.027  0.00  0.00    +0.000 C 
BRANCH  20  21
ATOM     21  C   UNL     1      -1.351  13.175  23.022  0.00  0.00    +0.000 C 
BRANCH  21  30
ATOM     22  C   UNL     1      -5.650  12.942  22.345  0.00  0.00    +0.000 A 
ATOM     23  C   UNL     1      -6.415  13.971  22.879  0.00  0.00    +0.000 A 
ATOM     24  N   UNL     1      -5.917  14.962  23.653  0.00  0.00    +0.000 NA
ATOM     25  C   UNL     1      -4.587  14.920  23.900  0.00  0.00    +0.000 A 
ATOM     26  C   UNL     1      -4.081  15.978  24.758  0.00  0.00    +0.000 A 
ATOM     27  C   UNL     1      -2.791  15.991  25.109  0.00  0.00    +0.000 A 
ATOM     28  C   UNL     1      -1.836  14.974  24.603  0.00  0.00    +0.000 A 
ATOM     29  O   UNL     1      -0.662  15.039  24.971  0.00  0.00    +0.000 OA
ATOM     30  N   UNL     1      -2.324  14.022  23.711  0.00  0.00    +0.000 N 
ATOM     31  C   UNL     1      -3.717  13.951  23.394  0.00  0.00    +0.000 A 
ATOM     32  C   UNL     1      -4.276  12.947  22.602  0.00  0.00    +0.000 A 
BRANCH  22  34
ATOM     33  C   UNL     1      -5.939  12.037  20.176  0.00  0.00    +0.000 C 
ATOM     34  O   UNL     1      -6.105  11.903  21.583  0.00  0.00    +0.000 OA
ENDBRANCH  22  34
ENDBRANCH  21  30
ENDBRANCH  20  21
ENDBRANCH   1  20
TORSDOF 7
ENDMDL
MODEL 9
REMARK VINA RESULT:      -7.7      3.509      4.592
REMARK  Name = 
REMARK  8 active torsions:
REMARK  status: ('A' for Active; 'I' for Inactive)
REMARK    1  A    between atoms: C_1  and  O_2
REMARK    2  A    between atoms: O_2  and  C_3
REMARK    3  A    between atoms: N_11  and  C_12
REMARK    4  A    between atoms: C_12  and  C_13
REMARK    5  A    between atoms: C_13  and  N_14
REMARK    6  A    between atoms: C_17  and  N_18
REMARK    7  A    between atoms: N_21  and  C_22
REMARK    8  A    between atoms: C_22  and  C_23
REMARK                            x       y       z     vdW  Elec       q    Type
REMARK                         _______ _______ _______ _____ _____    ______ ____
ROOT
ATOM      1  N   UNL     1       1.124   8.741  19.309  0.00  0.00    +0.000 NA
ATOM      2  C   UNL     1       0.983   9.577  20.514  0.00  0.00    +0.000 C 
ATOM      3  C   UNL     1      -0.383  10.259  20.556  0.00  0.00    +0.000 C 
ATOM      4  C   UNL     1      -0.626  11.116  19.313  0.00  0.00    +0.000 C 
ATOM      5  C   UNL     1      -0.376  10.283  18.056  0.00  0.00    +0.000 C 
ATOM      6  C   UNL     1       0.973   9.556  18.093  0.00  0.00    +0.000 C 
ENDROOT
BRANCH   4   7
ATOM      7  N   UNL     1       0.179  12.339  19.320  0.00  0.00    +0.000 N 
ATOM      8  C   UNL     1      -0.393  13.548  19.622  0.00  0.00    +0.000 C 
ATOM      9  O   UNL     1      -1.597  13.717  19.759  0.00  0.00    +0.000 OA
ATOM     10  N   UNL     1       0.534  14.543  19.776  0.00  0.00    +0.000 N 
ATOM     11  H   UNL     1       1.169  12.256  19.497  0.00  0.00    +0.000 HD
ATOM     12  H   UNL     1       1.448  14.403  19.376  0.00  0.00    +0.000 HD
BRANCH  10  13
ATOM     13  C   UNL     1       0.100  15.908  19.970  0.00  0.00    +0.000 C 
BRANCH  13  14
ATOM     14  C   UNL     1       0.372  16.748  18.751  0.00  0.00    +0.000 A 
ATOM     15  C   UNL     1       1.662  16.850  18.212  0.00  0.00    +0.000 A 
ATOM     16  C   UNL     1       1.895  17.646  17.088  0.00  0.00    +0.000 A 
ATOM     17  C   UNL     1       0.846  18.349  16.497  0.00  0.00    +0.000 A 
ATOM     18  C   UNL     1      -0.439  18.256  17.026  0.00  0.00    +0.000 A 
ATOM     19  C   UNL     1      -0.675  17.462  18.149  0.00  0.00    +0.000 A 
ENDBRANCH  13  14
ENDBRANCH  10  13
ENDBRANCH   4   7
BRANCH   1  20
ATOM     20  C   UNL     1       2.413   8.006  19.296  0.00  0.00    +0.000 C 
BRANCH  20  21
ATOM     21  C   UNL     1       2.371   6.743  18.408  0.00  0.00    +0.000 C 
BRANCH  21  30
ATOM     22  C   UNL     1       6.587   6.264  17.414  0.00  0.00    +0.000 A 
ATOM     23  C   UNL     1       7.159   5.038  17.729  0.00  0.00    +0.000 A 
ATOM     24  N   UNL     1       6.517   4.050  18.392  0.00  0.00    +0.000 NA
ATOM     25  C   UNL     1       5.237   4.303  18.752  0.00  0.00    +0.000 A 
ATOM     26  C   UNL     1       4.577   3.238  19.489  0.00  0.00    +0.000 A 
ATOM     27  C   UNL     1       3.332   3.414  19.940  0.00  0.00    +0.000 A 
ATOM     28  C   UNL     1       2.572   4.659  19.667  0.00  0.00    +0.000 A 
ATOM     29  O   UNL     1       1.430   4.759  20.119  0.00  0.00    +0.000 OA
ATOM     30  N   UNL     1       3.191   5.630  18.884  0.00  0.00    +0.000 N 
ATOM     31  C   UNL     1       4.551   5.486  18.465  0.00  0.00    +0.000 A 
ATOM     32  C   UNL     1       5.256   6.479  17.782  0.00  0.00    +0.000 A 
BRANCH  22  34
ATOM     33  C   UNL     1       7.765   8.309  17.611  0.00  0.00    +0.000 C 
ATOM     34  O   UNL     1       7.198   7.306  16.775  0.00  0.00    +0.000 OA
ENDBRANCH  22  34
ENDBRANCH  21  30
ENDBRANCH  20  21
ENDBRANCH   1  20
TORSDOF 7
ENDMDL
