MODEL 1
REMARK VINA RESULT:      -6.2      0.000      0.000
REMARK  Name = 
REMARK  3 active torsions:
REMARK  status: ('A' for Active; 'I' for Inactive)
REMARK    1  A    between atoms: O_1  and  C_2
REMARK    2  A    between atoms: C_8  and  C_9
REMARK    3  A    between atoms: C_9  and  N_10
REMARK                            x       y       z     vdW  Elec       q    Type
REMARK                         _______ _______ _______ _____ _____    ______ ____
ROOT
ATOM      1  C   UNL     1       5.809   5.154  18.312  0.00  0.00    +0.000 A 
ATOM      2  C   UNL     1       7.054   4.736  17.836  0.00  0.00    +0.000 A 
ATOM      3  C   UNL     1       7.208   4.414  16.485  0.00  0.00    +0.000 A 
ATOM      4  C   UNL     1       6.116   4.507  15.625  0.00  0.00    +0.000 A 
ATOM      5 BR   UNL     1       6.322   4.071  13.798  0.00  0.00    +0.000 Br
ATOM      6  C   UNL     1       4.874   4.925  16.102  0.00  0.00    +0.000 A 
ATOM      7  C   UNL     1       4.706   5.263  17.454  0.00  0.00    +0.000 A 
ENDROOT
BRANCH   1   8
ATOM      8  O   UNL     1       5.659   5.470  19.633  0.00  0.00    +0.000 OA
ATOM      9  H   UNL     1       5.574   6.433  19.717  0.00  0.00    +0.000 HD
ENDBRANCH   1   8
BRANCH   7  10
ATOM     10  C   UNL     1       3.356   5.745  17.934  0.00  0.00    +0.000 C 
BRANCH  10  11
ATOM     11  N   UNL     1       2.427   4.654  18.121  0.00  0.00    +0.000 N 
ATOM     12  C   UNL     1       2.168   4.142  19.339  0.00  0.00    +0.000 A 
ATOM     13  N   UNL     1       2.742   4.507  20.463  0.00  0.00    +0.000 NA
ATOM     14  C   UNL     1       2.241   3.773  21.520  0.00  0.00    +0.000 A 
ATOM     15  C   UNL     1       1.306   2.819  21.189  0.00  0.00    +0.000 A 
ATOM     16  S   UNL     1       1.003   2.877  19.506  0.00  0.00    +0.000 S 
ATOM     17  H   UNL     1       1.779   4.490  17.362  0.00  0.00    +0.000 HD
ENDBRANCH  10  11
ENDBRANCH   7  10
TORSDOF 3
ENDMDL
MODEL 2
REMARK VINA RESULT:      -6.1      1.045      1.287
REMARK  Name = 
REMARK  3 active torsions:
REMARK  status: ('A' for Active; 'I' for Inactive)
REMARK    1  A    between atoms: O_1  and  C_2
REMARK    2  A    between atoms: C_8  and  C_9
REMARK    3  A    between atoms: C_9  and  N_10
REMARK                            x       y       z     vdW  Elec       q    Type
REMARK                         _______ _______ _______ _____ _____    ______ ____
ROOT
ATOM      1  C   UNL     1       6.340   5.247  18.465  0.00  0.00    +0.000 A 
ATOM      2  C   UNL     1       7.411   4.687  17.766  0.00  0.00    +0.000 A 
ATOM      3  C   UNL     1       7.262   4.354  16.417  0.00  0.00    +0.000 A 
ATOM      4  C   UNL     1       6.042   4.577  15.783  0.00  0.00    +0.000 A 
ATOM      5 BR   UNL     1       5.838   4.126  13.959  0.00  0.00    +0.000 Br
ATOM      6  C   UNL     1       4.973   5.136  16.482  0.00  0.00    +0.000 A 
ATOM      7  C   UNL     1       5.111   5.487  17.835  0.00  0.00    +0.000 A 
ENDROOT
BRANCH   1   8
ATOM      8  O   UNL     1       6.486   5.573  19.784  0.00  0.00    +0.000 OA
ATOM      9  H   UNL     1       5.611   5.572  20.206  0.00  0.00    +0.000 HD
ENDBRANCH   1   8
BRANCH   7  10
ATOM     10  C   UNL     1       3.945   6.122  18.557  0.00  0.00    +0.000 C 
BRANCH  10  11
ATOM     11  N   UNL     1       3.653   5.456  19.805  0.00  0.00    +0.000 N 
ATOM     12  C   UNL     1       2.687   4.523  19.903  0.00  0.00    +0.000 A 
ATOM     13  N   UNL     1       1.876   4.152  18.937  0.00  0.00    +0.000 NA
ATOM     14  C   UNL     1       1.008   3.177  19.385  0.00  0.00    +0.000 A 
ATOM     15  C   UNL     1       1.137   2.831  20.711  0.00  0.00    +0.000 A 
ATOM     16  S   UNL     1       2.423   3.718  21.409  0.00  0.00    +0.000 S 
ATOM     17  H   UNL     1       4.375   5.504  20.511  0.00  0.00    +0.000 HD
ENDBRANCH  10  11
ENDBRANCH   7  10
TORSDOF 3
ENDMDL
MODEL 3
REMARK VINA RESULT:      -6.0      2.555      3.037
REMARK  Name = 
REMARK  3 active torsions:
REMARK  status: ('A' for Active; 'I' for Inactive)
REMARK    1  A    between atoms: O_1  and  C_2
REMARK    2  A    between atoms: C_8  and  C_9
REMARK    3  A    between atoms: C_9  and  N_10
REMARK                            x       y       z     vdW  Elec       q    Type
REMARK                         _______ _______ _______ _____ _____    ______ ____
ROOT
ATOM      1  C   UNL     1       6.553   4.996  18.297  0.00  0.00    +0.000 A 
ATOM      2  C   UNL     1       7.691   5.387  19.005  0.00  0.00    +0.000 A 
ATOM      3  C   UNL     1       8.195   6.682  18.849  0.00  0.00    +0.000 A 
ATOM      4  C   UNL     1       7.560   7.569  17.985  0.00  0.00    +0.000 A 
ATOM      5 BR   UNL     1       8.240   9.320  17.772  0.00  0.00    +0.000 Br
ATOM      6  C   UNL     1       6.423   7.178  17.278  0.00  0.00    +0.000 A 
ATOM      7  C   UNL     1       5.898   5.885  17.433  0.00  0.00    +0.000 A 
ENDROOT
BRANCH   1   8
ATOM      8  O   UNL     1       6.060   3.731  18.450  0.00  0.00    +0.000 OA
ATOM      9  H   UNL     1       6.750   3.171  18.841  0.00  0.00    +0.000 HD
ENDBRANCH   1   8
BRANCH   7  10
ATOM     10  C   UNL     1       4.645   5.501  16.680  0.00  0.00    +0.000 C 
BRANCH  10  11
ATOM     11  N   UNL     1       3.495   5.413  17.551  0.00  0.00    +0.000 N 
ATOM     12  C   UNL     1       2.921   4.233  17.854  0.00  0.00    +0.000 A 
ATOM     13  N   UNL     1       3.275   3.061  17.374  0.00  0.00    +0.000 NA
ATOM     14  C   UNL     1       2.472   2.066  17.894  0.00  0.00    +0.000 A 
ATOM     15  C   UNL     1       1.479   2.490  18.747  0.00  0.00    +0.000 A 
ATOM     16  S   UNL     1       1.585   4.185  18.948  0.00  0.00    +0.000 S 
ATOM     17  H   UNL     1       3.324   6.217  18.140  0.00  0.00    +0.000 HD
ENDBRANCH  10  11
ENDBRANCH   7  10
TORSDOF 3
ENDMDL
MODEL 4
REMARK VINA RESULT:      -5.8      3.640      5.735
REMARK  Name = 
REMARK  3 active torsions:
REMARK  status: ('A' for Active; 'I' for Inactive)
REMARK    1  A    between atoms: O_1  and  C_2
REMARK    2  A    between atoms: C_8  and  C_9
REMARK    3  A    between atoms: C_9  and  N_10
REMARK                            x       y       z     vdW  Elec       q    Type
REMARK                         _______ _______ _______ _____ _____    ______ ____
ROOT
ATOM      1  C   UNL     1       2.108   2.643  19.009  0.00  0.00    +0.000 A 
ATOM      2  C   UNL     1       1.314   2.828  20.143  0.00  0.00    +0.000 A 
ATOM      3  C   UNL     1       1.137   4.113  20.663  0.00  0.00    +0.000 A 
ATOM      4  C   UNL     1       1.758   5.197  20.050  0.00  0.00    +0.000 A 
ATOM      5 BR   UNL     1       1.520   6.936  20.752  0.00  0.00    +0.000 Br
ATOM      6  C   UNL     1       2.551   5.011  18.917  0.00  0.00    +0.000 A 
ATOM      7  C   UNL     1       2.729   3.728  18.376  0.00  0.00    +0.000 A 
ENDROOT
BRANCH   1   8
ATOM      8  O   UNL     1       2.281   1.386  18.500  0.00  0.00    +0.000 OA
ATOM      9  H   UNL     1       2.339   1.446  17.533  0.00  0.00    +0.000 HD
ENDBRANCH   1   8
BRANCH   7  10
ATOM     10  C   UNL     1       3.566   3.561  17.128  0.00  0.00    +0.000 C 
BRANCH  10  11
ATOM     11  N   UNL     1       4.981   3.620  17.413  0.00  0.00    +0.000 N 
ATOM     12  C   UNL     1       5.673   4.773  17.346  0.00  0.00    +0.000 A 
ATOM     13  N   UNL     1       5.191   5.937  16.972  0.00  0.00    +0.000 NA
ATOM     14  C   UNL     1       6.176   6.903  17.018  0.00  0.00    +0.000 A 
ATOM     15  C   UNL     1       7.423   6.461  17.394  0.00  0.00    +0.000 A 
ATOM     16  S   UNL     1       7.351   4.790  17.755  0.00  0.00    +0.000 S 
ATOM     17  H   UNL     1       5.360   2.840  17.934  0.00  0.00    +0.000 HD
ENDBRANCH  10  11
ENDBRANCH   7  10
TORSDOF 3
ENDMDL
MODEL 5
REMARK VINA RESULT:      -5.8      3.798      6.050
REMARK  Name = 
REMARK  3 active torsions:
REMARK  status: ('A' for Active; 'I' for Inactive)
REMARK    1  A    between atoms: O_1  and  C_2
REMARK    2  A    between atoms: C_8  and  C_9
REMARK    3  A    between atoms: C_9  and  N_10
REMARK                            x       y       z     vdW  Elec       q    Type
REMARK                         _______ _______ _______ _____ _____    ______ ____
ROOT
ATOM      1  C   UNL     1       4.687   4.209  18.861  0.00  0.00    +0.000 A 
ATOM      2  C   UNL     1       3.565   4.572  19.610  0.00  0.00    +0.000 A 
ATOM      3  C   UNL     1       2.901   5.770  19.329  0.00  0.00    +0.000 A 
ATOM      4  C   UNL     1       3.367   6.593  18.308  0.00  0.00    +0.000 A 
ATOM      5 BR   UNL     1       2.471   8.213  17.927  0.00  0.00    +0.000 Br
ATOM      6  C   UNL     1       4.487   6.230  17.561  0.00  0.00    +0.000 A 
ATOM      7  C   UNL     1       5.158   5.025  17.823  0.00  0.00    +0.000 A 
ENDROOT
BRANCH   1   8
ATOM      8  O   UNL     1       5.336   3.038  19.135  0.00  0.00    +0.000 OA
ATOM      9  H   UNL     1       6.139   3.238  19.643  0.00  0.00    +0.000 HD
ENDBRANCH   1   8
BRANCH   7  10
ATOM     10  C   UNL     1       6.348   4.641  16.974  0.00  0.00    +0.000 C 
BRANCH  10  11
ATOM     11  N   UNL     1       5.950   4.063  15.712  0.00  0.00    +0.000 N 
ATOM     12  C   UNL     1       6.574   4.373  14.560  0.00  0.00    +0.000 A 
ATOM     13  N   UNL     1       7.547   5.246  14.424  0.00  0.00    +0.000 NA
ATOM     14  C   UNL     1       7.951   5.315  13.106  0.00  0.00    +0.000 A 
ATOM     15  C   UNL     1       7.255   4.515  12.229  0.00  0.00    +0.000 A 
ATOM     16  S   UNL     1       6.091   3.604  13.090  0.00  0.00    +0.000 S 
ATOM     17  H   UNL     1       5.392   3.221  15.767  0.00  0.00    +0.000 HD
ENDBRANCH  10  11
ENDBRANCH   7  10
TORSDOF 3
ENDMDL
MODEL 6
REMARK VINA RESULT:      -5.8      4.026      6.248
REMARK  Name = 
REMARK  3 active torsions:
REMARK  status: ('A' for Active; 'I' for Inactive)
REMARK    1  A    between atoms: O_1  and  C_2
REMARK    2  A    between atoms: C_8  and  C_9
REMARK    3  A    between atoms: C_9  and  N_10
REMARK                            x       y       z     vdW  Elec       q    Type
REMARK                         _______ _______ _______ _____ _____    ______ ____
ROOT
ATOM      1  C   UNL     1       4.743   6.483  16.925  0.00  0.00    +0.000 A 
ATOM      2  C   UNL     1       3.717   7.233  17.501  0.00  0.00    +0.000 A 
ATOM      3  C   UNL     1       2.979   6.701  18.563  0.00  0.00    +0.000 A 
ATOM      4  C   UNL     1       3.271   5.423  19.031  0.00  0.00    +0.000 A 
ATOM      5 BR   UNL     1       2.274   4.700  20.466  0.00  0.00    +0.000 Br
ATOM      6  C   UNL     1       4.296   4.674  18.455  0.00  0.00    +0.000 A 
ATOM      7  C   UNL     1       5.054   5.200  17.396  0.00  0.00    +0.000 A 
ENDROOT
BRANCH   1   8
ATOM      8  O   UNL     1       5.465   7.004  15.888  0.00  0.00    +0.000 OA
ATOM      9  H   UNL     1       6.121   7.624  16.244  0.00  0.00    +0.000 HD
ENDBRANCH   1   8
BRANCH   7  10
ATOM     10  C   UNL     1       6.181   4.378  16.814  0.00  0.00    +0.000 C 
BRANCH  10  11
ATOM     11  N   UNL     1       5.854   3.860  15.505  0.00  0.00    +0.000 N 
ATOM     12  C   UNL     1       6.514   4.254  14.400  0.00  0.00    +0.000 A 
ATOM     13  N   UNL     1       7.462   5.164  14.354  0.00  0.00    +0.000 NA
ATOM     14  C   UNL     1       7.917   5.320  13.060  0.00  0.00    +0.000 A 
ATOM     15  C   UNL     1       7.285   4.549  12.111  0.00  0.00    +0.000 A 
ATOM     16  S   UNL     1       6.117   3.555  12.870  0.00  0.00    +0.000 S 
ATOM     17  H   UNL     1       5.323   3.000  15.490  0.00  0.00    +0.000 HD
ENDBRANCH  10  11
ENDBRANCH   7  10
TORSDOF 3
ENDMDL
MODEL 7
REMARK VINA RESULT:      -5.8      3.661      6.047
REMARK  Name = 
REMARK  3 active torsions:
REMARK  status: ('A' for Active; 'I' for Inactive)
REMARK    1  A    between atoms: O_1  and  C_2
REMARK    2  A    between atoms: C_8  and  C_9
REMARK    3  A    between atoms: C_9  and  N_10
REMARK                            x       y       z     vdW  Elec       q    Type
REMARK                         _______ _______ _______ _____ _____    ______ ____
ROOT
ATOM      1  C   UNL     1       1.837   2.622  19.245  0.00  0.00    +0.000 A 
ATOM      2  C   UNL     1       0.983   3.112  20.234  0.00  0.00    +0.000 A 
ATOM      3  C   UNL     1       1.031   4.464  20.586  0.00  0.00    +0.000 A 
ATOM      4  C   UNL     1       1.935   5.310  19.950  0.00  0.00    +0.000 A 
ATOM      5 BR   UNL     1       2.002   7.138  20.424  0.00  0.00    +0.000 Br
ATOM      6  C   UNL     1       2.788   4.819  18.961  0.00  0.00    +0.000 A 
ATOM      7  C   UNL     1       2.743   3.466  18.589  0.00  0.00    +0.000 A 
ENDROOT
BRANCH   1   8
ATOM      8  O   UNL     1       1.790   1.300  18.901  0.00  0.00    +0.000 OA
ATOM      9  H   UNL     1       2.614   0.873  19.186  0.00  0.00    +0.000 HD
ENDBRANCH   1   8
BRANCH   7  10
ATOM     10  C   UNL     1       3.656   2.971  17.491  0.00  0.00    +0.000 C 
BRANCH  10  11
ATOM     11  N   UNL     1       4.985   3.528  17.598  0.00  0.00    +0.000 N 
ATOM     12  C   UNL     1       5.637   4.023  16.529  0.00  0.00    +0.000 A 
ATOM     13  N   UNL     1       5.198   4.014  15.290  0.00  0.00    +0.000 NA
ATOM     14  C   UNL     1       6.122   4.600  14.448  0.00  0.00    +0.000 A 
ATOM     15  C   UNL     1       7.285   5.026  15.048  0.00  0.00    +0.000 A 
ATOM     16  S   UNL     1       7.200   4.730  16.731  0.00  0.00    +0.000 S 
ATOM     17  H   UNL     1       5.280   3.791  18.529  0.00  0.00    +0.000 HD
ENDBRANCH  10  11
ENDBRANCH   7  10
TORSDOF 3
ENDMDL
MODEL 8
REMARK VINA RESULT:      -5.7      2.458      3.215
REMARK  Name = 
REMARK  3 active torsions:
REMARK  status: ('A' for Active; 'I' for Inactive)
REMARK    1  A    between atoms: O_1  and  C_2
REMARK    2  A    between atoms: C_8  and  C_9
REMARK    3  A    between atoms: C_9  and  N_10
REMARK                            x       y       z     vdW  Elec       q    Type
REMARK                         _______ _______ _______ _____ _____    ______ ____
ROOT
ATOM      1  C   UNL     1       7.038   5.172  14.761  0.00  0.00    +0.000 A 
ATOM      2  C   UNL     1       7.674   4.995  13.530  0.00  0.00    +0.000 A 
ATOM      3  C   UNL     1       7.049   4.250  12.527  0.00  0.00    +0.000 A 
ATOM      4  C   UNL     1       5.799   3.685  12.765  0.00  0.00    +0.000 A 
ATOM      5 BR   UNL     1       4.952   2.675  11.410  0.00  0.00    +0.000 Br
ATOM      6  C   UNL     1       5.165   3.862  13.995  0.00  0.00    +0.000 A 
ATOM      7  C   UNL     1       5.775   4.618  15.009  0.00  0.00    +0.000 A 
ENDROOT
BRANCH   1   8
ATOM      8  O   UNL     1       7.650   5.902  15.742  0.00  0.00    +0.000 OA
ATOM      9  H   UNL     1       7.337   6.820  15.689  0.00  0.00    +0.000 HD
ENDBRANCH   1   8
BRANCH   7  10
ATOM     10  C   UNL     1       5.049   4.821  16.318  0.00  0.00    +0.000 C 
BRANCH  10  11
ATOM     11  N   UNL     1       4.820   3.574  17.010  0.00  0.00    +0.000 N 
ATOM     12  C   UNL     1       3.630   3.277  17.566  0.00  0.00    +0.000 A 
ATOM     13  N   UNL     1       2.582   4.070  17.605  0.00  0.00    +0.000 NA
ATOM     14  C   UNL     1       1.533   3.448  18.253  0.00  0.00    +0.000 A 
ATOM     15  C   UNL     1       1.799   2.189  18.741  0.00  0.00    +0.000 A 
ATOM     16  S   UNL     1       3.399   1.745  18.329  0.00  0.00    +0.000 S 
ATOM     17  H   UNL     1       5.478   2.831  16.813  0.00  0.00    +0.000 HD
ENDBRANCH  10  11
ENDBRANCH   7  10
TORSDOF 3
ENDMDL
MODEL 9
REMARK VINA RESULT:      -5.6      3.725      5.674
REMARK  Name = 
REMARK  3 active torsions:
REMARK  status: ('A' for Active; 'I' for Inactive)
REMARK    1  A    between atoms: O_1  and  C_2
REMARK    2  A    between atoms: C_8  and  C_9
REMARK    3  A    between atoms: C_9  and  N_10
REMARK                            x       y       z     vdW  Elec       q    Type
REMARK                         _______ _______ _______ _____ _____    ______ ____
ROOT
ATOM      1  C   UNL     1       2.297   2.684  18.798  0.00  0.00    +0.000 A 
ATOM      2  C   UNL     1       1.241   2.842  19.698  0.00  0.00    +0.000 A 
ATOM      3  C   UNL     1       1.015   4.087  20.292  0.00  0.00    +0.000 A 
ATOM      4  C   UNL     1       1.851   5.158  19.986  0.00  0.00    +0.000 A 
ATOM      5 BR   UNL     1       1.548   6.842  20.789  0.00  0.00    +0.000 Br
ATOM      6  C   UNL     1       2.906   4.999  19.088  0.00  0.00    +0.000 A 
ATOM      7  C   UNL     1       3.137   3.757  18.474  0.00  0.00    +0.000 A 
ENDROOT
BRANCH   1   8
ATOM      8  O   UNL     1       2.517   1.467  18.217  0.00  0.00    +0.000 OA
ATOM      9  H   UNL     1       3.408   1.163  18.455  0.00  0.00    +0.000 HD
ENDBRANCH   1   8
BRANCH   7  10
ATOM     10  C   UNL     1       4.267   3.624  17.478  0.00  0.00    +0.000 C 
BRANCH  10  11
ATOM     11  N   UNL     1       4.832   4.906  17.126  0.00  0.00    +0.000 N 
ATOM     12  C   UNL     1       5.948   5.377  17.716  0.00  0.00    +0.000 A 
ATOM     13  N   UNL     1       6.610   4.790  18.687  0.00  0.00    +0.000 NA
ATOM     14  C   UNL     1       7.702   5.550  19.054  0.00  0.00    +0.000 A 
ATOM     15  C   UNL     1       7.849   6.741  18.381  0.00  0.00    +0.000 A 
ATOM     16  S   UNL     1       6.610   6.891  17.211  0.00  0.00    +0.000 S 
ATOM     17  H   UNL     1       4.534   5.293  16.241  0.00  0.00    +0.000 HD
ENDBRANCH  10  11
ENDBRANCH   7  10
TORSDOF 3
ENDMDL
