MODEL 1
REMARK VINA RESULT:      -8.1      0.000      0.000
REMARK  Name = 
REMARK  7 active torsions:
REMARK  status: ('A' for Active; 'I' for Inactive)
REMARK    1  A    between atoms: C_1  and  C_2
REMARK    2  A    between atoms: C_5  and  C_6
REMARK    3  A    between atoms: C_7  and  C_8
REMARK    4  A    between atoms: C_8  and  O_9
REMARK    5  A    between atoms: O_9  and  C_10
REMARK    6  A    between atoms: C_10  and  C_12
REMARK    7  A    between atoms: C_14  and  O_15
REMARK                            x       y       z     vdW  Elec       q    Type
REMARK                         _______ _______ _______ _____ _____    ______ ____
ROOT
ATOM      1  C   UNL     1       2.647   3.904  18.667  0.00  0.00    +0.000 A 
ATOM      2  C   UNL     1       2.643   3.055  19.778  0.00  0.00    +0.000 A 
ATOM      3  C   UNL     1       2.411   3.619  21.009  0.00  0.00    +0.000 A 
ATOM      4  N   UNL     1       2.196   4.926  21.205  0.00  0.00    +0.000 NA
ATOM      5  C   UNL     1       2.209   5.748  20.146  0.00  0.00    +0.000 A 
ATOM      6  C   UNL     1       2.036   7.106  20.378  0.00  0.00    +0.000 A 
ATOM      7  C   UNL     1       2.056   8.044  19.345  0.00  0.00    +0.000 A 
ATOM      8  C   UNL     1       2.226   7.617  18.038  0.00  0.00    +0.000 A 
ATOM      9  C   UNL     1       2.399   6.258  17.778  0.00  0.00    +0.000 A 
ATOM     10  C   UNL     1       2.413   5.297  18.824  0.00  0.00    +0.000 A 
ENDROOT
BRANCH   1  11
ATOM     11  C   UNL     1       2.907   3.312  17.328  0.00  0.00    +0.000 C 
ATOM     12  O   UNL     1       2.303   2.359  16.863  0.00  0.00    +0.000 OA
BRANCH  11  13
ATOM     13  O   UNL     1       3.890   4.007  16.706  0.00  0.00    +0.000 OA
BRANCH  13  14
ATOM     14  C   UNL     1       5.223   3.780  17.193  0.00  0.00    +0.000 C 
BRANCH  14  21
ATOM     15  C   UNL     1       5.961   3.800  14.013  0.00  0.00    +0.000 C 
ATOM     16  C   UNL     1       6.521   4.646  15.095  0.00  0.00    +0.000 A 
ATOM     17  N   UNL     1       7.461   5.556  14.813  0.00  0.00    +0.000 NA
ATOM     18  O   UNL     1       7.770   6.163  16.014  0.00  0.00    +0.000 OA
ATOM     19  C   UNL     1       7.018   5.619  17.004  0.00  0.00    +0.000 A 
ATOM     20  C   UNL     1       7.234   6.155  18.360  0.00  0.00    +0.000 C 
ATOM     21  C   UNL     1       6.199   4.643  16.481  0.00  0.00    +0.000 A 
ENDBRANCH  14  21
ENDBRANCH  13  14
ENDBRANCH  11  13
ENDBRANCH   1  11
BRANCH   3  22
ATOM     22  O   UNL     1       2.398   2.867  22.144  0.00  0.00    +0.000 OA
ATOM     23  H   UNL     1       1.706   3.201  22.733  0.00  0.00    +0.000 HD
ENDBRANCH   3  22
TORSDOF 5
ENDMDL
MODEL 2
REMARK VINA RESULT:      -8.1      0.486      1.737
REMARK  Name = 
REMARK  7 active torsions:
REMARK  status: ('A' for Active; 'I' for Inactive)
REMARK    1  A    between atoms: C_1  and  C_2
REMARK    2  A    between atoms: C_5  and  C_6
REMARK    3  A    between atoms: C_7  and  C_8
REMARK    4  A    between atoms: C_8  and  O_9
REMARK    5  A    between atoms: O_9  and  C_10
REMARK    6  A    between atoms: C_10  and  C_12
REMARK    7  A    between atoms: C_14  and  O_15
REMARK                            x       y       z     vdW  Elec       q    Type
REMARK                         _______ _______ _______ _____ _____    ______ ____
ROOT
ATOM      1  C   UNL     1       2.494   3.869  18.758  0.00  0.00    +0.000 A 
ATOM      2  C   UNL     1       2.424   3.046  19.887  0.00  0.00    +0.000 A 
ATOM      3  C   UNL     1       2.189   3.649  21.099  0.00  0.00    +0.000 A 
ATOM      4  N   UNL     1       2.030   4.969  21.261  0.00  0.00    +0.000 NA
ATOM      5  C   UNL     1       2.107   5.764  20.184  0.00  0.00    +0.000 A 
ATOM      6  C   UNL     1       1.992   7.134  20.382  0.00  0.00    +0.000 A 
ATOM      7  C   UNL     1       2.081   8.046  19.329  0.00  0.00    +0.000 A 
ATOM      8  C   UNL     1       2.262   7.581  18.037  0.00  0.00    +0.000 A 
ATOM      9  C   UNL     1       2.378   6.210  17.812  0.00  0.00    +0.000 A 
ATOM     10  C   UNL     1       2.322   5.274  18.879  0.00  0.00    +0.000 A 
ENDROOT
BRANCH   1  11
ATOM     11  C   UNL     1       2.759   3.234  17.440  0.00  0.00    +0.000 C 
ATOM     12  O   UNL     1       2.160   2.264  17.005  0.00  0.00    +0.000 OA
BRANCH  11  13
ATOM     13  O   UNL     1       3.740   3.913  16.796  0.00  0.00    +0.000 OA
BRANCH  13  14
ATOM     14  C   UNL     1       5.086   3.528  17.122  0.00  0.00    +0.000 C 
BRANCH  14  21
ATOM     15  C   UNL     1       6.806   5.835  18.663  0.00  0.00    +0.000 C 
ATOM     16  C   UNL     1       6.808   5.493  17.220  0.00  0.00    +0.000 A 
ATOM     17  N   UNL     1       7.585   6.177  16.371  0.00  0.00    +0.000 NA
ATOM     18  O   UNL     1       7.358   5.628  15.125  0.00  0.00    +0.000 OA
ATOM     19  C   UNL     1       6.453   4.622  15.232  0.00  0.00    +0.000 A 
ATOM     20  C   UNL     1       6.093   3.930  13.980  0.00  0.00    +0.000 C 
ATOM     21  C   UNL     1       6.063   4.486  16.545  0.00  0.00    +0.000 A 
ENDBRANCH  14  21
ENDBRANCH  13  14
ENDBRANCH  11  13
ENDBRANCH   1  11
BRANCH   3  22
ATOM     22  O   UNL     1       2.113   2.925  22.250  0.00  0.00    +0.000 OA
ATOM     23  H   UNL     1       2.878   3.137  22.803  0.00  0.00    +0.000 HD
ENDBRANCH   3  22
TORSDOF 5
ENDMDL
MODEL 3
REMARK VINA RESULT:      -8.1      1.605      5.603
REMARK  Name = 
REMARK  7 active torsions:
REMARK  status: ('A' for Active; 'I' for Inactive)
REMARK    1  A    between atoms: C_1  and  C_2
REMARK    2  A    between atoms: C_5  and  C_6
REMARK    3  A    between atoms: C_7  and  C_8
REMARK    4  A    between atoms: C_8  and  O_9
REMARK    5  A    between atoms: O_9  and  C_10
REMARK    6  A    between atoms: C_10  and  C_12
REMARK    7  A    between atoms: C_14  and  O_15
REMARK                            x       y       z     vdW  Elec       q    Type
REMARK                         _______ _______ _______ _____ _____    ______ ____
ROOT
ATOM      1  C   UNL     1       4.898   3.807  17.580  0.00  0.00    +0.000 A 
ATOM      2  C   UNL     1       5.402   4.247  18.808  0.00  0.00    +0.000 A 
ATOM      3  C   UNL     1       6.550   5.001  18.790  0.00  0.00    +0.000 A 
ATOM      4  N   UNL     1       7.213   5.331  17.675  0.00  0.00    +0.000 NA
ATOM      5  C   UNL     1       6.741   4.903  16.495  0.00  0.00    +0.000 A 
ATOM      6  C   UNL     1       7.471   5.212  15.355  0.00  0.00    +0.000 A 
ATOM      7  C   UNL     1       7.077   4.793  14.083  0.00  0.00    +0.000 A 
ATOM      8  C   UNL     1       5.905   4.069  13.937  0.00  0.00    +0.000 A 
ATOM      9  C   UNL     1       5.152   3.748  15.066  0.00  0.00    +0.000 A 
ATOM     10  C   UNL     1       5.561   4.140  16.368  0.00  0.00    +0.000 A 
ENDROOT
BRANCH   1  11
ATOM     11  C   UNL     1       3.662   2.980  17.581  0.00  0.00    +0.000 C 
ATOM     12  O   UNL     1       3.592   1.839  18.008  0.00  0.00    +0.000 OA
BRANCH  11  13
ATOM     13  O   UNL     1       2.634   3.697  17.065  0.00  0.00    +0.000 OA
BRANCH  13  14
ATOM     14  C   UNL     1       1.460   3.792  17.889  0.00  0.00    +0.000 C 
BRANCH  14  21
ATOM     15  C   UNL     1       2.470   6.885  18.162  0.00  0.00    +0.000 C 
ATOM     16  C   UNL     1       2.190   5.908  19.241  0.00  0.00    +0.000 A 
ATOM     17  N   UNL     1       2.355   6.260  20.522  0.00  0.00    +0.000 NA
ATOM     18  O   UNL     1       2.021   5.146  21.267  0.00  0.00    +0.000 OA
ATOM     19  C   UNL     1       1.659   4.137  20.434  0.00  0.00    +0.000 A 
ATOM     20  C   UNL     1       1.278   2.865  21.075  0.00  0.00    +0.000 C 
ATOM     21  C   UNL     1       1.746   4.561  19.127  0.00  0.00    +0.000 A 
ENDBRANCH  14  21
ENDBRANCH  13  14
ENDBRANCH  11  13
ENDBRANCH   1  11
BRANCH   3  22
ATOM     22  O   UNL     1       7.114   5.464  19.941  0.00  0.00    +0.000 OA
ATOM     23  H   UNL     1       6.843   4.892  20.673  0.00  0.00    +0.000 HD
ENDBRANCH   3  22
TORSDOF 5
ENDMDL
MODEL 4
REMARK VINA RESULT:      -8.0      1.703      5.591
REMARK  Name = 
REMARK  7 active torsions:
REMARK  status: ('A' for Active; 'I' for Inactive)
REMARK    1  A    between atoms: C_1  and  C_2
REMARK    2  A    between atoms: C_5  and  C_6
REMARK    3  A    between atoms: C_7  and  C_8
REMARK    4  A    between atoms: C_8  and  O_9
REMARK    5  A    between atoms: O_9  and  C_10
REMARK    6  A    between atoms: C_10  and  C_12
REMARK    7  A    between atoms: C_14  and  O_15
REMARK                            x       y       z     vdW  Elec       q    Type
REMARK                         _______ _______ _______ _____ _____    ______ ____
ROOT
ATOM      1  C   UNL     1       4.913   3.784  17.596  0.00  0.00    +0.000 A 
ATOM      2  C   UNL     1       5.413   4.218  18.828  0.00  0.00    +0.000 A 
ATOM      3  C   UNL     1       6.557   4.979  18.817  0.00  0.00    +0.000 A 
ATOM      4  N   UNL     1       7.218   5.321  17.704  0.00  0.00    +0.000 NA
ATOM      5  C   UNL     1       6.750   4.898  16.521  0.00  0.00    +0.000 A 
ATOM      6  C   UNL     1       7.481   5.220  15.385  0.00  0.00    +0.000 A 
ATOM      7  C   UNL     1       7.090   4.809  14.109  0.00  0.00    +0.000 A 
ATOM      8  C   UNL     1       5.923   4.078  13.956  0.00  0.00    +0.000 A 
ATOM      9  C   UNL     1       5.170   3.745  15.082  0.00  0.00    +0.000 A 
ATOM     10  C   UNL     1       5.575   4.130  16.387  0.00  0.00    +0.000 A 
ENDROOT
BRANCH   1  11
ATOM     11  C   UNL     1       3.682   2.950  17.590  0.00  0.00    +0.000 C 
ATOM     12  O   UNL     1       3.604   1.825  18.057  0.00  0.00    +0.000 OA
BRANCH  11  13
ATOM     13  O   UNL     1       2.667   3.640  17.014  0.00  0.00    +0.000 OA
BRANCH  13  14
ATOM     14  C   UNL     1       1.486   3.804  17.818  0.00  0.00    +0.000 C 
BRANCH  14  21
ATOM     15  C   UNL     1       1.258   2.918  20.952  0.00  0.00    +0.000 C 
ATOM     16  C   UNL     1       1.675   4.226  20.392  0.00  0.00    +0.000 A 
ATOM     17  N   UNL     1       2.012   5.229  21.212  0.00  0.00    +0.000 NA
ATOM     18  O   UNL     1       2.342   6.291  20.395  0.00  0.00    +0.000 OA
ATOM     19  C   UNL     1       2.203   5.923  19.095  0.00  0.00    +0.000 A 
ATOM     20  C   UNL     1       2.512   6.954  18.087  0.00  0.00    +0.000 C 
ATOM     21  C   UNL     1       1.780   4.615  19.027  0.00  0.00    +0.000 A 
ENDBRANCH  14  21
ENDBRANCH  13  14
ENDBRANCH  11  13
ENDBRANCH   1  11
BRANCH   3  22
ATOM     22  O   UNL     1       7.116   5.436  19.971  0.00  0.00    +0.000 OA
ATOM     23  H   UNL     1       6.909   4.817  20.686  0.00  0.00    +0.000 HD
ENDBRANCH   3  22
TORSDOF 5
ENDMDL
MODEL 5
REMARK VINA RESULT:      -7.7      1.417      5.807
REMARK  Name = 
REMARK  7 active torsions:
REMARK  status: ('A' for Active; 'I' for Inactive)
REMARK    1  A    between atoms: C_1  and  C_2
REMARK    2  A    between atoms: C_5  and  C_6
REMARK    3  A    between atoms: C_7  and  C_8
REMARK    4  A    between atoms: C_8  and  O_9
REMARK    5  A    between atoms: O_9  and  C_10
REMARK    6  A    between atoms: C_10  and  C_12
REMARK    7  A    between atoms: C_14  and  O_15
REMARK                            x       y       z     vdW  Elec       q    Type
REMARK                         _______ _______ _______ _____ _____    ______ ____
ROOT
ATOM      1  C   UNL     1       5.018   3.866  16.590  0.00  0.00    +0.000 A 
ATOM      2  C   UNL     1       5.268   3.799  15.216  0.00  0.00    +0.000 A 
ATOM      3  C   UNL     1       6.372   4.463  14.738  0.00  0.00    +0.000 A 
ATOM      4  N   UNL     1       7.212   5.169  15.505  0.00  0.00    +0.000 NA
ATOM      5  C   UNL     1       6.971   5.246  16.822  0.00  0.00    +0.000 A 
ATOM      6  C   UNL     1       7.825   6.026  17.591  0.00  0.00    +0.000 A 
ATOM      7  C   UNL     1       7.646   6.188  18.966  0.00  0.00    +0.000 A 
ATOM      8  C   UNL     1       6.603   5.532  19.600  0.00  0.00    +0.000 A 
ATOM      9  C   UNL     1       5.734   4.740  18.851  0.00  0.00    +0.000 A 
ATOM     10  C   UNL     1       5.886   4.595  17.446  0.00  0.00    +0.000 A 
ENDROOT
BRANCH   1  11
ATOM     11  C   UNL     1       3.821   3.162  17.123  0.00  0.00    +0.000 C 
ATOM     12  O   UNL     1       3.851   2.100  17.722  0.00  0.00    +0.000 OA
BRANCH  11  13
ATOM     13  O   UNL     1       2.709   3.893  16.863  0.00  0.00    +0.000 OA
BRANCH  13  14
ATOM     14  C   UNL     1       1.625   3.737  17.793  0.00  0.00    +0.000 C 
BRANCH  14  21
ATOM     15  C   UNL     1       2.673   6.820  18.030  0.00  0.00    +0.000 C 
ATOM     16  C   UNL     1       2.327   5.878  19.121  0.00  0.00    +0.000 A 
ATOM     17  N   UNL     1       2.437   6.263  20.398  0.00  0.00    +0.000 NA
ATOM     18  O   UNL     1       2.050   5.176  21.156  0.00  0.00    +0.000 OA
ATOM     19  C   UNL     1       1.710   4.150  20.335  0.00  0.00    +0.000 A 
ATOM     20  C   UNL     1       1.278   2.902  20.992  0.00  0.00    +0.000 C 
ATOM     21  C   UNL     1       1.866   4.535  19.022  0.00  0.00    +0.000 A 
ENDBRANCH  14  21
ENDBRANCH  13  14
ENDBRANCH  11  13
ENDBRANCH   1  11
BRANCH   3  22
ATOM     22  O   UNL     1       6.686   4.457  13.412  0.00  0.00    +0.000 OA
ATOM     23  H   UNL     1       7.626   4.248  13.315  0.00  0.00    +0.000 HD
ENDBRANCH   3  22
TORSDOF 5
ENDMDL
MODEL 6
REMARK VINA RESULT:      -7.7      1.512      5.795
REMARK  Name = 
REMARK  7 active torsions:
REMARK  status: ('A' for Active; 'I' for Inactive)
REMARK    1  A    between atoms: C_1  and  C_2
REMARK    2  A    between atoms: C_5  and  C_6
REMARK    3  A    between atoms: C_7  and  C_8
REMARK    4  A    between atoms: C_8  and  O_9
REMARK    5  A    between atoms: O_9  and  C_10
REMARK    6  A    between atoms: C_10  and  C_12
REMARK    7  A    between atoms: C_14  and  O_15
REMARK                            x       y       z     vdW  Elec       q    Type
REMARK                         _______ _______ _______ _____ _____    ______ ____
ROOT
ATOM      1  C   UNL     1       4.962   3.768  16.620  0.00  0.00    +0.000 A 
ATOM      2  C   UNL     1       5.222   3.667  15.250  0.00  0.00    +0.000 A 
ATOM      3  C   UNL     1       6.340   4.301  14.766  0.00  0.00    +0.000 A 
ATOM      4  N   UNL     1       7.186   5.010  15.525  0.00  0.00    +0.000 NA
ATOM      5  C   UNL     1       6.937   5.119  16.838  0.00  0.00    +0.000 A 
ATOM      6  C   UNL     1       7.798   5.901  17.596  0.00  0.00    +0.000 A 
ATOM      7  C   UNL     1       7.612   6.097  18.966  0.00  0.00    +0.000 A 
ATOM      8  C   UNL     1       6.553   5.473  19.606  0.00  0.00    +0.000 A 
ATOM      9  C   UNL     1       5.677   4.680  18.867  0.00  0.00    +0.000 A 
ATOM     10  C   UNL     1       5.837   4.501  17.467  0.00  0.00    +0.000 A 
ENDROOT
BRANCH   1  11
ATOM     11  C   UNL     1       3.749   3.097  17.159  0.00  0.00    +0.000 C 
ATOM     12  O   UNL     1       3.760   2.065  17.810  0.00  0.00    +0.000 OA
BRANCH  11  13
ATOM     13  O   UNL     1       2.648   3.819  16.838  0.00  0.00    +0.000 OA
BRANCH  13  14
ATOM     14  C   UNL     1       1.564   3.760  17.780  0.00  0.00    +0.000 C 
BRANCH  14  21
ATOM     15  C   UNL     1       1.364   2.812  20.898  0.00  0.00    +0.000 C 
ATOM     16  C   UNL     1       1.792   4.126  20.359  0.00  0.00    +0.000 A 
ATOM     17  N   UNL     1       2.152   5.106  21.196  0.00  0.00    +0.000 NA
ATOM     18  O   UNL     1       2.486   6.181  20.397  0.00  0.00    +0.000 OA
ATOM     19  C   UNL     1       2.326   5.842  19.092  0.00  0.00    +0.000 A 
ATOM     20  C   UNL     1       2.636   6.890  18.102  0.00  0.00    +0.000 C 
ATOM     21  C   UNL     1       1.884   4.542  19.002  0.00  0.00    +0.000 A 
ENDBRANCH  14  21
ENDBRANCH  13  14
ENDBRANCH  11  13
ENDBRANCH   1  11
BRANCH   3  22
ATOM     22  O   UNL     1       6.664   4.261  13.444  0.00  0.00    +0.000 OA
ATOM     23  H   UNL     1       7.413   3.660  13.323  0.00  0.00    +0.000 HD
ENDBRANCH   3  22
TORSDOF 5
ENDMDL
MODEL 7
REMARK VINA RESULT:      -7.7      1.506      6.098
REMARK  Name = 
REMARK  7 active torsions:
REMARK  status: ('A' for Active; 'I' for Inactive)
REMARK    1  A    between atoms: C_1  and  C_2
REMARK    2  A    between atoms: C_5  and  C_6
REMARK    3  A    between atoms: C_7  and  C_8
REMARK    4  A    between atoms: C_8  and  O_9
REMARK    5  A    between atoms: O_9  and  C_10
REMARK    6  A    between atoms: C_10  and  C_12
REMARK    7  A    between atoms: C_14  and  O_15
REMARK                            x       y       z     vdW  Elec       q    Type
REMARK                         _______ _______ _______ _____ _____    ______ ____
ROOT
ATOM      1  C   UNL     1       5.318   4.328  16.736  0.00  0.00    +0.000 A 
ATOM      2  C   UNL     1       5.949   5.092  17.722  0.00  0.00    +0.000 A 
ATOM      3  C   UNL     1       7.043   5.835  17.349  0.00  0.00    +0.000 A 
ATOM      4  N   UNL     1       7.539   5.864  16.106  0.00  0.00    +0.000 NA
ATOM      5  C   UNL     1       6.945   5.125  15.157  0.00  0.00    +0.000 A 
ATOM      6  C   UNL     1       7.507   5.130  13.888  0.00  0.00    +0.000 A 
ATOM      7  C   UNL     1       6.978   4.377  12.838  0.00  0.00    +0.000 A 
ATOM      8  C   UNL     1       5.838   3.618  13.051  0.00  0.00    +0.000 A 
ATOM      9  C   UNL     1       5.253   3.599  14.316  0.00  0.00    +0.000 A 
ATOM     10  C   UNL     1       5.802   4.335  15.400  0.00  0.00    +0.000 A 
ENDROOT
BRANCH   1  11
ATOM     11  C   UNL     1       4.139   3.510  17.125  0.00  0.00    +0.000 C 
ATOM     12  O   UNL     1       4.201   2.425  17.681  0.00  0.00    +0.000 OA
BRANCH  11  13
ATOM     13  O   UNL     1       2.999   4.165  16.792  0.00  0.00    +0.000 OA
BRANCH  13  14
ATOM     14  C   UNL     1       1.872   3.937  17.653  0.00  0.00    +0.000 C 
BRANCH  14  21
ATOM     15  C   UNL     1       1.185   3.110  20.736  0.00  0.00    +0.000 C 
ATOM     16  C   UNL     1       1.657   4.415  20.215  0.00  0.00    +0.000 A 
ATOM     17  N   UNL     1       1.844   5.442  21.053  0.00  0.00    +0.000 NA
ATOM     18  O   UNL     1       2.274   6.495  20.271  0.00  0.00    +0.000 OA
ATOM     19  C   UNL     1       2.343   6.097  18.975  0.00  0.00    +0.000 A 
ATOM     20  C   UNL     1       2.782   7.114  18.001  0.00  0.00    +0.000 C 
ATOM     21  C   UNL     1       1.961   4.779  18.873  0.00  0.00    +0.000 A 
ENDBRANCH  14  21
ENDBRANCH  13  14
ENDBRANCH  11  13
ENDBRANCH   1  11
BRANCH   3  22
ATOM     22  O   UNL     1       7.722   6.601  18.248  0.00  0.00    +0.000 OA
ATOM     23  H   UNL     1       7.339   6.465  19.126  0.00  0.00    +0.000 HD
ENDBRANCH   3  22
TORSDOF 5
ENDMDL
MODEL 8
REMARK VINA RESULT:      -7.6      1.399      6.114
REMARK  Name = 
REMARK  7 active torsions:
REMARK  status: ('A' for Active; 'I' for Inactive)
REMARK    1  A    between atoms: C_1  and  C_2
REMARK    2  A    between atoms: C_5  and  C_6
REMARK    3  A    between atoms: C_7  and  C_8
REMARK    4  A    between atoms: C_8  and  O_9
REMARK    5  A    between atoms: O_9  and  C_10
REMARK    6  A    between atoms: C_10  and  C_12
REMARK    7  A    between atoms: C_14  and  O_15
REMARK                            x       y       z     vdW  Elec       q    Type
REMARK                         _______ _______ _______ _____ _____    ______ ____
ROOT
ATOM      1  C   UNL     1       5.317   4.361  16.729  0.00  0.00    +0.000 A 
ATOM      2  C   UNL     1       5.947   5.134  17.709  0.00  0.00    +0.000 A 
ATOM      3  C   UNL     1       7.041   5.873  17.329  0.00  0.00    +0.000 A 
ATOM      4  N   UNL     1       7.538   5.890  16.086  0.00  0.00    +0.000 NA
ATOM      5  C   UNL     1       6.945   5.141  15.144  0.00  0.00    +0.000 A 
ATOM      6  C   UNL     1       7.508   5.133  13.875  0.00  0.00    +0.000 A 
ATOM      7  C   UNL     1       6.980   4.369  12.833  0.00  0.00    +0.000 A 
ATOM      8  C   UNL     1       5.840   3.613  13.052  0.00  0.00    +0.000 A 
ATOM      9  C   UNL     1       5.254   3.607  14.317  0.00  0.00    +0.000 A 
ATOM     10  C   UNL     1       5.802   4.354  15.394  0.00  0.00    +0.000 A 
ENDROOT
BRANCH   1  11
ATOM     11  C   UNL     1       4.137   3.546  17.126  0.00  0.00    +0.000 C 
ATOM     12  O   UNL     1       4.199   2.441  17.639  0.00  0.00    +0.000 OA
BRANCH  11  13
ATOM     13  O   UNL     1       2.999   4.230  16.854  0.00  0.00    +0.000 OA
BRANCH  13  14
ATOM     14  C   UNL     1       1.876   3.941  17.703  0.00  0.00    +0.000 C 
BRANCH  14  21
ATOM     15  C   UNL     1       2.709   7.079  18.038  0.00  0.00    +0.000 C 
ATOM     16  C   UNL     1       2.300   6.117  19.089  0.00  0.00    +0.000 A 
ATOM     17  N   UNL     1       2.246   6.506  20.368  0.00  0.00    +0.000 NA
ATOM     18  O   UNL     1       1.843   5.397  21.084  0.00  0.00    +0.000 OA
ATOM     19  C   UNL     1       1.656   4.354  20.236  0.00  0.00    +0.000 A 
ATOM     20  C   UNL     1       1.228   3.082  20.848  0.00  0.00    +0.000 C 
ATOM     21  C   UNL     1       1.933   4.750  18.947  0.00  0.00    +0.000 A 
ENDBRANCH  14  21
ENDBRANCH  13  14
ENDBRANCH  11  13
ENDBRANCH   1  11
BRANCH   3  22
ATOM     22  O   UNL     1       7.719   6.648  18.220  0.00  0.00    +0.000 OA
ATOM     23  H   UNL     1       7.784   6.173  19.061  0.00  0.00    +0.000 HD
ENDBRANCH   3  22
TORSDOF 5
ENDMDL
MODEL 9
REMARK VINA RESULT:      -7.6      2.044      3.603
REMARK  Name = 
REMARK  7 active torsions:
REMARK  status: ('A' for Active; 'I' for Inactive)
REMARK    1  A    between atoms: C_1  and  C_2
REMARK    2  A    between atoms: C_5  and  C_6
REMARK    3  A    between atoms: C_7  and  C_8
REMARK    4  A    between atoms: C_8  and  O_9
REMARK    5  A    between atoms: O_9  and  C_10
REMARK    6  A    between atoms: C_10  and  C_12
REMARK    7  A    between atoms: C_14  and  O_15
REMARK                            x       y       z     vdW  Elec       q    Type
REMARK                         _______ _______ _______ _____ _____    ______ ____
ROOT
ATOM      1  C   UNL     1       2.627   6.724  18.648  0.00  0.00    +0.000 A 
ATOM      2  C   UNL     1       2.395   7.645  19.674  0.00  0.00    +0.000 A 
ATOM      3  C   UNL     1       1.746   7.195  20.798  0.00  0.00    +0.000 A 
ATOM      4  N   UNL     1       1.320   5.936  20.963  0.00  0.00    +0.000 NA
ATOM      5  C   UNL     1       1.530   5.050  19.979  0.00  0.00    +0.000 A 
ATOM      6  C   UNL     1       1.034   3.764  20.149  0.00  0.00    +0.000 A 
ATOM      7  C   UNL     1       1.180   2.777  19.174  0.00  0.00    +0.000 A 
ATOM      8  C   UNL     1       1.864   3.068  18.005  0.00  0.00    +0.000 A 
ATOM      9  C   UNL     1       2.374   4.352  17.811  0.00  0.00    +0.000 A 
ATOM     10  C   UNL     1       2.203   5.374  18.782  0.00  0.00    +0.000 A 
ENDROOT
BRANCH   1  11
ATOM     11  C   UNL     1       3.319   7.196  17.420  0.00  0.00    +0.000 C 
ATOM     12  O   UNL     1       3.055   8.232  16.831  0.00  0.00    +0.000 OA
BRANCH  11  13
ATOM     13  O   UNL     1       4.295   6.319  17.080  0.00  0.00    +0.000 OA
BRANCH  13  14
ATOM     14  C   UNL     1       5.635   6.838  17.089  0.00  0.00    +0.000 C 
BRANCH  14  21
ATOM     15  C   UNL     1       7.519   5.754  19.525  0.00  0.00    +0.000 C 
ATOM     16  C   UNL     1       7.450   5.268  18.126  0.00  0.00    +0.000 A 
ATOM     17  N   UNL     1       8.236   4.260  17.729  0.00  0.00    +0.000 NA
ATOM     18  O   UNL     1       7.940   4.052  16.396  0.00  0.00    +0.000 OA
ATOM     19  C   UNL     1       6.983   4.930  16.003  0.00  0.00    +0.000 A 
ATOM     20  C   UNL     1       6.557   4.845  14.594  0.00  0.00    +0.000 C 
ATOM     21  C   UNL     1       6.628   5.734  17.063  0.00  0.00    +0.000 A 
ENDBRANCH  14  21
ENDBRANCH  13  14
ENDBRANCH  11  13
ENDBRANCH   1  11
BRANCH   3  22
ATOM     22  O   UNL     1       1.472   8.026  21.841  0.00  0.00    +0.000 OA
ATOM     23  H   UNL     1       0.630   8.474  21.672  0.00  0.00    +0.000 HD
ENDBRANCH   3  22
TORSDOF 5
ENDMDL
