MODEL 1
REMARK VINA RESULT:      -8.9      0.000      0.000
REMARK  Name = 
REMARK  5 active torsions:
REMARK  status: ('A' for Active; 'I' for Inactive)
REMARK    1  A    between atoms: C_1  and  C_2
REMARK    2  A    between atoms: C_2  and  C_3
REMARK    3  A    between atoms: C_9  and  C_11
REMARK    4  A    between atoms: N_19  and  C_20
REMARK    5  A    between atoms: C_20  and  C_21
REMARK                            x       y       z     vdW  Elec       q    Type
REMARK                         _______ _______ _______ _____ _____    ______ ____
ROOT
ATOM      1  C   UNL     1       3.712   2.465  17.758  0.00  0.00    +0.000 C 
ATOM      2  C   UNL     1       4.156   2.849  19.180  0.00  0.00    +0.000 C 
ATOM      3  C   UNL     1       4.668   1.637  19.963  0.00  0.00    +0.000 C 
ATOM      4  C   UNL     1       3.025   3.474  19.875  0.00  0.00    +0.000 A 
ATOM      5  N   UNL     1       1.822   3.098  20.359  0.00  0.00    +0.000 N 
ATOM      6  N   UNL     1       1.187   4.143  20.944  0.00  0.00    +0.000 NA
ATOM      7  C   UNL     1       1.965   5.204  20.661  0.00  0.00    +0.000 A 
ATOM      8  N   UNL     1       1.505   6.452  20.979  0.00  0.00    +0.000 N 
ATOM      9  C   UNL     1       1.728   7.558  20.191  0.00  0.00    +0.000 C 
ATOM     10  O   UNL     1       2.376   7.562  19.148  0.00  0.00    +0.000 OA
ATOM     11  C   UNL     1       3.166   4.798  20.082  0.00  0.00    +0.000 A 
ATOM     12  C   UNL     1       4.479   5.267  19.619  0.00  0.00    +0.000 C 
ATOM     13  N   UNL     1       5.176   3.961  19.274  0.00  0.00    +0.000 NA
ATOM     14  H   UNL     1       1.363   2.196  20.337  0.00  0.00    +0.000 HD
ATOM     15  H   UNL     1       0.729   6.414  21.616  0.00  0.00    +0.000 HD
ENDROOT
BRANCH   9  16
ATOM     16  C   UNL     1       1.110   8.835  20.666  0.00  0.00    +0.000 A 
ATOM     17  C   UNL     1       0.734   8.913  22.014  0.00  0.00    +0.000 A 
ATOM     18  C   UNL     1       0.045  10.030  22.490  0.00  0.00    +0.000 A 
ATOM     19  C   UNL     1      -0.266  11.077  21.627  0.00  0.00    +0.000 A 
ATOM     20  C   UNL     1       0.149  11.032  20.293  0.00  0.00    +0.000 A 
ATOM     21  C   UNL     1       0.842   9.921  19.820  0.00  0.00    +0.000 A 
ENDBRANCH   9  16
BRANCH  13  22
ATOM     22  C   UNL     1       6.071   4.098  18.122  0.00  0.00    +0.000 C 
BRANCH  22  23
ATOM     23  C   UNL     1       6.541   5.517  17.896  0.00  0.00    +0.000 A 
ATOM     24  C   UNL     1       5.941   6.332  16.922  0.00  0.00    +0.000 A 
ATOM     25  C   UNL     1       6.400   7.636  16.700  0.00  0.00    +0.000 A 
ATOM     26  C   UNL     1       7.463   8.138  17.450  0.00  0.00    +0.000 A 
ATOM     27  C   UNL     1       8.044   7.343  18.431  0.00  0.00    +0.000 A 
ATOM     28  F   UNL     1       9.057   7.835  19.159  0.00  0.00    +0.000 F 
ATOM     29  C   UNL     1       7.585   6.049  18.659  0.00  0.00    +0.000 A 
ATOM     30  F   UNL     1       8.153   5.311  19.624  0.00  0.00    +0.000 F 
ENDBRANCH  22  23
ENDBRANCH  13  22
TORSDOF 3
ENDMDL
MODEL 2
REMARK VINA RESULT:      -8.7      1.216      1.531
REMARK  Name = 
REMARK  5 active torsions:
REMARK  status: ('A' for Active; 'I' for Inactive)
REMARK    1  A    between atoms: C_1  and  C_2
REMARK    2  A    between atoms: C_2  and  C_3
REMARK    3  A    between atoms: C_9  and  C_11
REMARK    4  A    between atoms: N_19  and  C_20
REMARK    5  A    between atoms: C_20  and  C_21
REMARK                            x       y       z     vdW  Elec       q    Type
REMARK                         _______ _______ _______ _____ _____    ______ ____
ROOT
ATOM      1  C   UNL     1       3.190   3.019  17.107  0.00  0.00    +0.000 C 
ATOM      2  C   UNL     1       3.654   3.146  18.569  0.00  0.00    +0.000 C 
ATOM      3  C   UNL     1       4.118   1.802  19.137  0.00  0.00    +0.000 C 
ATOM      4  C   UNL     1       2.551   3.693  19.369  0.00  0.00    +0.000 A 
ATOM      5  N   UNL     1       1.335   3.289  19.796  0.00  0.00    +0.000 N 
ATOM      6  N   UNL     1       0.746   4.248  20.551  0.00  0.00    +0.000 NA
ATOM      7  C   UNL     1       1.565   5.310  20.439  0.00  0.00    +0.000 A 
ATOM      8  N   UNL     1       1.157   6.506  20.962  0.00  0.00    +0.000 N 
ATOM      9  C   UNL     1       1.423   7.716  20.365  0.00  0.00    +0.000 C 
ATOM     10  O   UNL     1       2.066   7.867  19.329  0.00  0.00    +0.000 OA
ATOM     11  C   UNL     1       2.746   4.958  19.789  0.00  0.00    +0.000 A 
ATOM     12  C   UNL     1       4.077   5.443  19.396  0.00  0.00    +0.000 C 
ATOM     13  N   UNL     1       4.718   4.186  18.835  0.00  0.00    +0.000 NA
ATOM     14  H   UNL     1       0.840   2.422  19.631  0.00  0.00    +0.000 HD
ATOM     15  H   UNL     1       0.383   6.394  21.592  0.00  0.00    +0.000 HD
ENDROOT
BRANCH   9  16
ATOM     16  C   UNL     1       0.859   8.922  21.048  0.00  0.00    +0.000 A 
ATOM     17  C   UNL     1       0.464   8.784  22.387  0.00  0.00    +0.000 A 
ATOM     18  C   UNL     1      -0.178   9.835  23.044  0.00  0.00    +0.000 A 
ATOM     19  C   UNL     1      -0.424  11.030  22.373  0.00  0.00    +0.000 A 
ATOM     20  C   UNL     1       0.010  11.195  21.056  0.00  0.00    +0.000 A 
ATOM     21  C   UNL     1       0.657  10.149  20.403  0.00  0.00    +0.000 A 
ENDBRANCH   9  16
BRANCH  13  22
ATOM     22  C   UNL     1       5.614   4.475  17.712  0.00  0.00    +0.000 C 
BRANCH  22  23
ATOM     23  C   UNL     1       6.584   5.598  17.996  0.00  0.00    +0.000 A 
ATOM     24  C   UNL     1       7.603   5.453  18.952  0.00  0.00    +0.000 A 
ATOM     25  C   UNL     1       8.481   6.507  19.228  0.00  0.00    +0.000 A 
ATOM     26  C   UNL     1       8.351   7.719  18.551  0.00  0.00    +0.000 A 
ATOM     27  C   UNL     1       7.359   7.860  17.587  0.00  0.00    +0.000 A 
ATOM     28  F   UNL     1       7.245   9.022  16.928  0.00  0.00    +0.000 F 
ATOM     29  C   UNL     1       6.489   6.810  17.304  0.00  0.00    +0.000 A 
ATOM     30  F   UNL     1       5.554   6.969  16.357  0.00  0.00    +0.000 F 
ENDBRANCH  22  23
ENDBRANCH  13  22
TORSDOF 3
ENDMDL
MODEL 3
REMARK VINA RESULT:      -8.6      4.599      9.225
REMARK  Name = 
REMARK  5 active torsions:
REMARK  status: ('A' for Active; 'I' for Inactive)
REMARK    1  A    between atoms: C_1  and  C_2
REMARK    2  A    between atoms: C_2  and  C_3
REMARK    3  A    between atoms: C_9  and  C_11
REMARK    4  A    between atoms: N_19  and  C_20
REMARK    5  A    between atoms: C_20  and  C_21
REMARK                            x       y       z     vdW  Elec       q    Type
REMARK                         _______ _______ _______ _____ _____    ______ ____
ROOT
ATOM      1  C   UNL     1       0.404  12.701  21.241  0.00  0.00    +0.000 C 
ATOM      2  C   UNL     1      -0.465  11.439  21.386  0.00  0.00    +0.000 C 
ATOM      3  C   UNL     1      -1.469  11.570  22.535  0.00  0.00    +0.000 C 
ATOM      4  C   UNL     1       0.413  10.282  21.596  0.00  0.00    +0.000 A 
ATOM      5  N   UNL     1       1.238   9.819  22.561  0.00  0.00    +0.000 N 
ATOM      6  N   UNL     1       1.795   8.639  22.195  0.00  0.00    +0.000 NA
ATOM      7  C   UNL     1       1.414   8.475  20.914  0.00  0.00    +0.000 A 
ATOM      8  N   UNL     1       1.958   7.442  20.200  0.00  0.00    +0.000 N 
ATOM      9  C   UNL     1       2.280   7.540  18.867  0.00  0.00    +0.000 C 
ATOM     10  O   UNL     1       2.097   8.532  18.166  0.00  0.00    +0.000 OA
ATOM     11  C   UNL     1       0.473   9.436  20.550  0.00  0.00    +0.000 A 
ATOM     12  C   UNL     1      -0.441   9.857  19.479  0.00  0.00    +0.000 C 
ATOM     13  N   UNL     1      -1.197  10.996  20.140  0.00  0.00    +0.000 NA
ATOM     14  H   UNL     1       1.479  10.217  23.459  0.00  0.00    +0.000 HD
ATOM     15  H   UNL     1       2.405   6.769  20.797  0.00  0.00    +0.000 HD
ENDROOT
BRANCH   9  16
ATOM     16  C   UNL     1       2.911   6.329  18.255  0.00  0.00    +0.000 A 
ATOM     17  C   UNL     1       4.154   6.491  17.628  0.00  0.00    +0.000 A 
ATOM     18  C   UNL     1       4.739   5.428  16.936  0.00  0.00    +0.000 A 
ATOM     19  C   UNL     1       4.090   4.198  16.871  0.00  0.00    +0.000 A 
ATOM     20  C   UNL     1       2.875   4.011  17.535  0.00  0.00    +0.000 A 
ATOM     21  C   UNL     1       2.296   5.069  18.231  0.00  0.00    +0.000 A 
ENDBRANCH   9  16
BRANCH  13  22
ATOM     22  C   UNL     1      -1.535  12.062  19.193  0.00  0.00    +0.000 C 
BRANCH  22  23
ATOM     23  C   UNL     1      -2.904  11.898  18.574  0.00  0.00    +0.000 A 
ATOM     24  C   UNL     1      -4.065  12.280  19.267  0.00  0.00    +0.000 A 
ATOM     25  C   UNL     1      -5.330  12.100  18.697  0.00  0.00    +0.000 A 
ATOM     26  C   UNL     1      -5.450  11.536  17.427  0.00  0.00    +0.000 A 
ATOM     27  C   UNL     1      -4.303  11.178  16.728  0.00  0.00    +0.000 A 
ATOM     28  F   UNL     1      -4.421  10.648  15.501  0.00  0.00    +0.000 F 
ATOM     29  C   UNL     1      -3.042  11.363  17.289  0.00  0.00    +0.000 A 
ATOM     30  F   UNL     1      -1.953  11.025  16.584  0.00  0.00    +0.000 F 
ENDBRANCH  22  23
ENDBRANCH  13  22
TORSDOF 3
ENDMDL
MODEL 4
REMARK VINA RESULT:      -8.5      4.959      9.175
REMARK  Name = 
REMARK  5 active torsions:
REMARK  status: ('A' for Active; 'I' for Inactive)
REMARK    1  A    between atoms: C_1  and  C_2
REMARK    2  A    between atoms: C_2  and  C_3
REMARK    3  A    between atoms: C_9  and  C_11
REMARK    4  A    between atoms: N_19  and  C_20
REMARK    5  A    between atoms: C_20  and  C_21
REMARK                            x       y       z     vdW  Elec       q    Type
REMARK                         _______ _______ _______ _____ _____    ______ ____
ROOT
ATOM      1  C   UNL     1       0.279  12.733  21.399  0.00  0.00    +0.000 C 
ATOM      2  C   UNL     1      -0.561  11.447  21.487  0.00  0.00    +0.000 C 
ATOM      3  C   UNL     1      -1.566  11.502  22.641  0.00  0.00    +0.000 C 
ATOM      4  C   UNL     1       0.342  10.301  21.642  0.00  0.00    +0.000 A 
ATOM      5  N   UNL     1       1.178   9.812  22.584  0.00  0.00    +0.000 N 
ATOM      6  N   UNL     1       1.760   8.663  22.164  0.00  0.00    +0.000 NA
ATOM      7  C   UNL     1       1.381   8.550  20.877  0.00  0.00    +0.000 A 
ATOM      8  N   UNL     1       1.946   7.563  20.116  0.00  0.00    +0.000 N 
ATOM      9  C   UNL     1       2.263   7.729  18.788  0.00  0.00    +0.000 C 
ATOM     10  O   UNL     1       2.058   8.748  18.134  0.00  0.00    +0.000 OA
ATOM     11  C   UNL     1       0.418   9.505  20.558  0.00  0.00    +0.000 A 
ATOM     12  C   UNL     1      -0.506   9.955  19.508  0.00  0.00    +0.000 C 
ATOM     13  N   UNL     1      -1.286  11.046  20.222  0.00  0.00    +0.000 NA
ATOM     14  H   UNL     1       1.413  10.174  23.500  0.00  0.00    +0.000 HD
ATOM     15  H   UNL     1       2.409   6.873  20.681  0.00  0.00    +0.000 HD
ENDROOT
BRANCH   9  16
ATOM     16  C   UNL     1       2.920   6.561  18.121  0.00  0.00    +0.000 A 
ATOM     17  C   UNL     1       2.272   5.320  18.200  0.00  0.00    +0.000 A 
ATOM     18  C   UNL     1       2.889   4.170  17.703  0.00  0.00    +0.000 A 
ATOM     19  C   UNL     1       4.150   4.253  17.120  0.00  0.00    +0.000 A 
ATOM     20  C   UNL     1       4.783   5.492  16.991  0.00  0.00    +0.000 A 
ATOM     21  C   UNL     1       4.164   6.640  17.480  0.00  0.00    +0.000 A 
ENDBRANCH   9  16
BRANCH  13  22
ATOM     22  C   UNL     1      -1.649  12.146  19.326  0.00  0.00    +0.000 C 
BRANCH  22  23
ATOM     23  C   UNL     1      -2.560  11.720  18.196  0.00  0.00    +0.000 A 
ATOM     24  C   UNL     1      -2.040  11.363  16.941  0.00  0.00    +0.000 A 
ATOM     25  C   UNL     1      -2.892  10.996  15.893  0.00  0.00    +0.000 A 
ATOM     26  C   UNL     1      -4.272  10.982  16.088  0.00  0.00    +0.000 A 
ATOM     27  C   UNL     1      -4.790  11.312  17.335  0.00  0.00    +0.000 A 
ATOM     28  F   UNL     1      -6.118  11.284  17.523  0.00  0.00    +0.000 F 
ATOM     29  C   UNL     1      -3.945  11.670  18.382  0.00  0.00    +0.000 A 
ATOM     30  F   UNL     1      -4.471  11.966  19.579  0.00  0.00    +0.000 F 
ENDBRANCH  22  23
ENDBRANCH  13  22
TORSDOF 3
ENDMDL
MODEL 5
REMARK VINA RESULT:      -8.4      3.456      7.461
REMARK  Name = 
REMARK  5 active torsions:
REMARK  status: ('A' for Active; 'I' for Inactive)
REMARK    1  A    between atoms: C_1  and  C_2
REMARK    2  A    between atoms: C_2  and  C_3
REMARK    3  A    between atoms: C_9  and  C_11
REMARK    4  A    between atoms: N_19  and  C_20
REMARK    5  A    between atoms: C_20  and  C_21
REMARK                            x       y       z     vdW  Elec       q    Type
REMARK                         _______ _______ _______ _____ _____    ______ ____
ROOT
ATOM      1  C   UNL     1       2.963   4.265  21.269  0.00  0.00    +0.000 C 
ATOM      2  C   UNL     1       2.052   4.490  20.049  0.00  0.00    +0.000 C 
ATOM      3  C   UNL     1       0.587   4.182  20.370  0.00  0.00    +0.000 C 
ATOM      4  C   UNL     1       2.527   3.650  18.943  0.00  0.00    +0.000 A 
ATOM      5  N   UNL     1       2.589   2.334  18.647  0.00  0.00    +0.000 N 
ATOM      6  N   UNL     1       3.136   2.139  17.422  0.00  0.00    +0.000 NA
ATOM      7  C   UNL     1       3.554   3.362  17.047  0.00  0.00    +0.000 A 
ATOM      8  N   UNL     1       4.306   3.473  15.910  0.00  0.00    +0.000 N 
ATOM      9  C   UNL     1       5.350   4.360  15.783  0.00  0.00    +0.000 C 
ATOM     10  O   UNL     1       5.705   5.160  16.645  0.00  0.00    +0.000 OA
ATOM     11  C   UNL     1       3.098   4.335  17.934  0.00  0.00    +0.000 A 
ATOM     12  C   UNL     1       3.022   5.784  18.171  0.00  0.00    +0.000 C 
ATOM     13  N   UNL     1       2.139   5.854  19.405  0.00  0.00    +0.000 NA
ATOM     14  H   UNL     1       2.303   1.529  19.190  0.00  0.00    +0.000 HD
ATOM     15  H   UNL     1       4.256   2.643  15.345  0.00  0.00    +0.000 HD
ENDROOT
BRANCH   9  16
ATOM     16  C   UNL     1       6.095   4.314  14.487  0.00  0.00    +0.000 A 
ATOM     17  C   UNL     1       7.215   5.147  14.351  0.00  0.00    +0.000 A 
ATOM     18  C   UNL     1       7.881   5.239  13.128  0.00  0.00    +0.000 A 
ATOM     19  C   UNL     1       7.440   4.496  12.036  0.00  0.00    +0.000 A 
ATOM     20  C   UNL     1       6.357   3.624  12.175  0.00  0.00    +0.000 A 
ATOM     21  C   UNL     1       5.696   3.528  13.397  0.00  0.00    +0.000 A 
ENDBRANCH   9  16
BRANCH  13  22
ATOM     22  C   UNL     1       2.519   6.952  20.298  0.00  0.00    +0.000 C 
BRANCH  22  23
ATOM     23  C   UNL     1       1.506   8.074  20.330  0.00  0.00    +0.000 A 
ATOM     24  C   UNL     1       0.629   8.228  21.417  0.00  0.00    +0.000 A 
ATOM     25  C   UNL     1      -0.323   9.253  21.427  0.00  0.00    +0.000 A 
ATOM     26  C   UNL     1      -0.410  10.136  20.351  0.00  0.00    +0.000 A 
ATOM     27  C   UNL     1       0.470  10.001  19.284  0.00  0.00    +0.000 A 
ATOM     28  F   UNL     1       0.392  10.860  18.257  0.00  0.00    +0.000 F 
ATOM     29  C   UNL     1       1.424   8.987  19.274  0.00  0.00    +0.000 A 
ATOM     30  F   UNL     1       2.272   8.892  18.240  0.00  0.00    +0.000 F 
ENDBRANCH  22  23
ENDBRANCH  13  22
TORSDOF 3
ENDMDL
MODEL 6
REMARK VINA RESULT:      -8.2      5.112      9.532
REMARK  Name = 
REMARK  5 active torsions:
REMARK  status: ('A' for Active; 'I' for Inactive)
REMARK    1  A    between atoms: C_1  and  C_2
REMARK    2  A    between atoms: C_2  and  C_3
REMARK    3  A    between atoms: C_9  and  C_11
REMARK    4  A    between atoms: N_19  and  C_20
REMARK    5  A    between atoms: C_20  and  C_21
REMARK                            x       y       z     vdW  Elec       q    Type
REMARK                         _______ _______ _______ _____ _____    ______ ____
ROOT
ATOM      1  C   UNL     1       0.148  12.760  21.410  0.00  0.00    +0.000 C 
ATOM      2  C   UNL     1      -0.670  11.459  21.493  0.00  0.00    +0.000 C 
ATOM      3  C   UNL     1      -1.699  11.506  22.626  0.00  0.00    +0.000 C 
ATOM      4  C   UNL     1       0.252  10.332  21.679  0.00  0.00    +0.000 A 
ATOM      5  N   UNL     1       1.078   9.869  22.643  0.00  0.00    +0.000 N 
ATOM      6  N   UNL     1       1.690   8.726  22.246  0.00  0.00    +0.000 NA
ATOM      7  C   UNL     1       1.340   8.594  20.953  0.00  0.00    +0.000 A 
ATOM      8  N   UNL     1       1.939   7.611  20.214  0.00  0.00    +0.000 N 
ATOM      9  C   UNL     1       2.281   7.770  18.891  0.00  0.00    +0.000 C 
ATOM     10  O   UNL     1       2.070   8.779  18.223  0.00  0.00    +0.000 OA
ATOM     11  C   UNL     1       0.366   9.527  20.605  0.00  0.00    +0.000 A 
ATOM     12  C   UNL     1      -0.544   9.950  19.532  0.00  0.00    +0.000 C 
ATOM     13  N   UNL     1      -1.360  11.031  20.219  0.00  0.00    +0.000 NA
ATOM     14  H   UNL     1       1.286  10.243  23.560  0.00  0.00    +0.000 HD
ATOM     15  H   UNL     1       2.404   6.936  20.795  0.00  0.00    +0.000 HD
ENDROOT
BRANCH   9  16
ATOM     16  C   UNL     1       2.974   6.609  18.250  0.00  0.00    +0.000 A 
ATOM     17  C   UNL     1       4.133   6.874  17.506  0.00  0.00    +0.000 A 
ATOM     18  C   UNL     1       4.756   5.854  16.785  0.00  0.00    +0.000 A 
ATOM     19  C   UNL     1       4.232   4.564  16.807  0.00  0.00    +0.000 A 
ATOM     20  C   UNL     1       3.107   4.279  17.585  0.00  0.00    +0.000 A 
ATOM     21  C   UNL     1       2.490   5.295  18.310  0.00  0.00    +0.000 A 
ENDBRANCH   9  16
BRANCH  13  22
ATOM     22  C   UNL     1      -1.725  12.116  19.304  0.00  0.00    +0.000 C 
BRANCH  22  23
ATOM     23  C   UNL     1      -3.088  11.933  18.674  0.00  0.00    +0.000 A 
ATOM     24  C   UNL     1      -3.221  11.443  17.364  0.00  0.00    +0.000 A 
ATOM     25  C   UNL     1      -4.484  11.302  16.779  0.00  0.00    +0.000 A 
ATOM     26  C   UNL     1      -5.628  11.648  17.497  0.00  0.00    +0.000 A 
ATOM     27  C   UNL     1      -5.503  12.111  18.802  0.00  0.00    +0.000 A 
ATOM     28  F   UNL     1      -6.606  12.430  19.494  0.00  0.00    +0.000 F 
ATOM     29  C   UNL     1      -4.248  12.245  19.389  0.00  0.00    +0.000 A 
ATOM     30  F   UNL     1      -4.158  12.677  20.656  0.00  0.00    +0.000 F 
ENDBRANCH  22  23
ENDBRANCH  13  22
TORSDOF 3
ENDMDL
MODEL 7
REMARK VINA RESULT:      -8.2      3.645      7.318
REMARK  Name = 
REMARK  5 active torsions:
REMARK  status: ('A' for Active; 'I' for Inactive)
REMARK    1  A    between atoms: C_1  and  C_2
REMARK    2  A    between atoms: C_2  and  C_3
REMARK    3  A    between atoms: C_9  and  C_11
REMARK    4  A    between atoms: N_19  and  C_20
REMARK    5  A    between atoms: C_20  and  C_21
REMARK                            x       y       z     vdW  Elec       q    Type
REMARK                         _______ _______ _______ _____ _____    ______ ____
ROOT
ATOM      1  C   UNL     1       2.966   4.068  21.322  0.00  0.00    +0.000 C 
ATOM      2  C   UNL     1       2.044   4.180  20.095  0.00  0.00    +0.000 C 
ATOM      3  C   UNL     1       0.613   3.740  20.418  0.00  0.00    +0.000 C 
ATOM      4  C   UNL     1       2.602   3.368  19.008  0.00  0.00    +0.000 A 
ATOM      5  N   UNL     1       2.792   2.058  18.740  0.00  0.00    +0.000 N 
ATOM      6  N   UNL     1       3.361   1.891  17.520  0.00  0.00    +0.000 NA
ATOM      7  C   UNL     1       3.662   3.141  17.122  0.00  0.00    +0.000 A 
ATOM      8  N   UNL     1       4.405   3.300  15.984  0.00  0.00    +0.000 N 
ATOM      9  C   UNL     1       5.359   4.281  15.843  0.00  0.00    +0.000 C 
ATOM     10  O   UNL     1       5.632   5.128  16.689  0.00  0.00    +0.000 OA
ATOM     11  C   UNL     1       3.110   4.084  17.987  0.00  0.00    +0.000 A 
ATOM     12  C   UNL     1       2.895   5.523  18.194  0.00  0.00    +0.000 C 
ATOM     13  N   UNL     1       2.002   5.533  19.423  0.00  0.00    +0.000 NA
ATOM     14  H   UNL     1       2.581   1.240  19.298  0.00  0.00    +0.000 HD
ATOM     15  H   UNL     1       4.437   2.458  15.437  0.00  0.00    +0.000 HD
ENDROOT
BRANCH   9  16
ATOM     16  C   UNL     1       6.112   4.280  14.550  0.00  0.00    +0.000 A 
ATOM     17  C   UNL     1       7.227   5.124  14.447  0.00  0.00    +0.000 A 
ATOM     18  C   UNL     1       7.900   5.258  13.231  0.00  0.00    +0.000 A 
ATOM     19  C   UNL     1       7.469   4.548  12.114  0.00  0.00    +0.000 A 
ATOM     20  C   UNL     1       6.390   3.666  12.219  0.00  0.00    +0.000 A 
ATOM     21  C   UNL     1       5.724   3.526  13.433  0.00  0.00    +0.000 A 
ENDBRANCH   9  16
BRANCH  13  22
ATOM     22  C   UNL     1       2.271   6.680  20.294  0.00  0.00    +0.000 C 
BRANCH  22  23
ATOM     23  C   UNL     1       1.732   7.983  19.750  0.00  0.00    +0.000 A 
ATOM     24  C   UNL     1       1.998   8.383  18.430  0.00  0.00    +0.000 A 
ATOM     25  C   UNL     1       1.517   9.603  17.942  0.00  0.00    +0.000 A 
ATOM     26  C   UNL     1       0.764  10.437  18.768  0.00  0.00    +0.000 A 
ATOM     27  C   UNL     1       0.479  10.035  20.068  0.00  0.00    +0.000 A 
ATOM     28  F   UNL     1      -0.257  10.834  20.855  0.00  0.00    +0.000 F 
ATOM     29  C   UNL     1       0.949   8.818  20.553  0.00  0.00    +0.000 A 
ATOM     30  F   UNL     1       0.642   8.448  21.805  0.00  0.00    +0.000 F 
ENDBRANCH  22  23
ENDBRANCH  13  22
TORSDOF 3
ENDMDL
MODEL 8
REMARK VINA RESULT:      -8.2      2.339      3.292
REMARK  Name = 
REMARK  5 active torsions:
REMARK  status: ('A' for Active; 'I' for Inactive)
REMARK    1  A    between atoms: C_1  and  C_2
REMARK    2  A    between atoms: C_2  and  C_3
REMARK    3  A    between atoms: C_9  and  C_11
REMARK    4  A    between atoms: N_19  and  C_20
REMARK    5  A    between atoms: C_20  and  C_21
REMARK                            x       y       z     vdW  Elec       q    Type
REMARK                         _______ _______ _______ _____ _____    ______ ____
ROOT
ATOM      1  C   UNL     1       1.221   3.951  18.876  0.00  0.00    +0.000 C 
ATOM      2  C   UNL     1       2.428   4.697  19.470  0.00  0.00    +0.000 C 
ATOM      3  C   UNL     1       3.202   3.826  20.464  0.00  0.00    +0.000 C 
ATOM      4  C   UNL     1       1.952   5.925  20.119  0.00  0.00    +0.000 A 
ATOM      5  N   UNL     1       1.220   6.258  21.204  0.00  0.00    +0.000 N 
ATOM      6  N   UNL     1       1.118   7.605  21.322  0.00  0.00    +0.000 NA
ATOM      7  C   UNL     1       1.671   8.080  20.191  0.00  0.00    +0.000 A 
ATOM      8  N   UNL     1       1.573   9.420  19.932  0.00  0.00    +0.000 N 
ATOM      9  C   UNL     1       1.387   9.928  18.667  0.00  0.00    +0.000 C 
ATOM     10  O   UNL     1       1.317   9.258  17.640  0.00  0.00    +0.000 OA
ATOM     11  C   UNL     1       2.286   7.058  19.472  0.00  0.00    +0.000 A 
ATOM     12  C   UNL     1       3.128   6.768  18.303  0.00  0.00    +0.000 C 
ATOM     13  N   UNL     1       3.398   5.283  18.470  0.00  0.00    +0.000 NA
ATOM     14  H   UNL     1       0.764   5.670  21.890  0.00  0.00    +0.000 HD
ATOM     15  H   UNL     1       1.303   9.941  20.747  0.00  0.00    +0.000 HD
ENDROOT
BRANCH   9  16
ATOM     16  C   UNL     1       1.253  11.415  18.572  0.00  0.00    +0.000 A 
ATOM     17  C   UNL     1       2.401  12.151  18.247  0.00  0.00    +0.000 A 
ATOM     18  C   UNL     1       2.371  13.547  18.259  0.00  0.00    +0.000 A 
ATOM     19  C   UNL     1       1.195  14.215  18.589  0.00  0.00    +0.000 A 
ATOM     20  C   UNL     1       0.032  13.492  18.865  0.00  0.00    +0.000 A 
ATOM     21  C   UNL     1       0.061  12.100  18.846  0.00  0.00    +0.000 A 
ENDBRANCH   9  16
BRANCH  13  22
ATOM     22  C   UNL     1       3.477   4.586  17.184  0.00  0.00    +0.000 C 
BRANCH  22  23
ATOM     23  C   UNL     1       4.854   4.637  16.560  0.00  0.00    +0.000 A 
ATOM     24  C   UNL     1       5.020   4.907  15.191  0.00  0.00    +0.000 A 
ATOM     25  C   UNL     1       6.296   4.926  14.617  0.00  0.00    +0.000 A 
ATOM     26  C   UNL     1       7.420   4.677  15.404  0.00  0.00    +0.000 A 
ATOM     27  C   UNL     1       7.262   4.433  16.764  0.00  0.00    +0.000 A 
ATOM     28  F   UNL     1       8.346   4.206  17.520  0.00  0.00    +0.000 F 
ATOM     29  C   UNL     1       5.994   4.420  17.339  0.00  0.00    +0.000 A 
ATOM     30  F   UNL     1       5.874   4.200  18.657  0.00  0.00    +0.000 F 
ENDBRANCH  22  23
ENDBRANCH  13  22
TORSDOF 3
ENDMDL
MODEL 9
REMARK VINA RESULT:      -8.1      1.492      1.753
REMARK  Name = 
REMARK  5 active torsions:
REMARK  status: ('A' for Active; 'I' for Inactive)
REMARK    1  A    between atoms: C_1  and  C_2
REMARK    2  A    between atoms: C_2  and  C_3
REMARK    3  A    between atoms: C_9  and  C_11
REMARK    4  A    between atoms: N_19  and  C_20
REMARK    5  A    between atoms: C_20  and  C_21
REMARK                            x       y       z     vdW  Elec       q    Type
REMARK                         _______ _______ _______ _____ _____    ______ ____
ROOT
ATOM      1  C   UNL     1       3.679   2.162  17.881  0.00  0.00    +0.000 C 
ATOM      2  C   UNL     1       4.094   2.574  19.304  0.00  0.00    +0.000 C 
ATOM      3  C   UNL     1       4.537   1.369  20.138  0.00  0.00    +0.000 C 
ATOM      4  C   UNL     1       2.967   3.261  19.946  0.00  0.00    +0.000 A 
ATOM      5  N   UNL     1       1.737   2.943  20.403  0.00  0.00    +0.000 N 
ATOM      6  N   UNL     1       1.124   4.028  20.936  0.00  0.00    +0.000 NA
ATOM      7  C   UNL     1       1.949   5.051  20.646  0.00  0.00    +0.000 A 
ATOM      8  N   UNL     1       1.525   6.325  20.912  0.00  0.00    +0.000 N 
ATOM      9  C   UNL     1       1.812   7.396  20.099  0.00  0.00    +0.000 C 
ATOM     10  O   UNL     1       2.491   7.345  19.076  0.00  0.00    +0.000 OA
ATOM     11  C   UNL     1       3.150   4.585  20.117  0.00  0.00    +0.000 A 
ATOM     12  C   UNL     1       4.493   4.991  19.681  0.00  0.00    +0.000 C 
ATOM     13  N   UNL     1       5.151   3.652  19.397  0.00  0.00    +0.000 NA
ATOM     14  H   UNL     1       1.245   2.058  20.394  0.00  0.00    +0.000 HD
ATOM     15  H   UNL     1       0.730   6.334  21.526  0.00  0.00    +0.000 HD
ENDROOT
BRANCH   9  16
ATOM     16  C   UNL     1       1.229   8.709  20.516  0.00  0.00    +0.000 A 
ATOM     17  C   UNL     1       0.904   8.875  21.870  0.00  0.00    +0.000 A 
ATOM     18  C   UNL     1       0.247  10.029  22.301  0.00  0.00    +0.000 A 
ATOM     19  C   UNL     1      -0.084  11.025  21.386  0.00  0.00    +0.000 A 
ATOM     20  C   UNL     1       0.280  10.893  20.044  0.00  0.00    +0.000 A 
ATOM     21  C   UNL     1       0.942   9.745  19.615  0.00  0.00    +0.000 A 
ENDBRANCH   9  16
BRANCH  13  22
ATOM     22  C   UNL     1       6.084   3.720  18.270  0.00  0.00    +0.000 C 
BRANCH  22  23
ATOM     23  C   UNL     1       6.289   5.124  17.748  0.00  0.00    +0.000 A 
ATOM     24  C   UNL     1       7.348   5.922  18.210  0.00  0.00    +0.000 A 
ATOM     25  C   UNL     1       7.515   7.230  17.741  0.00  0.00    +0.000 A 
ATOM     26  C   UNL     1       6.625   7.755  16.804  0.00  0.00    +0.000 A 
ATOM     27  C   UNL     1       5.588   6.960  16.327  0.00  0.00    +0.000 A 
ATOM     28  F   UNL     1       4.742   7.463  15.416  0.00  0.00    +0.000 F 
ATOM     29  C   UNL     1       5.425   5.656  16.786  0.00  0.00    +0.000 A 
ATOM     30  F   UNL     1       4.427   4.907  16.294  0.00  0.00    +0.000 F 
ENDBRANCH  22  23
ENDBRANCH  13  22
TORSDOF 3
ENDMDL
