MODEL 1
REMARK VINA RESULT:      -8.3      0.000      0.000
REMARK  Name = 
REMARK  12 active torsions:
REMARK  status: ('A' for Active; 'I' for Inactive)
REMARK    1  A    between atoms: C_1  and  C_2
REMARK    2  A    between atoms: C_2  and  C_3
REMARK    3  A    between atoms: C_3  and  C_4
REMARK    4  A    between atoms: C_4  and  C_26
REMARK    5  A    between atoms: C_5  and  C_6
REMARK    6  A    between atoms: C_5  and  C_16
REMARK    7  A    between atoms: C_9  and  O_10
REMARK    8  A    between atoms: O_10  and  C_11
REMARK    9  A    between atoms: C_11  and  C_12
REMARK   10  A    between atoms: C_19  and  O_20
REMARK   11  A    between atoms: O_20  and  C_21
REMARK   12  A    between atoms: C_21  and  C_22
REMARK                            x       y       z     vdW  Elec       q    Type
REMARK                         _______ _______ _______ _____ _____    ______ ____
ROOT
ATOM      1  C   UNL     1       2.699   4.863  19.313  0.00  0.00    +0.000 C 
ATOM      2  C   UNL     1       3.202   5.930  18.628  0.00  0.00    +0.000 C 
ENDROOT
BRANCH   2   3
ATOM      3  C   UNL     1       4.328   5.741  17.659  0.00  0.00    +0.000 A 
ATOM      4  C   UNL     1       5.604   6.226  17.983  0.00  0.00    +0.000 A 
ATOM      5  C   UNL     1       6.681   6.029  17.115  0.00  0.00    +0.000 A 
ATOM      6  C   UNL     1       6.489   5.338  15.918  0.00  0.00    +0.000 A 
ATOM      7  C   UNL     1       5.220   4.887  15.562  0.00  0.00    +0.000 A 
ATOM      8  C   UNL     1       4.145   5.074  16.440  0.00  0.00    +0.000 A 
BRANCH   6   9
ATOM      9  O   UNL     1       7.636   5.183  15.107  0.00  0.00    +0.000 OA
BRANCH   9  10
ATOM     10  C   UNL     1       7.556   5.096  13.716  0.00  0.00    +0.000 C 
ATOM     11  C   UNL     1       6.613   3.988  13.339  0.00  0.00    +0.000 C 
ATOM     12  O   UNL     1       8.103   5.824  12.900  0.00  0.00    +0.000 OA
ENDBRANCH   9  10
ENDBRANCH   6   9
ENDBRANCH   2   3
BRANCH   2  13
ATOM     13  C   UNL     1       2.635   7.297  18.787  0.00  0.00    +0.000 A 
ATOM     14  C   UNL     1       2.571   8.157  17.679  0.00  0.00    +0.000 A 
ATOM     15  C   UNL     1       1.851   9.355  17.754  0.00  0.00    +0.000 A 
ATOM     16  C   UNL     1       1.183   9.691  18.932  0.00  0.00    +0.000 A 
ATOM     17  C   UNL     1       1.303   8.884  20.062  0.00  0.00    +0.000 A 
ATOM     18  C   UNL     1       2.021   7.683  19.984  0.00  0.00    +0.000 A 
BRANCH  16  19
ATOM     19  O   UNL     1       0.428  10.884  18.896  0.00  0.00    +0.000 OA
BRANCH  19  20
ATOM     20  C   UNL     1      -0.908  10.919  19.303  0.00  0.00    +0.000 C 
ATOM     21  C   UNL     1      -1.770  10.266  18.262  0.00  0.00    +0.000 C 
ATOM     22  O   UNL     1      -1.341  11.350  20.362  0.00  0.00    +0.000 OA
ENDBRANCH  19  20
ENDBRANCH  16  19
ENDBRANCH   2  13
BRANCH   1  23
ATOM     23  C   UNL     1       3.379   3.543  19.233  0.00  0.00    +0.000 A 
ATOM     24  C   UNL     1       2.961   2.607  18.273  0.00  0.00    +0.000 A 
ATOM     25  C   UNL     1       3.482   1.313  18.270  0.00  0.00    +0.000 A 
ATOM     26  C   UNL     1       4.436   0.945  19.218  0.00  0.00    +0.000 A 
ATOM     27  C   UNL     1       4.880   1.877  20.157  0.00  0.00    +0.000 A 
ATOM     28  C   UNL     1       4.355   3.171  20.165  0.00  0.00    +0.000 A 
ENDBRANCH   1  23
BRANCH   1  29
ATOM     29  C   UNL     1       1.504   4.884  20.258  0.00  0.00    +0.000 C 
BRANCH  29  31
ATOM     30  C   UNL     1       1.233   2.768  21.646  0.00  0.00    +0.000 C 
ATOM     31  C   UNL     1       0.830   3.508  20.377  0.00  0.00    +0.000 C 
ENDBRANCH  29  31
ENDBRANCH   1  29
TORSDOF 9
ENDMDL
MODEL 2
REMARK VINA RESULT:      -8.3      0.704      1.232
REMARK  Name = 
REMARK  12 active torsions:
REMARK  status: ('A' for Active; 'I' for Inactive)
REMARK    1  A    between atoms: C_1  and  C_2
REMARK    2  A    between atoms: C_2  and  C_3
REMARK    3  A    between atoms: C_3  and  C_4
REMARK    4  A    between atoms: C_4  and  C_26
REMARK    5  A    between atoms: C_5  and  C_6
REMARK    6  A    between atoms: C_5  and  C_16
REMARK    7  A    between atoms: C_9  and  O_10
REMARK    8  A    between atoms: O_10  and  C_11
REMARK    9  A    between atoms: C_11  and  C_12
REMARK   10  A    between atoms: C_19  and  O_20
REMARK   11  A    between atoms: O_20  and  C_21
REMARK   12  A    between atoms: C_21  and  C_22
REMARK                            x       y       z     vdW  Elec       q    Type
REMARK                         _______ _______ _______ _____ _____    ______ ____
ROOT
ATOM      1  C   UNL     1       2.598   4.871  19.303  0.00  0.00    +0.000 C 
ATOM      2  C   UNL     1       3.137   5.979  18.717  0.00  0.00    +0.000 C 
ENDROOT
BRANCH   2   3
ATOM      3  C   UNL     1       4.328   5.853  17.819  0.00  0.00    +0.000 A 
ATOM      4  C   UNL     1       4.140   5.550  16.462  0.00  0.00    +0.000 A 
ATOM      5  C   UNL     1       5.232   5.466  15.593  0.00  0.00    +0.000 A 
ATOM      6  C   UNL     1       6.521   5.691  16.077  0.00  0.00    +0.000 A 
ATOM      7  C   UNL     1       6.729   5.950  17.430  0.00  0.00    +0.000 A 
ATOM      8  C   UNL     1       5.632   6.048  18.295  0.00  0.00    +0.000 A 
BRANCH   6   9
ATOM      9  O   UNL     1       7.561   5.588  15.126  0.00  0.00    +0.000 OA
BRANCH   9  10
ATOM     10  C   UNL     1       7.395   4.919  13.912  0.00  0.00    +0.000 C 
ATOM     11  C   UNL     1       8.191   5.617  12.846  0.00  0.00    +0.000 C 
ATOM     12  O   UNL     1       6.760   3.892  13.718  0.00  0.00    +0.000 OA
ENDBRANCH   9  10
ENDBRANCH   6   9
ENDBRANCH   2   3
BRANCH   2  13
ATOM     13  C   UNL     1       2.547   7.331  18.913  0.00  0.00    +0.000 A 
ATOM     14  C   UNL     1       2.415   8.200  17.819  0.00  0.00    +0.000 A 
ATOM     15  C   UNL     1       1.673   9.380  17.936  0.00  0.00    +0.000 A 
ATOM     16  C   UNL     1       1.051   9.690  19.146  0.00  0.00    +0.000 A 
ATOM     17  C   UNL     1       1.238   8.877  20.262  0.00  0.00    +0.000 A 
ATOM     18  C   UNL     1       1.978   7.692  20.140  0.00  0.00    +0.000 A 
BRANCH  16  19
ATOM     19  O   UNL     1       0.268  10.867  19.156  0.00  0.00    +0.000 OA
BRANCH  19  20
ATOM     20  C   UNL     1      -1.126  10.820  19.102  0.00  0.00    +0.000 C 
ATOM     21  C   UNL     1      -1.702  11.904  19.967  0.00  0.00    +0.000 C 
ATOM     22  O   UNL     1      -1.809  10.067  18.422  0.00  0.00    +0.000 OA
ENDBRANCH  19  20
ENDBRANCH  16  19
ENDBRANCH   2  13
BRANCH   1  23
ATOM     23  C   UNL     1       3.295   3.562  19.194  0.00  0.00    +0.000 A 
ATOM     24  C   UNL     1       2.939   2.673  18.166  0.00  0.00    +0.000 A 
ATOM     25  C   UNL     1       3.473   1.384  18.128  0.00  0.00    +0.000 A 
ATOM     26  C   UNL     1       4.377   0.976  19.108  0.00  0.00    +0.000 A 
ATOM     27  C   UNL     1       4.759   1.862  20.115  0.00  0.00    +0.000 A 
ATOM     28  C   UNL     1       4.221   3.150  20.160  0.00  0.00    +0.000 A 
ENDBRANCH   1  23
BRANCH   1  29
ATOM     29  C   UNL     1       1.340   4.831  20.162  0.00  0.00    +0.000 C 
BRANCH  29  31
ATOM     30  C   UNL     1       1.201   2.789  21.675  0.00  0.00    +0.000 C 
ATOM     31  C   UNL     1       0.800   3.403  20.339  0.00  0.00    +0.000 C 
ENDBRANCH  29  31
ENDBRANCH   1  29
TORSDOF 9
ENDMDL
MODEL 3
REMARK VINA RESULT:      -8.2      1.109      1.541
REMARK  Name = 
REMARK  12 active torsions:
REMARK  status: ('A' for Active; 'I' for Inactive)
REMARK    1  A    between atoms: C_1  and  C_2
REMARK    2  A    between atoms: C_2  and  C_3
REMARK    3  A    between atoms: C_3  and  C_4
REMARK    4  A    between atoms: C_4  and  C_26
REMARK    5  A    between atoms: C_5  and  C_6
REMARK    6  A    between atoms: C_5  and  C_16
REMARK    7  A    between atoms: C_9  and  O_10
REMARK    8  A    between atoms: O_10  and  C_11
REMARK    9  A    between atoms: C_11  and  C_12
REMARK   10  A    between atoms: C_19  and  O_20
REMARK   11  A    between atoms: O_20  and  C_21
REMARK   12  A    between atoms: C_21  and  C_22
REMARK                            x       y       z     vdW  Elec       q    Type
REMARK                         _______ _______ _______ _____ _____    ______ ____
ROOT
ATOM      1  C   UNL     1       2.279   4.805  19.428  0.00  0.00    +0.000 C 
ATOM      2  C   UNL     1       2.857   5.968  19.010  0.00  0.00    +0.000 C 
ENDROOT
BRANCH   2   3
ATOM      3  C   UNL     1       4.058   5.935  18.116  0.00  0.00    +0.000 A 
ATOM      4  C   UNL     1       5.294   5.527  18.639  0.00  0.00    +0.000 A 
ATOM      5  C   UNL     1       6.423   5.449  17.818  0.00  0.00    +0.000 A 
ATOM      6  C   UNL     1       6.319   5.773  16.465  0.00  0.00    +0.000 A 
ATOM      7  C   UNL     1       5.109   6.220  15.939  0.00  0.00    +0.000 A 
ATOM      8  C   UNL     1       3.976   6.284  16.762  0.00  0.00    +0.000 A 
BRANCH   6   9
ATOM      9  O   UNL     1       7.510   5.660  15.713  0.00  0.00    +0.000 OA
BRANCH   9  10
ATOM     10  C   UNL     1       7.517   5.192  14.397  0.00  0.00    +0.000 C 
ATOM     11  C   UNL     1       6.553   4.047  14.271  0.00  0.00    +0.000 C 
ATOM     12  O   UNL     1       8.147   5.653  13.456  0.00  0.00    +0.000 OA
ENDBRANCH   9  10
ENDBRANCH   6   9
ENDBRANCH   2   3
BRANCH   2  13
ATOM     13  C   UNL     1       2.301   7.296  19.389  0.00  0.00    +0.000 A 
ATOM     14  C   UNL     1       2.116   8.280  18.405  0.00  0.00    +0.000 A 
ATOM     15  C   UNL     1       1.400   9.447  18.697  0.00  0.00    +0.000 A 
ATOM     16  C   UNL     1       0.859   9.629  19.970  0.00  0.00    +0.000 A 
ATOM     17  C   UNL     1       1.102   8.696  20.977  0.00  0.00    +0.000 A 
ATOM     18  C   UNL     1       1.815   7.526  20.681  0.00  0.00    +0.000 A 
BRANCH  16  19
ATOM     19  O   UNL     1       0.097  10.804  20.157  0.00  0.00    +0.000 OA
BRANCH  19  20
ATOM     20  C   UNL     1       0.475  11.785  21.076  0.00  0.00    +0.000 C 
ATOM     21  C   UNL     1       1.402  12.764  20.417  0.00  0.00    +0.000 C 
ATOM     22  O   UNL     1       0.086  11.896  22.230  0.00  0.00    +0.000 OA
ENDBRANCH  19  20
ENDBRANCH  16  19
ENDBRANCH   2  13
BRANCH   1  23
ATOM     23  C   UNL     1       2.942   3.505  19.144  0.00  0.00    +0.000 A 
ATOM     24  C   UNL     1       3.874   2.989  20.059  0.00  0.00    +0.000 A 
ATOM     25  C   UNL     1       4.614   1.847  19.750  0.00  0.00    +0.000 A 
ATOM     26  C   UNL     1       4.420   1.202  18.529  0.00  0.00    +0.000 A 
ATOM     27  C   UNL     1       3.475   1.689  17.626  0.00  0.00    +0.000 A 
ATOM     28  C   UNL     1       2.738   2.835  17.931  0.00  0.00    +0.000 A 
ENDBRANCH   1  23
BRANCH   1  29
ATOM     29  C   UNL     1       1.008   4.682  20.260  0.00  0.00    +0.000 C 
BRANCH  29  31
ATOM     30  C   UNL     1       1.207   2.711  21.858  0.00  0.00    +0.000 C 
ATOM     31  C   UNL     1       0.635   3.217  20.540  0.00  0.00    +0.000 C 
ENDBRANCH  29  31
ENDBRANCH   1  29
TORSDOF 9
ENDMDL
MODEL 4
REMARK VINA RESULT:      -8.2      1.014      1.488
REMARK  Name = 
REMARK  12 active torsions:
REMARK  status: ('A' for Active; 'I' for Inactive)
REMARK    1  A    between atoms: C_1  and  C_2
REMARK    2  A    between atoms: C_2  and  C_3
REMARK    3  A    between atoms: C_3  and  C_4
REMARK    4  A    between atoms: C_4  and  C_26
REMARK    5  A    between atoms: C_5  and  C_6
REMARK    6  A    between atoms: C_5  and  C_16
REMARK    7  A    between atoms: C_9  and  O_10
REMARK    8  A    between atoms: O_10  and  C_11
REMARK    9  A    between atoms: C_11  and  C_12
REMARK   10  A    between atoms: C_19  and  O_20
REMARK   11  A    between atoms: O_20  and  C_21
REMARK   12  A    between atoms: C_21  and  C_22
REMARK                            x       y       z     vdW  Elec       q    Type
REMARK                         _______ _______ _______ _____ _____    ______ ____
ROOT
ATOM      1  C   UNL     1       2.548   4.819  19.393  0.00  0.00    +0.000 C 
ATOM      2  C   UNL     1       3.095   5.955  18.872  0.00  0.00    +0.000 C 
ENDROOT
BRANCH   2   3
ATOM      3  C   UNL     1       4.274   5.871  17.952  0.00  0.00    +0.000 A 
ATOM      4  C   UNL     1       4.062   5.729  16.573  0.00  0.00    +0.000 A 
ATOM      5  C   UNL     1       5.144   5.688  15.688  0.00  0.00    +0.000 A 
ATOM      6  C   UNL     1       6.445   5.797  16.179  0.00  0.00    +0.000 A 
ATOM      7  C   UNL     1       6.674   5.896  17.549  0.00  0.00    +0.000 A 
ATOM      8  C   UNL     1       5.588   5.950  18.432  0.00  0.00    +0.000 A 
BRANCH   6   9
ATOM      9  O   UNL     1       7.473   5.750  15.210  0.00  0.00    +0.000 OA
BRANCH   9  10
ATOM     10  C   UNL     1       7.370   4.975  14.054  0.00  0.00    +0.000 C 
ATOM     11  C   UNL     1       8.167   5.614  12.953  0.00  0.00    +0.000 C 
ATOM     12  O   UNL     1       6.785   3.908  13.932  0.00  0.00    +0.000 OA
ENDBRANCH   9  10
ENDBRANCH   6   9
ENDBRANCH   2   3
BRANCH   2  13
ATOM     13  C   UNL     1       2.527   7.299  19.164  0.00  0.00    +0.000 A 
ATOM     14  C   UNL     1       2.359   8.225  18.123  0.00  0.00    +0.000 A 
ATOM     15  C   UNL     1       1.634   9.404  18.333  0.00  0.00    +0.000 A 
ATOM     16  C   UNL     1       1.065   9.654  19.582  0.00  0.00    +0.000 A 
ATOM     17  C   UNL     1       1.290   8.781  20.645  0.00  0.00    +0.000 A 
ATOM     18  C   UNL     1       2.013   7.600  20.431  0.00  0.00    +0.000 A 
BRANCH  16  19
ATOM     19  O   UNL     1       0.295  10.835  19.686  0.00  0.00    +0.000 OA
BRANCH  19  20
ATOM     20  C   UNL     1       0.655  11.871  20.550  0.00  0.00    +0.000 C 
ATOM     21  C   UNL     1       1.568  12.827  19.838  0.00  0.00    +0.000 C 
ATOM     22  O   UNL     1       0.262  12.042  21.695  0.00  0.00    +0.000 OA
ENDBRANCH  19  20
ENDBRANCH  16  19
ENDBRANCH   2  13
BRANCH   1  23
ATOM     23  C   UNL     1       3.225   3.510  19.190  0.00  0.00    +0.000 A 
ATOM     24  C   UNL     1       2.852   2.700  18.105  0.00  0.00    +0.000 A 
ATOM     25  C   UNL     1       3.367   1.409  17.975  0.00  0.00    +0.000 A 
ATOM     26  C   UNL     1       4.268   0.921  18.920  0.00  0.00    +0.000 A 
ATOM     27  C   UNL     1       4.667   1.729  19.985  0.00  0.00    +0.000 A 
ATOM     28  C   UNL     1       4.149   3.019  20.121  0.00  0.00    +0.000 A 
ENDBRANCH   1  23
BRANCH   1  29
ATOM     29  C   UNL     1       1.301   4.740  20.265  0.00  0.00    +0.000 C 
BRANCH  29  31
ATOM     30  C   UNL     1       1.222   2.709  21.795  0.00  0.00    +0.000 C 
ATOM     31  C   UNL     1       0.810   3.296  20.451  0.00  0.00    +0.000 C 
ENDBRANCH  29  31
ENDBRANCH   1  29
TORSDOF 9
ENDMDL
MODEL 5
REMARK VINA RESULT:      -8.1      0.812      1.131
REMARK  Name = 
REMARK  12 active torsions:
REMARK  status: ('A' for Active; 'I' for Inactive)
REMARK    1  A    between atoms: C_1  and  C_2
REMARK    2  A    between atoms: C_2  and  C_3
REMARK    3  A    between atoms: C_3  and  C_4
REMARK    4  A    between atoms: C_4  and  C_26
REMARK    5  A    between atoms: C_5  and  C_6
REMARK    6  A    between atoms: C_5  and  C_16
REMARK    7  A    between atoms: C_9  and  O_10
REMARK    8  A    between atoms: O_10  and  C_11
REMARK    9  A    between atoms: C_11  and  C_12
REMARK   10  A    between atoms: C_19  and  O_20
REMARK   11  A    between atoms: O_20  and  C_21
REMARK   12  A    between atoms: C_21  and  C_22
REMARK                            x       y       z     vdW  Elec       q    Type
REMARK                         _______ _______ _______ _____ _____    ______ ____
ROOT
ATOM      1  C   UNL     1       2.691   4.892  19.335  0.00  0.00    +0.000 C 
ATOM      2  C   UNL     1       3.197   5.976  18.679  0.00  0.00    +0.000 C 
ENDROOT
BRANCH   2   3
ATOM      3  C   UNL     1       4.330   5.812  17.714  0.00  0.00    +0.000 A 
ATOM      4  C   UNL     1       5.640   6.084  18.136  0.00  0.00    +0.000 A 
ATOM      5  C   UNL     1       6.719   5.902  17.267  0.00  0.00    +0.000 A 
ATOM      6  C   UNL     1       6.495   5.438  15.971  0.00  0.00    +0.000 A 
ATOM      7  C   UNL     1       5.197   5.203  15.522  0.00  0.00    +0.000 A 
ATOM      8  C   UNL     1       4.118   5.374  16.400  0.00  0.00    +0.000 A 
BRANCH   6   9
ATOM      9  O   UNL     1       7.646   5.280  15.167  0.00  0.00    +0.000 OA
BRANCH   9  10
ATOM     10  C   UNL     1       7.570   5.138  13.779  0.00  0.00    +0.000 C 
ATOM     11  C   UNL     1       6.658   3.992  13.445  0.00  0.00    +0.000 C 
ATOM     12  O   UNL     1       8.099   5.850  12.937  0.00  0.00    +0.000 OA
ENDBRANCH   9  10
ENDBRANCH   6   9
ENDBRANCH   2   3
BRANCH   2  13
ATOM     13  C   UNL     1       2.627   7.338  18.866  0.00  0.00    +0.000 A 
ATOM     14  C   UNL     1       2.593   8.234  17.786  0.00  0.00    +0.000 A 
ATOM     15  C   UNL     1       1.872   9.430  17.879  0.00  0.00    +0.000 A 
ATOM     16  C   UNL     1       1.174   9.729  19.050  0.00  0.00    +0.000 A 
ATOM     17  C   UNL     1       1.262   8.886  20.156  0.00  0.00    +0.000 A 
ATOM     18  C   UNL     1       1.982   7.686  20.059  0.00  0.00    +0.000 A 
BRANCH  16  19
ATOM     19  O   UNL     1       0.421  10.924  19.033  0.00  0.00    +0.000 OA
BRANCH  19  20
ATOM     20  C   UNL     1       1.027  12.175  19.173  0.00  0.00    +0.000 C 
ATOM     21  C   UNL     1       1.280  12.452  20.626  0.00  0.00    +0.000 C 
ATOM     22  O   UNL     1       1.367  12.929  18.273  0.00  0.00    +0.000 OA
ENDBRANCH  19  20
ENDBRANCH  16  19
ENDBRANCH   2  13
BRANCH   1  23
ATOM     23  C   UNL     1       3.373   3.575  19.227  0.00  0.00    +0.000 A 
ATOM     24  C   UNL     1       2.971   2.668  18.234  0.00  0.00    +0.000 A 
ATOM     25  C   UNL     1       3.494   1.374  18.202  0.00  0.00    +0.000 A 
ATOM     26  C   UNL     1       4.432   0.980  19.155  0.00  0.00    +0.000 A 
ATOM     27  C   UNL     1       4.860   1.884  20.128  0.00  0.00    +0.000 A 
ATOM     28  C   UNL     1       4.334   3.177  20.165  0.00  0.00    +0.000 A 
ENDBRANCH   1  23
BRANCH   1  29
ATOM     29  C   UNL     1       1.489   4.890  20.272  0.00  0.00    +0.000 C 
BRANCH  29  31
ATOM     30  C   UNL     1       1.212   2.773  21.656  0.00  0.00    +0.000 C 
ATOM     31  C   UNL     1       0.833   3.504  20.375  0.00  0.00    +0.000 C 
ENDBRANCH  29  31
ENDBRANCH   1  29
TORSDOF 9
ENDMDL
MODEL 6
REMARK VINA RESULT:      -8.0      0.690      1.404
REMARK  Name = 
REMARK  12 active torsions:
REMARK  status: ('A' for Active; 'I' for Inactive)
REMARK    1  A    between atoms: C_1  and  C_2
REMARK    2  A    between atoms: C_2  and  C_3
REMARK    3  A    between atoms: C_3  and  C_4
REMARK    4  A    between atoms: C_4  and  C_26
REMARK    5  A    between atoms: C_5  and  C_6
REMARK    6  A    between atoms: C_5  and  C_16
REMARK    7  A    between atoms: C_9  and  O_10
REMARK    8  A    between atoms: O_10  and  C_11
REMARK    9  A    between atoms: C_11  and  C_12
REMARK   10  A    between atoms: C_19  and  O_20
REMARK   11  A    between atoms: O_20  and  C_21
REMARK   12  A    between atoms: C_21  and  C_22
REMARK                            x       y       z     vdW  Elec       q    Type
REMARK                         _______ _______ _______ _____ _____    ______ ____
ROOT
ATOM      1  C   UNL     1       2.403   4.805  19.395  0.00  0.00    +0.000 C 
ATOM      2  C   UNL     1       3.000   5.918  18.880  0.00  0.00    +0.000 C 
ENDROOT
BRANCH   2   3
ATOM      3  C   UNL     1       4.218   5.790  18.018  0.00  0.00    +0.000 A 
ATOM      4  C   UNL     1       4.086   5.871  16.623  0.00  0.00    +0.000 A 
ATOM      5  C   UNL     1       5.210   5.794  15.797  0.00  0.00    +0.000 A 
ATOM      6  C   UNL     1       6.476   5.642  16.362  0.00  0.00    +0.000 A 
ATOM      7  C   UNL     1       6.621   5.518  17.742  0.00  0.00    +0.000 A 
ATOM      8  C   UNL     1       5.493   5.609  18.568  0.00  0.00    +0.000 A 
BRANCH   6   9
ATOM      9  O   UNL     1       7.553   5.579  15.449  0.00  0.00    +0.000 OA
BRANCH   9  10
ATOM     10  C   UNL     1       7.393   5.119  14.141  0.00  0.00    +0.000 C 
ATOM     11  C   UNL     1       6.511   3.903  14.145  0.00  0.00    +0.000 C 
ATOM     12  O   UNL     1       7.834   5.630  13.121  0.00  0.00    +0.000 OA
ENDBRANCH   9  10
ENDBRANCH   6   9
ENDBRANCH   2   3
BRANCH   2  13
ATOM     13  C   UNL     1       2.452   7.280  19.120  0.00  0.00    +0.000 A 
ATOM     14  C   UNL     1       2.317   8.176  18.048  0.00  0.00    +0.000 A 
ATOM     15  C   UNL     1       1.609   9.373  18.209  0.00  0.00    +0.000 A 
ATOM     16  C   UNL     1       1.025   9.672  19.440  0.00  0.00    +0.000 A 
ATOM     17  C   UNL     1       1.216   8.829  20.533  0.00  0.00    +0.000 A 
ATOM     18  C   UNL     1       1.922   7.629  20.368  0.00  0.00    +0.000 A 
BRANCH  16  19
ATOM     19  O   UNL     1       0.274  10.868  19.494  0.00  0.00    +0.000 OA
BRANCH  19  20
ATOM     20  C   UNL     1      -1.078  10.902  19.145  0.00  0.00    +0.000 C 
ATOM     21  C   UNL     1      -1.797  11.901  20.004  0.00  0.00    +0.000 C 
ATOM     22  O   UNL     1      -1.618  10.274  18.245  0.00  0.00    +0.000 OA
ENDBRANCH  19  20
ENDBRANCH  16  19
ENDBRANCH   2  13
BRANCH   1  23
ATOM     23  C   UNL     1       3.058   3.478  19.249  0.00  0.00    +0.000 A 
ATOM     24  C   UNL     1       3.984   3.053  20.216  0.00  0.00    +0.000 A 
ATOM     25  C   UNL     1       4.717   1.881  20.029  0.00  0.00    +0.000 A 
ATOM     26  C   UNL     1       4.522   1.115  18.881  0.00  0.00    +0.000 A 
ATOM     27  C   UNL     1       3.583   1.512  17.929  0.00  0.00    +0.000 A 
ATOM     28  C   UNL     1       2.852   2.688  18.111  0.00  0.00    +0.000 A 
ENDBRANCH   1  23
BRANCH   1  29
ATOM     29  C   UNL     1       1.116   4.772  20.210  0.00  0.00    +0.000 C 
BRANCH  29  31
ATOM     30  C   UNL     1       1.128   2.760  21.768  0.00  0.00    +0.000 C 
ATOM     31  C   UNL     1       0.618   3.338  20.455  0.00  0.00    +0.000 C 
ENDBRANCH  29  31
ENDBRANCH   1  29
TORSDOF 9
ENDMDL
MODEL 7
REMARK VINA RESULT:      -8.0      1.151      1.307
REMARK  Name = 
REMARK  12 active torsions:
REMARK  status: ('A' for Active; 'I' for Inactive)
REMARK    1  A    between atoms: C_1  and  C_2
REMARK    2  A    between atoms: C_2  and  C_3
REMARK    3  A    between atoms: C_3  and  C_4
REMARK    4  A    between atoms: C_4  and  C_26
REMARK    5  A    between atoms: C_5  and  C_6
REMARK    6  A    between atoms: C_5  and  C_16
REMARK    7  A    between atoms: C_9  and  O_10
REMARK    8  A    between atoms: O_10  and  C_11
REMARK    9  A    between atoms: C_11  and  C_12
REMARK   10  A    between atoms: C_19  and  O_20
REMARK   11  A    between atoms: O_20  and  C_21
REMARK   12  A    between atoms: C_21  and  C_22
REMARK                            x       y       z     vdW  Elec       q    Type
REMARK                         _______ _______ _______ _____ _____    ______ ____
ROOT
ATOM      1  C   UNL     1       2.445   4.859  19.413  0.00  0.00    +0.000 C 
ATOM      2  C   UNL     1       2.969   6.044  18.987  0.00  0.00    +0.000 C 
ENDROOT
BRANCH   2   3
ATOM      3  C   UNL     1       4.155   6.059  18.074  0.00  0.00    +0.000 A 
ATOM      4  C   UNL     1       5.421   5.734  18.583  0.00  0.00    +0.000 A 
ATOM      5  C   UNL     1       6.539   5.702  17.743  0.00  0.00    +0.000 A 
ATOM      6  C   UNL     1       6.394   5.990  16.386  0.00  0.00    +0.000 A 
ATOM      7  C   UNL     1       5.151   6.356  15.873  0.00  0.00    +0.000 A 
ATOM      8  C   UNL     1       4.031   6.373  16.714  0.00  0.00    +0.000 A 
BRANCH   6   9
ATOM      9  O   UNL     1       7.576   5.929  15.615  0.00  0.00    +0.000 OA
BRANCH   9  10
ATOM     10  C   UNL     1       7.625   5.283  14.378  0.00  0.00    +0.000 C 
ATOM     11  C   UNL     1       6.686   4.111  14.390  0.00  0.00    +0.000 C 
ATOM     12  O   UNL     1       8.271   5.622  13.396  0.00  0.00    +0.000 OA
ENDBRANCH   9  10
ENDBRANCH   6   9
ENDBRANCH   2   3
BRANCH   2  13
ATOM     13  C   UNL     1       2.368   7.348  19.378  0.00  0.00    +0.000 A 
ATOM     14  C   UNL     1       2.046   8.291  18.390  0.00  0.00    +0.000 A 
ATOM     15  C   UNL     1       1.288   9.423  18.710  0.00  0.00    +0.000 A 
ATOM     16  C   UNL     1       0.841   9.610  20.019  0.00  0.00    +0.000 A 
ATOM     17  C   UNL     1       1.219   8.723  21.025  0.00  0.00    +0.000 A 
ATOM     18  C   UNL     1       1.974   7.587  20.700  0.00  0.00    +0.000 A 
BRANCH  16  19
ATOM     19  O   UNL     1       0.028  10.745  20.239  0.00  0.00    +0.000 OA
BRANCH  19  20
ATOM     20  C   UNL     1       0.191  11.557  21.363  0.00  0.00    +0.000 C 
ATOM     21  C   UNL     1      -0.859  11.223  22.383  0.00  0.00    +0.000 C 
ATOM     22  O   UNL     1       1.074  12.382  21.550  0.00  0.00    +0.000 OA
ENDBRANCH  19  20
ENDBRANCH  16  19
ENDBRANCH   2  13
BRANCH   1  23
ATOM     23  C   UNL     1       3.154   3.585  19.115  0.00  0.00    +0.000 A 
ATOM     24  C   UNL     1       2.794   2.844  17.977  0.00  0.00    +0.000 A 
ATOM     25  C   UNL     1       3.340   1.580  17.754  0.00  0.00    +0.000 A 
ATOM     26  C   UNL     1       4.260   1.050  18.657  0.00  0.00    +0.000 A 
ATOM     27  C   UNL     1       4.646   1.791  19.774  0.00  0.00    +0.000 A 
ATOM     28  C   UNL     1       4.097   3.054  20.003  0.00  0.00    +0.000 A 
ENDBRANCH   1  23
BRANCH   1  29
ATOM     29  C   UNL     1       1.195   4.684  20.266  0.00  0.00    +0.000 C 
BRANCH  29  31
ATOM     30  C   UNL     1       1.133   2.513  21.593  0.00  0.00    +0.000 C 
ATOM     31  C   UNL     1       1.495   3.992  21.606  0.00  0.00    +0.000 C 
ENDBRANCH  29  31
ENDBRANCH   1  29
TORSDOF 9
ENDMDL
MODEL 8
REMARK VINA RESULT:      -7.9      1.208      1.646
REMARK  Name = 
REMARK  12 active torsions:
REMARK  status: ('A' for Active; 'I' for Inactive)
REMARK    1  A    between atoms: C_1  and  C_2
REMARK    2  A    between atoms: C_2  and  C_3
REMARK    3  A    between atoms: C_3  and  C_4
REMARK    4  A    between atoms: C_4  and  C_26
REMARK    5  A    between atoms: C_5  and  C_6
REMARK    6  A    between atoms: C_5  and  C_16
REMARK    7  A    between atoms: C_9  and  O_10
REMARK    8  A    between atoms: O_10  and  C_11
REMARK    9  A    between atoms: C_11  and  C_12
REMARK   10  A    between atoms: C_19  and  O_20
REMARK   11  A    between atoms: O_20  and  C_21
REMARK   12  A    between atoms: C_21  and  C_22
REMARK                            x       y       z     vdW  Elec       q    Type
REMARK                         _______ _______ _______ _____ _____    ______ ____
ROOT
ATOM      1  C   UNL     1       2.194   4.817  19.562  0.00  0.00    +0.000 C 
ATOM      2  C   UNL     1       2.672   6.039  19.190  0.00  0.00    +0.000 C 
ENDROOT
BRANCH   2   3
ATOM      3  C   UNL     1       3.875   6.141  18.304  0.00  0.00    +0.000 A 
ATOM      4  C   UNL     1       5.130   5.757  18.800  0.00  0.00    +0.000 A 
ATOM      5  C   UNL     1       6.263   5.805  17.982  0.00  0.00    +0.000 A 
ATOM      6  C   UNL     1       6.145   6.232  16.659  0.00  0.00    +0.000 A 
ATOM      7  C   UNL     1       4.914   6.656  16.164  0.00  0.00    +0.000 A 
ATOM      8  C   UNL     1       3.778   6.594  16.982  0.00  0.00    +0.000 A 
BRANCH   6   9
ATOM      9  O   UNL     1       7.341   6.243  15.908  0.00  0.00    +0.000 OA
BRANCH   9  10
ATOM     10  C   UNL     1       7.522   5.431  14.786  0.00  0.00    +0.000 C 
ATOM     11  C   UNL     1       6.674   4.199  14.921  0.00  0.00    +0.000 C 
ATOM     12  O   UNL     1       8.206   5.677  13.802  0.00  0.00    +0.000 OA
ENDBRANCH   9  10
ENDBRANCH   6   9
ENDBRANCH   2   3
BRANCH   2  13
ATOM     13  C   UNL     1       2.004   7.300  19.613  0.00  0.00    +0.000 A 
ATOM     14  C   UNL     1       1.706   7.510  20.969  0.00  0.00    +0.000 A 
ATOM     15  C   UNL     1       1.280   8.766  21.415  0.00  0.00    +0.000 A 
ATOM     16  C   UNL     1       1.161   9.820  20.508  0.00  0.00    +0.000 A 
ATOM     17  C   UNL     1       1.379   9.605  19.148  0.00  0.00    +0.000 A 
ATOM     18  C   UNL     1       1.809   8.347  18.705  0.00  0.00    +0.000 A 
BRANCH  16  19
ATOM     19  O   UNL     1       0.789  11.069  21.055  0.00  0.00    +0.000 OA
BRANCH  19  20
ATOM     20  C   UNL     1      -0.550  11.444  21.181  0.00  0.00    +0.000 C 
ATOM     21  C   UNL     1      -0.926  11.492  22.634  0.00  0.00    +0.000 C 
ATOM     22  O   UNL     1      -1.314  11.752  20.277  0.00  0.00    +0.000 OA
ENDBRANCH  19  20
ENDBRANCH  16  19
ENDBRANCH   2  13
BRANCH   1  23
ATOM     23  C   UNL     1       2.966   3.589  19.235  0.00  0.00    +0.000 A 
ATOM     24  C   UNL     1       2.691   2.896  18.044  0.00  0.00    +0.000 A 
ATOM     25  C   UNL     1       3.297   1.666  17.783  0.00  0.00    +0.000 A 
ATOM     26  C   UNL     1       4.193   1.124  18.703  0.00  0.00    +0.000 A 
ATOM     27  C   UNL     1       4.495   1.818  19.874  0.00  0.00    +0.000 A 
ATOM     28  C   UNL     1       3.886   3.046  20.141  0.00  0.00    +0.000 A 
ENDBRANCH   1  23
BRANCH   1  29
ATOM     29  C   UNL     1       0.935   4.555  20.380  0.00  0.00    +0.000 C 
BRANCH  29  31
ATOM     30  C   UNL     1       1.168   2.605  21.998  0.00  0.00    +0.000 C 
ATOM     31  C   UNL     1       0.698   3.056  20.621  0.00  0.00    +0.000 C 
ENDBRANCH  29  31
ENDBRANCH   1  29
TORSDOF 9
ENDMDL
MODEL 9
REMARK VINA RESULT:      -7.7      0.814      1.587
REMARK  Name = 
REMARK  12 active torsions:
REMARK  status: ('A' for Active; 'I' for Inactive)
REMARK    1  A    between atoms: C_1  and  C_2
REMARK    2  A    between atoms: C_2  and  C_3
REMARK    3  A    between atoms: C_3  and  C_4
REMARK    4  A    between atoms: C_4  and  C_26
REMARK    5  A    between atoms: C_5  and  C_6
REMARK    6  A    between atoms: C_5  and  C_16
REMARK    7  A    between atoms: C_9  and  O_10
REMARK    8  A    between atoms: O_10  and  C_11
REMARK    9  A    between atoms: C_11  and  C_12
REMARK   10  A    between atoms: C_19  and  O_20
REMARK   11  A    between atoms: O_20  and  C_21
REMARK   12  A    between atoms: C_21  and  C_22
REMARK                            x       y       z     vdW  Elec       q    Type
REMARK                         _______ _______ _______ _____ _____    ______ ____
ROOT
ATOM      1  C   UNL     1       2.563   4.710  19.392  0.00  0.00    +0.000 C 
ATOM      2  C   UNL     1       3.023   5.833  18.772  0.00  0.00    +0.000 C 
ENDROOT
BRANCH   2   3
ATOM      3  C   UNL     1       4.220   5.763  17.874  0.00  0.00    +0.000 A 
ATOM      4  C   UNL     1       4.040   5.523  16.503  0.00  0.00    +0.000 A 
ATOM      5  C   UNL     1       5.136   5.491  15.637  0.00  0.00    +0.000 A 
ATOM      6  C   UNL     1       6.420   5.706  16.136  0.00  0.00    +0.000 A 
ATOM      7  C   UNL     1       6.621   5.904  17.501  0.00  0.00    +0.000 A 
ATOM      8  C   UNL     1       5.519   5.949  18.365  0.00  0.00    +0.000 A 
BRANCH   6   9
ATOM      9  O   UNL     1       7.465   5.660  15.186  0.00  0.00    +0.000 OA
BRANCH   9  10
ATOM     10  C   UNL     1       7.360   4.930  14.000  0.00  0.00    +0.000 C 
ATOM     11  C   UNL     1       8.192   5.586  12.936  0.00  0.00    +0.000 C 
ATOM     12  O   UNL     1       6.747   3.885  13.831  0.00  0.00    +0.000 OA
ENDBRANCH   9  10
ENDBRANCH   6   9
ENDBRANCH   2   3
BRANCH   2  13
ATOM     13  C   UNL     1       2.343   7.147  18.930  0.00  0.00    +0.000 A 
ATOM     14  C   UNL     1       1.908   7.558  20.200  0.00  0.00    +0.000 A 
ATOM     15  C   UNL     1       1.466   8.870  20.408  0.00  0.00    +0.000 A 
ATOM     16  C   UNL     1       1.466   9.777  19.348  0.00  0.00    +0.000 A 
ATOM     17  C   UNL     1       1.821   9.362  18.067  0.00  0.00    +0.000 A 
ATOM     18  C   UNL     1       2.268   8.049  17.862  0.00  0.00    +0.000 A 
BRANCH  16  19
ATOM     19  O   UNL     1       1.067  11.096  19.663  0.00  0.00    +0.000 OA
BRANCH  19  20
ATOM     20  C   UNL     1      -0.263  11.410  19.952  0.00  0.00    +0.000 C 
ATOM     21  C   UNL     1      -0.354  12.006  21.327  0.00  0.00    +0.000 C 
ATOM     22  O   UNL     1      -1.224  11.288  19.205  0.00  0.00    +0.000 OA
ENDBRANCH  19  20
ENDBRANCH  16  19
ENDBRANCH   2  13
BRANCH   1  23
ATOM     23  C   UNL     1       3.347   3.448  19.320  0.00  0.00    +0.000 A 
ATOM     24  C   UNL     1       3.101   2.540  18.277  0.00  0.00    +0.000 A 
ATOM     25  C   UNL     1       3.719   1.289  18.267  0.00  0.00    +0.000 A 
ATOM     26  C   UNL     1       4.597   0.938  19.291  0.00  0.00    +0.000 A 
ATOM     27  C   UNL     1       4.871   1.845  20.315  0.00  0.00    +0.000 A 
ATOM     28  C   UNL     1       4.250   3.095  20.331  0.00  0.00    +0.000 A 
ENDBRANCH   1  23
BRANCH   1  29
ATOM     29  C   UNL     1       1.312   4.609  20.257  0.00  0.00    +0.000 C 
BRANCH  29  31
ATOM     30  C   UNL     1       1.218   2.616  21.836  0.00  0.00    +0.000 C 
ATOM     31  C   UNL     1       0.857   3.155  20.457  0.00  0.00    +0.000 C 
ENDBRANCH  29  31
ENDBRANCH   1  29
TORSDOF 9
ENDMDL
