MODEL 1
REMARK VINA RESULT:      -8.8      0.000      0.000
REMARK  Name = 
REMARK  8 active torsions:
REMARK  status: ('A' for Active; 'I' for Inactive)
REMARK    1  A    between atoms: C_1  and  C_2
REMARK    2  A    between atoms: C_6  and  C_8
REMARK    3  A    between atoms: C_8  and  O_9
REMARK    4  A    between atoms: O_9  and  C_10
REMARK    5  A    between atoms: C_10  and  C_12
REMARK    6  A    between atoms: C_13  and  C_14
REMARK    7  A    between atoms: N_16  and  C_17
REMARK    8  A    between atoms: C_17  and  C_18
REMARK                            x       y       z     vdW  Elec       q    Type
REMARK                         _______ _______ _______ _____ _____    ______ ____
ROOT
ATOM      1  C   UNL     1       6.205   4.741  17.195  0.00  0.00    +0.000 A 
ATOM      2  C   UNL     1       5.580   4.278  16.001  0.00  0.00    +0.000 A 
ATOM      3  C   UNL     1       6.199   3.762  14.751  0.00  0.00    +0.000 C 
ATOM      4  N   UNL     1       4.244   4.383  16.062  0.00  0.00    +0.000 NA
ATOM      5  N   UNL     1       3.998   4.843  17.311  0.00  0.00    +0.000 N 
ATOM      6  C   UNL     1       5.143   4.990  18.036  0.00  0.00    +0.000 A 
ATOM      7 CL   UNL     1       5.084   5.405  19.688  0.00  0.00    +0.000 Cl
ENDROOT
BRANCH   1   8
ATOM      8  C   UNL     1       7.612   4.929  17.474  0.00  0.00    +0.000 C 
ATOM      9  O   UNL     1       8.383   4.018  17.716  0.00  0.00    +0.000 OA
BRANCH   8  10
ATOM     10  O   UNL     1       7.973   6.237  17.328  0.00  0.00    +0.000 OA
BRANCH  10  11
ATOM     11  C   UNL     1       8.026   7.036  18.510  0.00  0.00    +0.000 C 
BRANCH  11  17
ATOM     12  C   UNL     1      10.731  13.846  19.758  0.00  0.00    +0.000 C 
ATOM     13  C   UNL     1      10.110  12.571  19.360  0.00  0.00    +0.000 A 
ATOM     14  C   UNL     1      10.134  11.278  19.831  0.00  0.00    +0.000 A 
ATOM     15  C   UNL     1       9.286  10.559  18.948  0.00  0.00    +0.000 A 
ATOM     16  N   UNL     1       9.006   9.205  19.051  0.00  0.00    +0.000 N 
ATOM     17  C   UNL     1       8.175   8.521  18.179  0.00  0.00    +0.000 C 
ATOM     18  O   UNL     1       7.621   8.978  17.185  0.00  0.00    +0.000 OA
ATOM     19  N   UNL     1       8.793  11.375  18.014  0.00  0.00    +0.000 NA
ATOM     20  O   UNL     1       9.301  12.627  18.271  0.00  0.00    +0.000 OA
ATOM     21  H   UNL     1       9.428   8.695  19.818  0.00  0.00    +0.000 HD
ENDBRANCH  11  17
ENDBRANCH  10  11
ENDBRANCH   8  10
ENDBRANCH   1   8
BRANCH   5  22
ATOM     22  C   UNL     1       2.630   5.206  17.680  0.00  0.00    +0.000 C 
BRANCH  22  23
ATOM     23  C   UNL     1       2.084   4.285  18.742  0.00  0.00    +0.000 A 
ATOM     24  C   UNL     1       1.939   2.918  18.437  0.00  0.00    +0.000 A 
ATOM     25  C   UNL     1       1.548   2.001  19.412  0.00  0.00    +0.000 A 
ATOM     26  C   UNL     1       1.280   2.438  20.705  0.00  0.00    +0.000 A 
ATOM     27  C   UNL     1       1.358   3.796  21.009  0.00  0.00    +0.000 A 
ATOM     28  C   UNL     1       1.743   4.718  20.032  0.00  0.00    +0.000 A 
ATOM     29 CL   UNL     1       1.755   6.386  20.482  0.00  0.00    +0.000 Cl
ENDBRANCH  22  23
ENDBRANCH   5  22
TORSDOF 6
ENDMDL
MODEL 2
REMARK VINA RESULT:      -8.7      1.173      1.926
REMARK  Name = 
REMARK  8 active torsions:
REMARK  status: ('A' for Active; 'I' for Inactive)
REMARK    1  A    between atoms: C_1  and  C_2
REMARK    2  A    between atoms: C_6  and  C_8
REMARK    3  A    between atoms: C_8  and  O_9
REMARK    4  A    between atoms: O_9  and  C_10
REMARK    5  A    between atoms: C_10  and  C_12
REMARK    6  A    between atoms: C_13  and  C_14
REMARK    7  A    between atoms: N_16  and  C_17
REMARK    8  A    between atoms: C_17  and  C_18
REMARK                            x       y       z     vdW  Elec       q    Type
REMARK                         _______ _______ _______ _____ _____    ______ ____
ROOT
ATOM      1  C   UNL     1       6.090   4.481  17.230  0.00  0.00    +0.000 A 
ATOM      2  C   UNL     1       5.429   4.181  16.004  0.00  0.00    +0.000 A 
ATOM      3  C   UNL     1       5.995   4.035  14.637  0.00  0.00    +0.000 C 
ATOM      4  N   UNL     1       4.103   4.061  16.168  0.00  0.00    +0.000 NA
ATOM      5  N   UNL     1       3.912   4.210  17.500  0.00  0.00    +0.000 N 
ATOM      6  C   UNL     1       5.087   4.382  18.168  0.00  0.00    +0.000 A 
ATOM      7 CL   UNL     1       5.124   4.434  19.871  0.00  0.00    +0.000 Cl
ENDROOT
BRANCH   1   8
ATOM      8  C   UNL     1       7.478   4.825  17.457  0.00  0.00    +0.000 C 
ATOM      9  O   UNL     1       8.357   4.005  17.651  0.00  0.00    +0.000 OA
BRANCH   8  10
ATOM     10  O   UNL     1       7.680   6.168  17.324  0.00  0.00    +0.000 OA
BRANCH  10  11
ATOM     11  C   UNL     1       8.055   6.893  18.495  0.00  0.00    +0.000 C 
BRANCH  11  17
ATOM     12  C   UNL     1      10.621  13.680  20.102  0.00  0.00    +0.000 C 
ATOM     13  C   UNL     1      10.043  12.412  19.627  0.00  0.00    +0.000 A 
ATOM     14  C   UNL     1      10.021  11.113  20.078  0.00  0.00    +0.000 A 
ATOM     15  C   UNL     1       9.264  10.407  19.106  0.00  0.00    +0.000 A 
ATOM     16  N   UNL     1       8.976   9.053  19.162  0.00  0.00    +0.000 N 
ATOM     17  C   UNL     1       8.235   8.382  18.202  0.00  0.00    +0.000 C 
ATOM     18  O   UNL     1       7.780   8.854  17.165  0.00  0.00    +0.000 OA
ATOM     19  N   UNL     1       8.865  11.238  18.140  0.00  0.00    +0.000 NA
ATOM     20  O   UNL     1       9.345  12.485  18.465  0.00  0.00    +0.000 OA
ATOM     21  H   UNL     1       9.321   8.531  19.959  0.00  0.00    +0.000 HD
ENDBRANCH  11  17
ENDBRANCH  10  11
ENDBRANCH   8  10
ENDBRANCH   1   8
BRANCH   5  22
ATOM     22  C   UNL     1       2.547   4.271  18.021  0.00  0.00    +0.000 C 
BRANCH  22  23
ATOM     23  C   UNL     1       2.310   5.544  18.795  0.00  0.00    +0.000 A 
ATOM     24  C   UNL     1       2.512   6.776  18.143  0.00  0.00    +0.000 A 
ATOM     25  C   UNL     1       2.201   7.981  18.770  0.00  0.00    +0.000 A 
ATOM     26  C   UNL     1       1.698   7.977  20.067  0.00  0.00    +0.000 A 
ATOM     27  C   UNL     1       1.551   6.772  20.750  0.00  0.00    +0.000 A 
ATOM     28  C   UNL     1       1.868   5.561  20.127  0.00  0.00    +0.000 A 
ATOM     29 CL   UNL     1       1.711   4.123  21.069  0.00  0.00    +0.000 Cl
ENDBRANCH  22  23
ENDBRANCH   5  22
TORSDOF 6
ENDMDL
MODEL 3
REMARK VINA RESULT:      -8.1      4.372      6.589
REMARK  Name = 
REMARK  8 active torsions:
REMARK  status: ('A' for Active; 'I' for Inactive)
REMARK    1  A    between atoms: C_1  and  C_2
REMARK    2  A    between atoms: C_6  and  C_8
REMARK    3  A    between atoms: C_8  and  O_9
REMARK    4  A    between atoms: O_9  and  C_10
REMARK    5  A    between atoms: C_10  and  C_12
REMARK    6  A    between atoms: C_13  and  C_14
REMARK    7  A    between atoms: N_16  and  C_17
REMARK    8  A    between atoms: C_17  and  C_18
REMARK                            x       y       z     vdW  Elec       q    Type
REMARK                         _______ _______ _______ _____ _____    ______ ____
ROOT
ATOM      1  C   UNL     1       2.575   5.130  18.834  0.00  0.00    +0.000 A 
ATOM      2  C   UNL     1       1.877   5.196  20.074  0.00  0.00    +0.000 A 
ATOM      3  C   UNL     1       1.423   4.093  20.962  0.00  0.00    +0.000 C 
ATOM      4  N   UNL     1       1.585   6.460  20.417  0.00  0.00    +0.000 NA
ATOM      5  N   UNL     1       2.150   7.214  19.445  0.00  0.00    +0.000 N 
ATOM      6  C   UNL     1       2.816   6.452  18.531  0.00  0.00    +0.000 A 
ATOM      7 CL   UNL     1       3.742   7.177  17.299  0.00  0.00    +0.000 Cl
ENDROOT
BRANCH   1   8
ATOM      8  C   UNL     1       2.941   3.967  18.054  0.00  0.00    +0.000 C 
ATOM      9  O   UNL     1       2.426   3.676  16.989  0.00  0.00    +0.000 OA
BRANCH   8  10
ATOM     10  O   UNL     1       3.997   3.310  18.614  0.00  0.00    +0.000 OA
BRANCH  10  11
ATOM     11  C   UNL     1       5.066   4.106  19.125  0.00  0.00    +0.000 C 
BRANCH  11  17
ATOM     12  C   UNL     1       7.295   4.427  12.043  0.00  0.00    +0.000 C 
ATOM     13  C   UNL     1       6.985   4.494  13.481  0.00  0.00    +0.000 A 
ATOM     14  C   UNL     1       6.069   3.897  14.316  0.00  0.00    +0.000 A 
ATOM     15  C   UNL     1       6.350   4.434  15.600  0.00  0.00    +0.000 A 
ATOM     16  N   UNL     1       5.669   4.101  16.760  0.00  0.00    +0.000 N 
ATOM     17  C   UNL     1       5.958   4.637  18.005  0.00  0.00    +0.000 C 
ATOM     18  O   UNL     1       6.796   5.499  18.255  0.00  0.00    +0.000 OA
ATOM     19  N   UNL     1       7.366   5.297  15.527  0.00  0.00    +0.000 NA
ATOM     20  O   UNL     1       7.764   5.332  14.211  0.00  0.00    +0.000 OA
ATOM     21  H   UNL     1       4.925   3.417  16.690  0.00  0.00    +0.000 HD
ENDBRANCH  11  17
ENDBRANCH  10  11
ENDBRANCH   8  10
ENDBRANCH   1   8
BRANCH   5  22
ATOM     22  C   UNL     1       1.908   8.656  19.430  0.00  0.00    +0.000 C 
BRANCH  22  23
ATOM     23  C   UNL     1       1.030   9.077  20.582  0.00  0.00    +0.000 A 
ATOM     24  C   UNL     1       1.452   8.782  21.893  0.00  0.00    +0.000 A 
ATOM     25  C   UNL     1       0.740   9.245  22.999  0.00  0.00    +0.000 A 
ATOM     26  C   UNL     1      -0.415   9.997  22.813  0.00  0.00    +0.000 A 
ATOM     27  C   UNL     1      -0.882  10.246  21.524  0.00  0.00    +0.000 A 
ATOM     28  C   UNL     1      -0.174   9.777  20.413  0.00  0.00    +0.000 A 
ATOM     29 CL   UNL     1      -0.858  10.080  18.856  0.00  0.00    +0.000 Cl
ENDBRANCH  22  23
ENDBRANCH   5  22
TORSDOF 6
ENDMDL
MODEL 4
REMARK VINA RESULT:      -7.8      1.881      2.688
REMARK  Name = 
REMARK  8 active torsions:
REMARK  status: ('A' for Active; 'I' for Inactive)
REMARK    1  A    between atoms: C_1  and  C_2
REMARK    2  A    between atoms: C_6  and  C_8
REMARK    3  A    between atoms: C_8  and  O_9
REMARK    4  A    between atoms: O_9  and  C_10
REMARK    5  A    between atoms: C_10  and  C_12
REMARK    6  A    between atoms: C_13  and  C_14
REMARK    7  A    between atoms: N_16  and  C_17
REMARK    8  A    between atoms: C_17  and  C_18
REMARK                            x       y       z     vdW  Elec       q    Type
REMARK                         _______ _______ _______ _____ _____    ______ ____
ROOT
ATOM      1  C   UNL     1       6.856   6.131  18.000  0.00  0.00    +0.000 A 
ATOM      2  C   UNL     1       7.063   5.386  19.196  0.00  0.00    +0.000 A 
ATOM      3  C   UNL     1       8.130   5.524  20.222  0.00  0.00    +0.000 C 
ATOM      4  N   UNL     1       6.153   4.410  19.341  0.00  0.00    +0.000 NA
ATOM      5  N   UNL     1       5.320   4.566  18.285  0.00  0.00    +0.000 N 
ATOM      6  C   UNL     1       5.668   5.633  17.512  0.00  0.00    +0.000 A 
ATOM      7 CL   UNL     1       4.683   6.131  16.215  0.00  0.00    +0.000 Cl
ENDROOT
BRANCH   1   8
ATOM      8  C   UNL     1       7.689   7.158  17.409  0.00  0.00    +0.000 C 
ATOM      9  O   UNL     1       8.040   7.158  16.243  0.00  0.00    +0.000 OA
BRANCH   8  10
ATOM     10  O   UNL     1       7.935   8.164  18.297  0.00  0.00    +0.000 OA
BRANCH  10  11
ATOM     11  C   UNL     1       8.014   9.491  17.776  0.00  0.00    +0.000 C 
BRANCH  11  17
ATOM     12  C   UNL     1      12.179  15.573  18.719  0.00  0.00    +0.000 C 
ATOM     13  C   UNL     1      11.425  14.309  18.696  0.00  0.00    +0.000 A 
ATOM     14  C   UNL     1      10.499  13.733  17.857  0.00  0.00    +0.000 A 
ATOM     15  C   UNL     1      10.198  12.482  18.458  0.00  0.00    +0.000 A 
ATOM     16  N   UNL     1       9.308  11.554  17.942  0.00  0.00    +0.000 N 
ATOM     17  C   UNL     1       9.028  10.338  18.545  0.00  0.00    +0.000 C 
ATOM     18  O   UNL     1       9.467   9.932  19.616  0.00  0.00    +0.000 OA
ATOM     19  N   UNL     1      10.901  12.330  19.582  0.00  0.00    +0.000 NA
ATOM     20  O   UNL     1      11.668  13.462  19.729  0.00  0.00    +0.000 OA
ATOM     21  H   UNL     1       8.848  11.778  17.068  0.00  0.00    +0.000 HD
ENDBRANCH  11  17
ENDBRANCH  10  11
ENDBRANCH   8  10
ENDBRANCH   1   8
BRANCH   5  22
ATOM     22  C   UNL     1       4.273   3.572  18.052  0.00  0.00    +0.000 C 
BRANCH  22  23
ATOM     23  C   UNL     1       3.260   3.569  19.170  0.00  0.00    +0.000 A 
ATOM     24  C   UNL     1       3.297   2.520  20.109  0.00  0.00    +0.000 A 
ATOM     25  C   UNL     1       2.462   2.524  21.225  0.00  0.00    +0.000 A 
ATOM     26  C   UNL     1       1.563   3.569  21.414  0.00  0.00    +0.000 A 
ATOM     27  C   UNL     1       1.469   4.583  20.463  0.00  0.00    +0.000 A 
ATOM     28  C   UNL     1       2.300   4.579  19.339  0.00  0.00    +0.000 A 
ATOM     29 CL   UNL     1       2.073   5.842  18.184  0.00  0.00    +0.000 Cl
ENDBRANCH  22  23
ENDBRANCH   5  22
TORSDOF 6
ENDMDL
MODEL 5
REMARK VINA RESULT:      -7.7      7.176      9.326
REMARK  Name = 
REMARK  8 active torsions:
REMARK  status: ('A' for Active; 'I' for Inactive)
REMARK    1  A    between atoms: C_1  and  C_2
REMARK    2  A    between atoms: C_6  and  C_8
REMARK    3  A    between atoms: C_8  and  O_9
REMARK    4  A    between atoms: O_9  and  C_10
REMARK    5  A    between atoms: C_10  and  C_12
REMARK    6  A    between atoms: C_13  and  C_14
REMARK    7  A    between atoms: N_16  and  C_17
REMARK    8  A    between atoms: C_17  and  C_18
REMARK                            x       y       z     vdW  Elec       q    Type
REMARK                         _______ _______ _______ _____ _____    ______ ____
ROOT
ATOM      1  C   UNL     1       0.897   9.469  19.770  0.00  0.00    +0.000 A 
ATOM      2  C   UNL     1       0.604   8.833  21.010  0.00  0.00    +0.000 A 
ATOM      3  C   UNL     1      -0.313   9.265  22.099  0.00  0.00    +0.000 C 
ATOM      4  N   UNL     1       1.315   7.708  21.176  0.00  0.00    +0.000 NA
ATOM      5  N   UNL     1       2.012   7.575  20.023  0.00  0.00    +0.000 N 
ATOM      6  C   UNL     1       1.722   8.567  19.134  0.00  0.00    +0.000 A 
ATOM      7 CL   UNL     1       2.351   8.533  17.551  0.00  0.00    +0.000 Cl
ENDROOT
BRANCH   1   8
ATOM      8  C   UNL     1       0.459  10.758  19.279  0.00  0.00    +0.000 C 
ATOM      9  O   UNL     1       1.022  11.808  19.534  0.00  0.00    +0.000 OA
BRANCH   8  10
ATOM     10  O   UNL     1      -0.593  10.627  18.420  0.00  0.00    +0.000 OA
BRANCH  10  11
ATOM     11  C   UNL     1      -1.362  11.798  18.144  0.00  0.00    +0.000 C 
BRANCH  11  17
ATOM     12  C   UNL     1      -4.221  12.769  24.936  0.00  0.00    +0.000 C 
ATOM     13  C   UNL     1      -3.832  12.575  23.529  0.00  0.00    +0.000 A 
ATOM     14  C   UNL     1      -2.644  12.481  22.843  0.00  0.00    +0.000 A 
ATOM     15  C   UNL     1      -3.024  12.289  21.488  0.00  0.00    +0.000 A 
ATOM     16  N   UNL     1      -2.138  12.134  20.434  0.00  0.00    +0.000 N 
ATOM     17  C   UNL     1      -2.530  11.947  19.119  0.00  0.00    +0.000 C 
ATOM     18  O   UNL     1      -3.680  11.944  18.690  0.00  0.00    +0.000 OA
ATOM     19  N   UNL     1      -4.355  12.272  21.382  0.00  0.00    +0.000 NA
ATOM     20  O   UNL     1      -4.858  12.445  22.649  0.00  0.00    +0.000 OA
ATOM     21  H   UNL     1      -1.148  12.147  20.646  0.00  0.00    +0.000 HD
ENDBRANCH  11  17
ENDBRANCH  10  11
ENDBRANCH   8  10
ENDBRANCH   1   8
BRANCH   5  22
ATOM     22  C   UNL     1       3.008   6.511  19.912  0.00  0.00    +0.000 C 
BRANCH  22  23
ATOM     23  C   UNL     1       2.380   5.214  19.467  0.00  0.00    +0.000 A 
ATOM     24  C   UNL     1       1.462   4.581  20.328  0.00  0.00    +0.000 A 
ATOM     25  C   UNL     1       0.765   3.443  19.925  0.00  0.00    +0.000 A 
ATOM     26  C   UNL     1       0.986   2.908  18.660  0.00  0.00    +0.000 A 
ATOM     27  C   UNL     1       1.936   3.484  17.819  0.00  0.00    +0.000 A 
ATOM     28  C   UNL     1       2.641   4.621  18.222  0.00  0.00    +0.000 A 
ATOM     29 CL   UNL     1       3.841   5.231  17.140  0.00  0.00    +0.000 Cl
ENDBRANCH  22  23
ENDBRANCH   5  22
TORSDOF 6
ENDMDL
MODEL 6
REMARK VINA RESULT:      -7.7      4.607      6.848
REMARK  Name = 
REMARK  8 active torsions:
REMARK  status: ('A' for Active; 'I' for Inactive)
REMARK    1  A    between atoms: C_1  and  C_2
REMARK    2  A    between atoms: C_6  and  C_8
REMARK    3  A    between atoms: C_8  and  O_9
REMARK    4  A    between atoms: O_9  and  C_10
REMARK    5  A    between atoms: C_10  and  C_12
REMARK    6  A    between atoms: C_13  and  C_14
REMARK    7  A    between atoms: N_16  and  C_17
REMARK    8  A    between atoms: C_17  and  C_18
REMARK                            x       y       z     vdW  Elec       q    Type
REMARK                         _______ _______ _______ _____ _____    ______ ____
ROOT
ATOM      1  C   UNL     1       1.766   3.929  19.360  0.00  0.00    +0.000 A 
ATOM      2  C   UNL     1       1.830   4.013  20.780  0.00  0.00    +0.000 A 
ATOM      3  C   UNL     1       1.500   2.985  21.803  0.00  0.00    +0.000 C 
ATOM      4  N   UNL     1       2.217   5.230  21.193  0.00  0.00    +0.000 NA
ATOM      5  N   UNL     1       2.470   5.910  20.049  0.00  0.00    +0.000 N 
ATOM      6  C   UNL     1       2.287   5.134  18.943  0.00  0.00    +0.000 A 
ATOM      7 CL   UNL     1       2.694   5.714  17.393  0.00  0.00    +0.000 Cl
ENDROOT
BRANCH   1   8
ATOM      8  C   UNL     1       1.263   2.854  18.531  0.00  0.00    +0.000 C 
ATOM      9  O   UNL     1       0.100   2.495  18.519  0.00  0.00    +0.000 OA
BRANCH   8  10
ATOM     10  O   UNL     1       2.235   2.376  17.701  0.00  0.00    +0.000 OA
BRANCH  10  11
ATOM     11  C   UNL     1       3.449   1.929  18.304  0.00  0.00    +0.000 C 
BRANCH  11  17
ATOM     12  C   UNL     1       7.845   5.372  13.400  0.00  0.00    +0.000 C 
ATOM     13  C   UNL     1       7.079   4.772  14.505  0.00  0.00    +0.000 A 
ATOM     14  C   UNL     1       5.977   3.955  14.605  0.00  0.00    +0.000 A 
ATOM     15  C   UNL     1       5.792   3.769  16.001  0.00  0.00    +0.000 A 
ATOM     16  N   UNL     1       4.790   2.998  16.567  0.00  0.00    +0.000 N 
ATOM     17  C   UNL     1       4.627   2.829  17.933  0.00  0.00    +0.000 C 
ATOM     18  O   UNL     1       5.287   3.359  18.821  0.00  0.00    +0.000 OA
ATOM     19  N   UNL     1       6.727   4.435  16.682  0.00  0.00    +0.000 NA
ATOM     20  O   UNL     1       7.530   5.055  15.754  0.00  0.00    +0.000 OA
ATOM     21  H   UNL     1       4.149   2.525  15.942  0.00  0.00    +0.000 HD
ENDBRANCH  11  17
ENDBRANCH  10  11
ENDBRANCH   8  10
ENDBRANCH   1   8
BRANCH   5  22
ATOM     22  C   UNL     1       2.789   7.335  20.124  0.00  0.00    +0.000 C 
BRANCH  22  23
ATOM     23  C   UNL     1       1.539   8.171  20.245  0.00  0.00    +0.000 A 
ATOM     24  C   UNL     1       0.762   8.054  21.414  0.00  0.00    +0.000 A 
ATOM     25  C   UNL     1      -0.338   8.882  21.633  0.00  0.00    +0.000 A 
ATOM     26  C   UNL     1      -0.690   9.831  20.679  0.00  0.00    +0.000 A 
ATOM     27  C   UNL     1       0.030   9.919  19.488  0.00  0.00    +0.000 A 
ATOM     28  C   UNL     1       1.129   9.086  19.263  0.00  0.00    +0.000 A 
ATOM     29 CL   UNL     1       1.924   9.223  17.736  0.00  0.00    +0.000 Cl
ENDBRANCH  22  23
ENDBRANCH   5  22
TORSDOF 6
ENDMDL
MODEL 7
REMARK VINA RESULT:      -7.7      4.957      7.414
REMARK  Name = 
REMARK  8 active torsions:
REMARK  status: ('A' for Active; 'I' for Inactive)
REMARK    1  A    between atoms: C_1  and  C_2
REMARK    2  A    between atoms: C_6  and  C_8
REMARK    3  A    between atoms: C_8  and  O_9
REMARK    4  A    between atoms: O_9  and  C_10
REMARK    5  A    between atoms: C_10  and  C_12
REMARK    6  A    between atoms: C_13  and  C_14
REMARK    7  A    between atoms: N_16  and  C_17
REMARK    8  A    between atoms: C_17  and  C_18
REMARK                            x       y       z     vdW  Elec       q    Type
REMARK                         _______ _______ _______ _____ _____    ______ ____
ROOT
ATOM      1  C   UNL     1       1.859   7.594  19.608  0.00  0.00    +0.000 A 
ATOM      2  C   UNL     1       2.307   8.232  18.415  0.00  0.00    +0.000 A 
ATOM      3  C   UNL     1       3.195   7.712  17.343  0.00  0.00    +0.000 C 
ATOM      4  N   UNL     1       1.857   9.493  18.323  0.00  0.00    +0.000 NA
ATOM      5  N   UNL     1       1.066   9.650  19.411  0.00  0.00    +0.000 N 
ATOM      6  C   UNL     1       0.985   8.509  20.152  0.00  0.00    +0.000 A 
ATOM      7 CL   UNL     1      -0.075   8.405  21.483  0.00  0.00    +0.000 Cl
ENDROOT
BRANCH   1   8
ATOM      8  C   UNL     1       2.231   6.303  20.147  0.00  0.00    +0.000 C 
ATOM      9  O   UNL     1       1.442   5.527  20.654  0.00  0.00    +0.000 OA
BRANCH   8  10
ATOM     10  O   UNL     1       3.550   6.036  19.919  0.00  0.00    +0.000 OA
BRANCH  10  11
ATOM     11  C   UNL     1       3.894   4.695  19.573  0.00  0.00    +0.000 C 
BRANCH  11  17
ATOM     12  C   UNL     1       7.444   4.907  13.047  0.00  0.00    +0.000 C 
ATOM     13  C   UNL     1       6.911   4.845  14.418  0.00  0.00    +0.000 A 
ATOM     14  C   UNL     1       5.664   4.938  14.991  0.00  0.00    +0.000 A 
ATOM     15  C   UNL     1       5.896   4.781  16.383  0.00  0.00    +0.000 A 
ATOM     16  N   UNL     1       4.907   4.797  17.354  0.00  0.00    +0.000 N 
ATOM     17  C   UNL     1       5.154   4.642  18.709  0.00  0.00    +0.000 C 
ATOM     18  O   UNL     1       6.251   4.524  19.245  0.00  0.00    +0.000 OA
ATOM     19  N   UNL     1       7.198   4.607  16.617  0.00  0.00    +0.000 NA
ATOM     20  O   UNL     1       7.830   4.642  15.396  0.00  0.00    +0.000 OA
ATOM     21  H   UNL     1       3.949   4.919  17.048  0.00  0.00    +0.000 HD
ENDBRANCH  11  17
ENDBRANCH  10  11
ENDBRANCH   8  10
ENDBRANCH   1   8
BRANCH   5  22
ATOM     22  C   UNL     1       0.511  10.971  19.703  0.00  0.00    +0.000 C 
BRANCH  22  23
ATOM     23  C   UNL     1      -0.879  11.120  19.137  0.00  0.00    +0.000 A 
ATOM     24  C   UNL     1      -1.247  10.322  18.035  0.00  0.00    +0.000 A 
ATOM     25  C   UNL     1      -2.550  10.334  17.542  0.00  0.00    +0.000 A 
ATOM     26  C   UNL     1      -3.506  11.155  18.130  0.00  0.00    +0.000 A 
ATOM     27  C   UNL     1      -3.145  11.997  19.180  0.00  0.00    +0.000 A 
ATOM     28  C   UNL     1      -1.837  11.994  19.673  0.00  0.00    +0.000 A 
ATOM     29 CL   UNL     1      -1.466  13.112  20.936  0.00  0.00    +0.000 Cl
ENDBRANCH  22  23
ENDBRANCH   5  22
TORSDOF 6
ENDMDL
MODEL 8
REMARK VINA RESULT:      -7.6      4.365      6.812
REMARK  Name = 
REMARK  8 active torsions:
REMARK  status: ('A' for Active; 'I' for Inactive)
REMARK    1  A    between atoms: C_1  and  C_2
REMARK    2  A    between atoms: C_6  and  C_8
REMARK    3  A    between atoms: C_8  and  O_9
REMARK    4  A    between atoms: O_9  and  C_10
REMARK    5  A    between atoms: C_10  and  C_12
REMARK    6  A    between atoms: C_13  and  C_14
REMARK    7  A    between atoms: N_16  and  C_17
REMARK    8  A    between atoms: C_17  and  C_18
REMARK                            x       y       z     vdW  Elec       q    Type
REMARK                         _______ _______ _______ _____ _____    ______ ____
ROOT
ATOM      1  C   UNL     1       2.889   6.451  18.714  0.00  0.00    +0.000 A 
ATOM      2  C   UNL     1       3.177   7.464  17.755  0.00  0.00    +0.000 A 
ATOM      3  C   UNL     1       3.982   7.383  16.508  0.00  0.00    +0.000 C 
ATOM      4  N   UNL     1       2.649   8.648  18.104  0.00  0.00    +0.000 NA
ATOM      5  N   UNL     1       1.963   8.389  19.243  0.00  0.00    +0.000 N 
ATOM      6  C   UNL     1       2.023   7.071  19.586  0.00  0.00    +0.000 A 
ATOM      7 CL   UNL     1       1.110   6.467  20.892  0.00  0.00    +0.000 Cl
ENDROOT
BRANCH   1   8
ATOM      8  C   UNL     1       3.388   5.094  18.784  0.00  0.00    +0.000 C 
ATOM      9  O   UNL     1       2.976   4.183  18.089  0.00  0.00    +0.000 OA
BRANCH   8  10
ATOM     10  O   UNL     1       4.438   4.999  19.650  0.00  0.00    +0.000 OA
BRANCH  10  11
ATOM     11  C   UNL     1       5.532   4.168  19.262  0.00  0.00    +0.000 C 
BRANCH  11  17
ATOM     12  C   UNL     1       7.222   4.429  12.029  0.00  0.00    +0.000 C 
ATOM     13  C   UNL     1       7.005   4.523  13.483  0.00  0.00    +0.000 A 
ATOM     14  C   UNL     1       6.222   3.865  14.403  0.00  0.00    +0.000 A 
ATOM     15  C   UNL     1       6.527   4.485  15.644  0.00  0.00    +0.000 A 
ATOM     16  N   UNL     1       5.969   4.129  16.861  0.00  0.00    +0.000 N 
ATOM     17  C   UNL     1       6.280   4.746  18.062  0.00  0.00    +0.000 C 
ATOM     18  O   UNL     1       7.031   5.704  18.220  0.00  0.00    +0.000 OA
ATOM     19  N   UNL     1       7.433   5.449  15.466  0.00  0.00    +0.000 NA
ATOM     20  O   UNL     1       7.734   5.472  14.125  0.00  0.00    +0.000 OA
ATOM     21  H   UNL     1       5.304   3.365  16.869  0.00  0.00    +0.000 HD
ENDBRANCH  11  17
ENDBRANCH  10  11
ENDBRANCH   8  10
ENDBRANCH   1   8
BRANCH   5  22
ATOM     22  C   UNL     1       1.364   9.500  19.981  0.00  0.00    +0.000 C 
BRANCH  22  23
ATOM     23  C   UNL     1       0.388  10.266  19.124  0.00  0.00    +0.000 A 
ATOM     24  C   UNL     1      -0.556   9.543  18.368  0.00  0.00    +0.000 A 
ATOM     25  C   UNL     1      -1.554  10.198  17.648  0.00  0.00    +0.000 A 
ATOM     26  C   UNL     1      -1.617  11.587  17.658  0.00  0.00    +0.000 A 
ATOM     27  C   UNL     1      -0.655  12.320  18.350  0.00  0.00    +0.000 A 
ATOM     28  C   UNL     1       0.352  11.668  19.067  0.00  0.00    +0.000 A 
ATOM     29 CL   UNL     1       1.535  12.656  19.845  0.00  0.00    +0.000 Cl
ENDBRANCH  22  23
ENDBRANCH   5  22
TORSDOF 6
ENDMDL
MODEL 9
REMARK VINA RESULT:      -7.5      5.551      8.320
REMARK  Name = 
REMARK  8 active torsions:
REMARK  status: ('A' for Active; 'I' for Inactive)
REMARK    1  A    between atoms: C_1  and  C_2
REMARK    2  A    between atoms: C_6  and  C_8
REMARK    3  A    between atoms: C_8  and  O_9
REMARK    4  A    between atoms: O_9  and  C_10
REMARK    5  A    between atoms: C_10  and  C_12
REMARK    6  A    between atoms: C_13  and  C_14
REMARK    7  A    between atoms: N_16  and  C_17
REMARK    8  A    between atoms: C_17  and  C_18
REMARK                            x       y       z     vdW  Elec       q    Type
REMARK                         _______ _______ _______ _____ _____    ______ ____
ROOT
ATOM      1  C   UNL     1       1.791   7.702  19.808  0.00  0.00    +0.000 A 
ATOM      2  C   UNL     1       2.264   8.268  18.589  0.00  0.00    +0.000 A 
ATOM      3  C   UNL     1       2.081   9.643  18.052  0.00  0.00    +0.000 C 
ATOM      4  N   UNL     1       2.934   7.372  17.848  0.00  0.00    +0.000 NA
ATOM      5  N   UNL     1       2.956   6.253  18.610  0.00  0.00    +0.000 N 
ATOM      6  C   UNL     1       2.352   6.445  19.817  0.00  0.00    +0.000 A 
ATOM      7 CL   UNL     1       2.390   5.233  21.015  0.00  0.00    +0.000 Cl
ENDROOT
BRANCH   1   8
ATOM      8  C   UNL     1       0.916   8.283  20.804  0.00  0.00    +0.000 C 
ATOM      9  O   UNL     1      -0.043   7.706  21.283  0.00  0.00    +0.000 OA
BRANCH   8  10
ATOM     10  O   UNL     1       1.369   9.507  21.204  0.00  0.00    +0.000 OA
BRANCH  10  11
ATOM     11  C   UNL     1       0.388  10.492  21.530  0.00  0.00    +0.000 C 
BRANCH  11  17
ATOM     12  C   UNL     1      -3.635  10.351  15.282  0.00  0.00    +0.000 C 
ATOM     13  C   UNL     1      -2.807  10.561  16.483  0.00  0.00    +0.000 A 
ATOM     14  C   UNL     1      -2.404   9.785  17.545  0.00  0.00    +0.000 A 
ATOM     15  C   UNL     1      -1.604  10.650  18.338  0.00  0.00    +0.000 A 
ATOM     16  N   UNL     1      -0.975  10.281  19.517  0.00  0.00    +0.000 N 
ATOM     17  C   UNL     1      -0.198  11.140  20.277  0.00  0.00    +0.000 C 
ATOM     18  O   UNL     1       0.002  12.331  20.062  0.00  0.00    +0.000 OA
ATOM     19  N   UNL     1      -1.541  11.861  17.780  0.00  0.00    +0.000 NA
ATOM     20  O   UNL     1      -2.285  11.806  16.625  0.00  0.00    +0.000 OA
ATOM     21  H   UNL     1      -1.084   9.324  19.829  0.00  0.00    +0.000 HD
ENDBRANCH  11  17
ENDBRANCH  10  11
ENDBRANCH   8  10
ENDBRANCH   1   8
BRANCH   5  22
ATOM     22  C   UNL     1       3.497   5.018  18.045  0.00  0.00    +0.000 C 
BRANCH  22  23
ATOM     23  C   UNL     1       5.005   5.045  18.008  0.00  0.00    +0.000 A 
ATOM     24  C   UNL     1       5.701   5.413  19.176  0.00  0.00    +0.000 A 
ATOM     25  C   UNL     1       7.092   5.347  19.236  0.00  0.00    +0.000 A 
ATOM     26  C   UNL     1       7.813   4.928  18.123  0.00  0.00    +0.000 A 
ATOM     27  C   UNL     1       7.146   4.619  16.939  0.00  0.00    +0.000 A 
ATOM     28  C   UNL     1       5.752   4.691  16.873  0.00  0.00    +0.000 A 
ATOM     29 CL   UNL     1       5.015   4.349  15.349  0.00  0.00    +0.000 Cl
ENDBRANCH  22  23
ENDBRANCH   5  22
TORSDOF 6
ENDMDL
