MODEL 1
REMARK VINA RESULT:      -7.7      0.000      0.000
REMARK  Name = 
REMARK  8 active torsions:
REMARK  status: ('A' for Active; 'I' for Inactive)
REMARK    1  A    between atoms: C_1  and  N_2
REMARK    2  A    between atoms: N_2  and  C_3
REMARK    3  A    between atoms: N_2  and  C_4
REMARK    4  A    between atoms: C_7  and  C_8
REMARK    5  A    between atoms: C_8  and  C_10
REMARK    6  A    between atoms: C_13  and  N_14
REMARK    7  A    between atoms: N_14  and  C_15
REMARK    8  A    between atoms: N_14  and  C_16
REMARK                            x       y       z     vdW  Elec       q    Type
REMARK                         _______ _______ _______ _____ _____    ______ ____
ROOT
ATOM      1  C   UNL     1       3.036   6.477  18.121  0.00  0.00    +0.000 A 
ATOM      2  C   UNL     1       2.013   5.571  18.552  0.00  0.00    +0.000 A 
ATOM      3  C   UNL     1       2.354   4.298  18.988  0.00  0.00    +0.000 A 
ATOM      4  C   UNL     1       3.704   3.879  18.917  0.00  0.00    +0.000 A 
ATOM      5  C   UNL     1       4.707   4.875  18.510  0.00  0.00    +0.000 A 
ATOM      6  C   UNL     1       6.045   4.747  18.857  0.00  0.00    +0.000 A 
ATOM      7  C   UNL     1       7.077   5.632  18.486  0.00  0.00    +0.000 A 
ATOM      8  C   UNL     1       7.033   6.423  17.376  0.00  0.00    +0.000 A 
ATOM      9  C   UNL     1       5.734   6.844  17.456  0.00  0.00    +0.000 A 
ATOM     10  C   UNL     1       4.448   6.131  17.977  0.00  0.00    +0.000 A 
ENDROOT
BRANCH   4  11
ATOM     11  N   UNL     1       4.050   2.530  19.152  0.00  0.00    +0.000 N 
ATOM     12  C   UNL     1       4.499   2.006  20.452  0.00  0.00    +0.000 C 
ATOM     13  C   UNL     1       3.703   1.420  18.233  0.00  0.00    +0.000 C 
ENDBRANCH   4  11
BRANCH   1  14
ATOM     14  C   UNL     1       2.551   7.862  17.870  0.00  0.00    +0.000 C 
ATOM     15  O   UNL     1       2.839   8.441  16.830  0.00  0.00    +0.000 OA
BRANCH  14  19
ATOM     16  C   UNL     1       0.269   9.821  20.948  0.00  0.00    +0.000 A 
ATOM     17  C   UNL     1       1.003   8.656  21.213  0.00  0.00    +0.000 A 
ATOM     18  C   UNL     1       1.826   8.062  20.253  0.00  0.00    +0.000 A 
ATOM     19  C   UNL     1       1.818   8.561  18.956  0.00  0.00    +0.000 A 
ATOM     20  C   UNL     1       1.048   9.686  18.663  0.00  0.00    +0.000 A 
ATOM     21  C   UNL     1       0.304  10.318  19.646  0.00  0.00    +0.000 A 
BRANCH  16  23
ATOM     22  C   UNL     1      -1.077  11.741  21.683  0.00  0.00    +0.000 C 
ATOM     23  N   UNL     1      -0.434  10.468  21.945  0.00  0.00    +0.000 N 
ATOM     24  C   UNL     1      -0.536   9.857  23.258  0.00  0.00    +0.000 C 
ENDBRANCH  16  23
ENDBRANCH  14  19
ENDBRANCH   1  14
TORSDOF 4
ENDMDL
MODEL 2
REMARK VINA RESULT:      -7.7      0.126      1.223
REMARK  Name = 
REMARK  8 active torsions:
REMARK  status: ('A' for Active; 'I' for Inactive)
REMARK    1  A    between atoms: C_1  and  N_2
REMARK    2  A    between atoms: N_2  and  C_3
REMARK    3  A    between atoms: N_2  and  C_4
REMARK    4  A    between atoms: C_7  and  C_8
REMARK    5  A    between atoms: C_8  and  C_10
REMARK    6  A    between atoms: C_13  and  N_14
REMARK    7  A    between atoms: N_14  and  C_15
REMARK    8  A    between atoms: N_14  and  C_16
REMARK                            x       y       z     vdW  Elec       q    Type
REMARK                         _______ _______ _______ _____ _____    ______ ____
ROOT
ATOM      1  C   UNL     1       3.025   6.581  18.082  0.00  0.00    +0.000 A 
ATOM      2  C   UNL     1       1.998   5.677  18.510  0.00  0.00    +0.000 A 
ATOM      3  C   UNL     1       2.333   4.395  18.925  0.00  0.00    +0.000 A 
ATOM      4  C   UNL     1       3.677   3.966  18.834  0.00  0.00    +0.000 A 
ATOM      5  C   UNL     1       4.686   4.958  18.432  0.00  0.00    +0.000 A 
ATOM      6  C   UNL     1       6.026   4.814  18.764  0.00  0.00    +0.000 A 
ATOM      7  C   UNL     1       7.062   5.696  18.396  0.00  0.00    +0.000 A 
ATOM      8  C   UNL     1       7.015   6.502  17.298  0.00  0.00    +0.000 A 
ATOM      9  C   UNL     1       5.720   6.933  17.397  0.00  0.00    +0.000 A 
ATOM     10  C   UNL     1       4.433   6.224  17.920  0.00  0.00    +0.000 A 
ENDROOT
BRANCH   4  11
ATOM     11  N   UNL     1       4.014   2.611  19.047  0.00  0.00    +0.000 N 
ATOM     12  C   UNL     1       4.472   2.064  20.334  0.00  0.00    +0.000 C 
ATOM     13  C   UNL     1       3.647   1.517  18.116  0.00  0.00    +0.000 C 
ENDBRANCH   4  11
BRANCH   1  14
ATOM     14  C   UNL     1       2.550   7.973  17.856  0.00  0.00    +0.000 C 
ATOM     15  O   UNL     1       2.930   8.607  16.880  0.00  0.00    +0.000 OA
BRANCH  14  19
ATOM     16  C   UNL     1       0.259   9.901  20.947  0.00  0.00    +0.000 A 
ATOM     17  C   UNL     1       0.223  10.355  19.621  0.00  0.00    +0.000 A 
ATOM     18  C   UNL     1       0.882   9.685  18.588  0.00  0.00    +0.000 A 
ATOM     19  C   UNL     1       1.707   8.610  18.900  0.00  0.00    +0.000 A 
ATOM     20  C   UNL     1       1.797   8.182  20.224  0.00  0.00    +0.000 A 
ATOM     21  C   UNL     1       1.070   8.802  21.226  0.00  0.00    +0.000 A 
BRANCH  16  23
ATOM     22  C   UNL     1      -0.600   9.904  23.249  0.00  0.00    +0.000 C 
ATOM     23  N   UNL     1      -0.504  10.499  21.930  0.00  0.00    +0.000 N 
ATOM     24  C   UNL     1      -1.202  11.739  21.638  0.00  0.00    +0.000 C 
ENDBRANCH  16  23
ENDBRANCH  14  19
ENDBRANCH   1  14
TORSDOF 4
ENDMDL
MODEL 3
REMARK VINA RESULT:      -7.3      3.224      8.736
REMARK  Name = 
REMARK  8 active torsions:
REMARK  status: ('A' for Active; 'I' for Inactive)
REMARK    1  A    between atoms: C_1  and  N_2
REMARK    2  A    between atoms: N_2  and  C_3
REMARK    3  A    between atoms: N_2  and  C_4
REMARK    4  A    between atoms: C_7  and  C_8
REMARK    5  A    between atoms: C_8  and  C_10
REMARK    6  A    between atoms: C_13  and  N_14
REMARK    7  A    between atoms: N_14  and  C_15
REMARK    8  A    between atoms: N_14  and  C_16
REMARK                            x       y       z     vdW  Elec       q    Type
REMARK                         _______ _______ _______ _____ _____    ______ ____
ROOT
ATOM      1  C   UNL     1      -1.097  11.098  18.703  0.00  0.00    +0.000 A 
ATOM      2  C   UNL     1      -1.638  10.586  17.479  0.00  0.00    +0.000 A 
ATOM      3  C   UNL     1      -2.979  10.785  17.178  0.00  0.00    +0.000 A 
ATOM      4  C   UNL     1      -3.816  11.416  18.128  0.00  0.00    +0.000 A 
ATOM      5  C   UNL     1      -3.186  11.959  19.341  0.00  0.00    +0.000 A 
ATOM      6  C   UNL     1      -3.774  12.979  20.076  0.00  0.00    +0.000 A 
ATOM      7  C   UNL     1      -3.260  13.537  21.263  0.00  0.00    +0.000 A 
ATOM      8  C   UNL     1      -2.427  12.872  22.112  0.00  0.00    +0.000 A 
ATOM      9  C   UNL     1      -1.604  12.278  21.195  0.00  0.00    +0.000 A 
ATOM     10  C   UNL     1      -1.882  11.730  19.761  0.00  0.00    +0.000 A 
ENDROOT
BRANCH   4  11
ATOM     11  N   UNL     1      -5.217  11.445  17.942  0.00  0.00    +0.000 N 
ATOM     12  C   UNL     1      -6.172  10.651  18.731  0.00  0.00    +0.000 C 
ATOM     13  C   UNL     1      -5.922  12.496  17.172  0.00  0.00    +0.000 C 
ENDBRANCH   4  11
BRANCH   1  14
ATOM     14  C   UNL     1       0.384  10.985  18.804  0.00  0.00    +0.000 C 
ATOM     15  O   UNL     1       1.096  11.956  18.580  0.00  0.00    +0.000 OA
BRANCH  14  19
ATOM     16  C   UNL     1       2.262   7.186  19.550  0.00  0.00    +0.000 A 
ATOM     17  C   UNL     1       1.576   7.873  20.562  0.00  0.00    +0.000 A 
ATOM     18  C   UNL     1       0.879   9.058  20.315  0.00  0.00    +0.000 A 
ATOM     19  C   UNL     1       0.975   9.647  19.060  0.00  0.00    +0.000 A 
ATOM     20  C   UNL     1       1.701   9.003  18.059  0.00  0.00    +0.000 A 
ATOM     21  C   UNL     1       2.315   7.785  18.293  0.00  0.00    +0.000 A 
BRANCH  16  23
ATOM     22  C   UNL     1       4.080   5.585  19.139  0.00  0.00    +0.000 C 
ATOM     23  N   UNL     1       2.834   5.951  19.783  0.00  0.00    +0.000 N 
ATOM     24  C   UNL     1       2.182   5.022  20.689  0.00  0.00    +0.000 C 
ENDBRANCH  16  23
ENDBRANCH  14  19
ENDBRANCH   1  14
TORSDOF 4
ENDMDL
MODEL 4
REMARK VINA RESULT:      -7.2      3.181      8.767
REMARK  Name = 
REMARK  8 active torsions:
REMARK  status: ('A' for Active; 'I' for Inactive)
REMARK    1  A    between atoms: C_1  and  N_2
REMARK    2  A    between atoms: N_2  and  C_3
REMARK    3  A    between atoms: N_2  and  C_4
REMARK    4  A    between atoms: C_7  and  C_8
REMARK    5  A    between atoms: C_8  and  C_10
REMARK    6  A    between atoms: C_13  and  N_14
REMARK    7  A    between atoms: N_14  and  C_15
REMARK    8  A    between atoms: N_14  and  C_16
REMARK                            x       y       z     vdW  Elec       q    Type
REMARK                         _______ _______ _______ _____ _____    ______ ____
ROOT
ATOM      1  C   UNL     1      -1.005  11.299  18.771  0.00  0.00    +0.000 A 
ATOM      2  C   UNL     1      -1.564  10.881  17.520  0.00  0.00    +0.000 A 
ATOM      3  C   UNL     1      -2.917  11.069  17.269  0.00  0.00    +0.000 A 
ATOM      4  C   UNL     1      -3.745  11.592  18.289  0.00  0.00    +0.000 A 
ATOM      5  C   UNL     1      -3.098  12.044  19.531  0.00  0.00    +0.000 A 
ATOM      6  C   UNL     1      -3.692  12.980  20.365  0.00  0.00    +0.000 A 
ATOM      7  C   UNL     1      -3.162  13.447  21.585  0.00  0.00    +0.000 A 
ATOM      8  C   UNL     1      -2.291  12.733  22.353  0.00  0.00    +0.000 A 
ATOM      9  C   UNL     1      -1.477  12.243  21.368  0.00  0.00    +0.000 A 
ATOM     10  C   UNL     1      -1.778  11.815  19.899  0.00  0.00    +0.000 A 
ENDROOT
BRANCH   4  11
ATOM     11  N   UNL     1      -5.150  11.599  18.140  0.00  0.00    +0.000 N 
ATOM     12  C   UNL     1      -5.876  12.456  17.190  0.00  0.00    +0.000 C 
ATOM     13  C   UNL     1      -6.038  10.537  18.671  0.00  0.00    +0.000 C 
ENDBRANCH   4  11
BRANCH   1  14
ATOM     14  C   UNL     1       0.481  11.218  18.827  0.00  0.00    +0.000 C 
ATOM     15  O   UNL     1       1.165  12.202  18.577  0.00  0.00    +0.000 OA
BRANCH  14  19
ATOM     16  C   UNL     1       2.127   7.305  19.533  0.00  0.00    +0.000 A 
ATOM     17  C   UNL     1       2.222   7.921  18.277  0.00  0.00    +0.000 A 
ATOM     18  C   UNL     1       1.781   9.228  18.055  0.00  0.00    +0.000 A 
ATOM     19  C   UNL     1       1.107   9.894  19.072  0.00  0.00    +0.000 A 
ATOM     20  C   UNL     1       0.955   9.270  20.310  0.00  0.00    +0.000 A 
ATOM     21  C   UNL     1       1.474   8.008  20.544  0.00  0.00    +0.000 A 
BRANCH  16  23
ATOM     22  C   UNL     1       2.042   5.125  20.663  0.00  0.00    +0.000 C 
ATOM     23  N   UNL     1       2.687   6.065  19.767  0.00  0.00    +0.000 N 
ATOM     24  C   UNL     1       3.923   5.701  19.097  0.00  0.00    +0.000 C 
ENDBRANCH  16  23
ENDBRANCH  14  19
ENDBRANCH   1  14
TORSDOF 4
ENDMDL
MODEL 5
REMARK VINA RESULT:      -7.2      3.247      8.857
REMARK  Name = 
REMARK  8 active torsions:
REMARK  status: ('A' for Active; 'I' for Inactive)
REMARK    1  A    between atoms: C_1  and  N_2
REMARK    2  A    between atoms: N_2  and  C_3
REMARK    3  A    between atoms: N_2  and  C_4
REMARK    4  A    between atoms: C_7  and  C_8
REMARK    5  A    between atoms: C_8  and  C_10
REMARK    6  A    between atoms: C_13  and  N_14
REMARK    7  A    between atoms: N_14  and  C_15
REMARK    8  A    between atoms: N_14  and  C_16
REMARK                            x       y       z     vdW  Elec       q    Type
REMARK                         _______ _______ _______ _____ _____    ______ ____
ROOT
ATOM      1  C   UNL     1      -1.142  11.309  18.808  0.00  0.00    +0.000 A 
ATOM      2  C   UNL     1      -1.686  10.853  17.564  0.00  0.00    +0.000 A 
ATOM      3  C   UNL     1      -3.032  11.049  17.284  0.00  0.00    +0.000 A 
ATOM      4  C   UNL     1      -3.870  11.618  18.271  0.00  0.00    +0.000 A 
ATOM      5  C   UNL     1      -3.237  12.107  19.506  0.00  0.00    +0.000 A 
ATOM      6  C   UNL     1      -3.833  13.079  20.297  0.00  0.00    +0.000 A 
ATOM      7  C   UNL     1      -3.316  13.583  21.507  0.00  0.00    +0.000 A 
ATOM      8  C   UNL     1      -2.467  12.886  22.315  0.00  0.00    +0.000 A 
ATOM      9  C   UNL     1      -1.644  12.352  21.362  0.00  0.00    +0.000 A 
ATOM     10  C   UNL     1      -1.927  11.874  19.904  0.00  0.00    +0.000 A 
ENDROOT
BRANCH   4  11
ATOM     11  N   UNL     1      -5.272  11.637  18.098  0.00  0.00    +0.000 N 
ATOM     12  C   UNL     1      -5.975  12.496  17.132  0.00  0.00    +0.000 C 
ATOM     13  C   UNL     1      -6.178  10.587  18.619  0.00  0.00    +0.000 C 
ENDBRANCH   4  11
BRANCH   1  14
ATOM     14  C   UNL     1       0.342  11.212  18.892  0.00  0.00    +0.000 C 
ATOM     15  O   UNL     1       1.037  12.208  18.744  0.00  0.00    +0.000 OA
BRANCH  14  19
ATOM     16  C   UNL     1       2.283   7.393  19.302  0.00  0.00    +0.000 A 
ATOM     17  C   UNL     1       1.669   8.021  20.395  0.00  0.00    +0.000 A 
ATOM     18  C   UNL     1       0.951   9.212  20.261  0.00  0.00    +0.000 A 
ATOM     19  C   UNL     1       0.954   9.866  19.035  0.00  0.00    +0.000 A 
ATOM     20  C   UNL     1       1.609   9.281  17.952  0.00  0.00    +0.000 A 
ATOM     21  C   UNL     1       2.243   8.057  18.077  0.00  0.00    +0.000 A 
BRANCH  16  23
ATOM     22  C   UNL     1       2.388   5.203  20.411  0.00  0.00    +0.000 C 
ATOM     23  N   UNL     1       2.874   6.152  19.428  0.00  0.00    +0.000 N 
ATOM     24  C   UNL     1       3.983   5.797  18.560  0.00  0.00    +0.000 C 
ENDBRANCH  16  23
ENDBRANCH  14  19
ENDBRANCH   1  14
TORSDOF 4
ENDMDL
MODEL 6
REMARK VINA RESULT:      -7.1      2.174      3.767
REMARK  Name = 
REMARK  8 active torsions:
REMARK  status: ('A' for Active; 'I' for Inactive)
REMARK    1  A    between atoms: C_1  and  N_2
REMARK    2  A    between atoms: N_2  and  C_3
REMARK    3  A    between atoms: N_2  and  C_4
REMARK    4  A    between atoms: C_7  and  C_8
REMARK    5  A    between atoms: C_8  and  C_10
REMARK    6  A    between atoms: C_13  and  N_14
REMARK    7  A    between atoms: N_14  and  C_15
REMARK    8  A    between atoms: N_14  and  C_16
REMARK                            x       y       z     vdW  Elec       q    Type
REMARK                         _______ _______ _______ _____ _____    ______ ____
ROOT
ATOM      1  C   UNL     1       3.060   6.104  18.924  0.00  0.00    +0.000 A 
ATOM      2  C   UNL     1       3.938   7.001  18.234  0.00  0.00    +0.000 A 
ATOM      3  C   UNL     1       4.732   6.532  17.196  0.00  0.00    +0.000 A 
ATOM      4  C   UNL     1       4.729   5.150  16.891  0.00  0.00    +0.000 A 
ATOM      5  C   UNL     1       3.769   4.295  17.605  0.00  0.00    +0.000 A 
ATOM      6  C   UNL     1       3.338   3.084  17.081  0.00  0.00    +0.000 A 
ATOM      7  C   UNL     1       2.448   2.189  17.707  0.00  0.00    +0.000 A 
ATOM      8  C   UNL     1       2.274   2.116  19.058  0.00  0.00    +0.000 A 
ATOM      9  C   UNL     1       2.257   3.452  19.351  0.00  0.00    +0.000 A 
ATOM     10  C   UNL     1       3.008   4.659  18.709  0.00  0.00    +0.000 A 
ENDROOT
BRANCH   4  11
ATOM     11  N   UNL     1       5.673   4.612  15.988  0.00  0.00    +0.000 N 
ATOM     12  C   UNL     1       5.481   4.546  14.531  0.00  0.00    +0.000 C 
ATOM     13  C   UNL     1       7.089   4.349  16.341  0.00  0.00    +0.000 C 
ENDBRANCH   4  11
BRANCH   1  14
ATOM     14  C   UNL     1       2.132   6.777  19.873  0.00  0.00    +0.000 C 
ATOM     15  O   UNL     1       1.653   6.158  20.815  0.00  0.00    +0.000 OA
BRANCH  14  19
ATOM     16  C   UNL     1       0.757  10.747  18.944  0.00  0.00    +0.000 A 
ATOM     17  C   UNL     1       0.669  10.230  20.244  0.00  0.00    +0.000 A 
ATOM     18  C   UNL     1       1.198   8.983  20.585  0.00  0.00    +0.000 A 
ATOM     19  C   UNL     1       1.710   8.170  19.580  0.00  0.00    +0.000 A 
ATOM     20  C   UNL     1       1.751   8.649  18.271  0.00  0.00    +0.000 A 
ATOM     21  C   UNL     1       1.303   9.922  17.962  0.00  0.00    +0.000 A 
BRANCH  16  23
ATOM     22  C   UNL     1       1.303  13.124  18.649  0.00  0.00    +0.000 C 
ATOM     23  N   UNL     1       0.348  12.034  18.655  0.00  0.00    +0.000 N 
ATOM     24  C   UNL     1      -1.048  12.287  18.346  0.00  0.00    +0.000 C 
ENDBRANCH  16  23
ENDBRANCH  14  19
ENDBRANCH   1  14
TORSDOF 4
ENDMDL
MODEL 7
REMARK VINA RESULT:      -7.1      2.204      3.846
REMARK  Name = 
REMARK  8 active torsions:
REMARK  status: ('A' for Active; 'I' for Inactive)
REMARK    1  A    between atoms: C_1  and  N_2
REMARK    2  A    between atoms: N_2  and  C_3
REMARK    3  A    between atoms: N_2  and  C_4
REMARK    4  A    between atoms: C_7  and  C_8
REMARK    5  A    between atoms: C_8  and  C_10
REMARK    6  A    between atoms: C_13  and  N_14
REMARK    7  A    between atoms: N_14  and  C_15
REMARK    8  A    between atoms: N_14  and  C_16
REMARK                            x       y       z     vdW  Elec       q    Type
REMARK                         _______ _______ _______ _____ _____    ______ ____
ROOT
ATOM      1  C   UNL     1       3.066   6.126  18.873  0.00  0.00    +0.000 A 
ATOM      2  C   UNL     1       3.958   7.011  18.183  0.00  0.00    +0.000 A 
ATOM      3  C   UNL     1       4.748   6.530  17.148  0.00  0.00    +0.000 A 
ATOM      4  C   UNL     1       4.728   5.148  16.846  0.00  0.00    +0.000 A 
ATOM      5  C   UNL     1       3.756   4.306  17.560  0.00  0.00    +0.000 A 
ATOM      6  C   UNL     1       3.311   3.100  17.036  0.00  0.00    +0.000 A 
ATOM      7  C   UNL     1       2.409   2.217  17.662  0.00  0.00    +0.000 A 
ATOM      8  C   UNL     1       2.230   2.149  19.012  0.00  0.00    +0.000 A 
ATOM      9  C   UNL     1       2.229   3.485  19.302  0.00  0.00    +0.000 A 
ATOM     10  C   UNL     1       2.997   4.682  18.661  0.00  0.00    +0.000 A 
ENDROOT
BRANCH   4  11
ATOM     11  N   UNL     1       5.668   4.597  15.947  0.00  0.00    +0.000 N 
ATOM     12  C   UNL     1       5.459   4.488  14.495  0.00  0.00    +0.000 C 
ATOM     13  C   UNL     1       7.091   4.361  16.289  0.00  0.00    +0.000 C 
ENDBRANCH   4  11
BRANCH   1  14
ATOM     14  C   UNL     1       2.144   6.813  19.819  0.00  0.00    +0.000 C 
ATOM     15  O   UNL     1       1.714   6.224  20.802  0.00  0.00    +0.000 OA
BRANCH  14  19
ATOM     16  C   UNL     1       0.911  10.834  18.912  0.00  0.00    +0.000 A 
ATOM     17  C   UNL     1       1.483  10.008  17.934  0.00  0.00    +0.000 A 
ATOM     18  C   UNL     1       1.800   8.671  18.184  0.00  0.00    +0.000 A 
ATOM     19  C   UNL     1       1.667   8.177  19.476  0.00  0.00    +0.000 A 
ATOM     20  C   UNL     1       1.152   9.005  20.473  0.00  0.00    +0.000 A 
ATOM     21  C   UNL     1       0.760  10.303  20.191  0.00  0.00    +0.000 A 
BRANCH  16  23
ATOM     22  C   UNL     1      -0.926  12.388  18.413  0.00  0.00    +0.000 C 
ATOM     23  N   UNL     1       0.484  12.112  18.610  0.00  0.00    +0.000 N 
ATOM     24  C   UNL     1       1.457  13.184  18.501  0.00  0.00    +0.000 C 
ENDBRANCH  16  23
ENDBRANCH  14  19
ENDBRANCH   1  14
TORSDOF 4
ENDMDL
MODEL 8
REMARK VINA RESULT:      -7.1      0.735      1.589
REMARK  Name = 
REMARK  8 active torsions:
REMARK  status: ('A' for Active; 'I' for Inactive)
REMARK    1  A    between atoms: C_1  and  N_2
REMARK    2  A    between atoms: N_2  and  C_3
REMARK    3  A    between atoms: N_2  and  C_4
REMARK    4  A    between atoms: C_7  and  C_8
REMARK    5  A    between atoms: C_8  and  C_10
REMARK    6  A    between atoms: C_13  and  N_14
REMARK    7  A    between atoms: N_14  and  C_15
REMARK    8  A    between atoms: N_14  and  C_16
REMARK                            x       y       z     vdW  Elec       q    Type
REMARK                         _______ _______ _______ _____ _____    ______ ____
ROOT
ATOM      1  C   UNL     1       2.827   6.537  18.223  0.00  0.00    +0.000 A 
ATOM      2  C   UNL     1       2.005   5.872  19.189  0.00  0.00    +0.000 A 
ATOM      3  C   UNL     1       2.342   4.599  19.628  0.00  0.00    +0.000 A 
ATOM      4  C   UNL     1       3.449   3.937  19.047  0.00  0.00    +0.000 A 
ATOM      5  C   UNL     1       4.277   4.694  18.096  0.00  0.00    +0.000 A 
ATOM      6  C   UNL     1       5.599   4.354  17.847  0.00  0.00    +0.000 A 
ATOM      7  C   UNL     1       6.455   5.002  16.933  0.00  0.00    +0.000 A 
ATOM      8  C   UNL     1       6.015   5.691  15.843  0.00  0.00    +0.000 A 
ATOM      9  C   UNL     1       4.957   6.348  16.409  0.00  0.00    +0.000 A 
ATOM     10  C   UNL     1       3.966   5.928  17.539  0.00  0.00    +0.000 A 
ENDROOT
BRANCH   4  11
ATOM     11  N   UNL     1       3.691   2.571  19.318  0.00  0.00    +0.000 N 
ATOM     12  C   UNL     1       3.458   1.483  18.355  0.00  0.00    +0.000 C 
ATOM     13  C   UNL     1       4.502   2.092  20.462  0.00  0.00    +0.000 C 
ENDBRANCH   4  11
BRANCH   1  14
ATOM     14  C   UNL     1       2.460   7.961  17.993  0.00  0.00    +0.000 C 
ATOM     15  O   UNL     1       2.937   8.580  17.051  0.00  0.00    +0.000 OA
BRANCH  14  19
ATOM     16  C   UNL     1       0.128  10.025  20.963  0.00  0.00    +0.000 A 
ATOM     17  C   UNL     1       0.049  10.367  19.605  0.00  0.00    +0.000 A 
ATOM     18  C   UNL     1       0.723   9.646  18.617  0.00  0.00    +0.000 A 
ATOM     19  C   UNL     1       1.604   8.641  18.998  0.00  0.00    +0.000 A 
ATOM     20  C   UNL     1       1.736   8.327  20.351  0.00  0.00    +0.000 A 
ATOM     21  C   UNL     1       0.996   8.992  21.314  0.00  0.00    +0.000 A 
BRANCH  16  23
ATOM     22  C   UNL     1      -0.770  10.121  23.248  0.00  0.00    +0.000 C 
ATOM     23  N   UNL     1      -0.647  10.665  21.909  0.00  0.00    +0.000 N 
ATOM     24  C   UNL     1      -1.333  11.896  21.558  0.00  0.00    +0.000 C 
ENDBRANCH  16  23
ENDBRANCH  14  19
ENDBRANCH   1  14
TORSDOF 4
ENDMDL
MODEL 9
REMARK VINA RESULT:      -7.0      3.401      7.974
REMARK  Name = 
REMARK  8 active torsions:
REMARK  status: ('A' for Active; 'I' for Inactive)
REMARK    1  A    between atoms: C_1  and  N_2
REMARK    2  A    between atoms: N_2  and  C_3
REMARK    3  A    between atoms: N_2  and  C_4
REMARK    4  A    between atoms: C_7  and  C_8
REMARK    5  A    between atoms: C_8  and  C_10
REMARK    6  A    between atoms: C_13  and  N_14
REMARK    7  A    between atoms: N_14  and  C_15
REMARK    8  A    between atoms: N_14  and  C_16
REMARK                            x       y       z     vdW  Elec       q    Type
REMARK                         _______ _______ _______ _____ _____    ______ ____
ROOT
ATOM      1  C   UNL     1       4.372   5.655  18.175  0.00  0.00    +0.000 A 
ATOM      2  C   UNL     1       4.502   6.973  17.628  0.00  0.00    +0.000 A 
ATOM      3  C   UNL     1       3.588   7.959  17.973  0.00  0.00    +0.000 A 
ATOM      4  C   UNL     1       2.484   7.625  18.793  0.00  0.00    +0.000 A 
ATOM      5  C   UNL     1       2.438   6.267  19.358  0.00  0.00    +0.000 A 
ATOM      6  C   UNL     1       1.720   5.979  20.509  0.00  0.00    +0.000 A 
ATOM      7  C   UNL     1       1.594   4.707  21.102  0.00  0.00    +0.000 A 
ATOM      8  C   UNL     1       1.719   3.536  20.414  0.00  0.00    +0.000 A 
ATOM      9  C   UNL     1       2.798   3.852  19.635  0.00  0.00    +0.000 A 
ATOM     10  C   UNL     1       3.253   5.201  18.999  0.00  0.00    +0.000 A 
ENDROOT
BRANCH   4  11
ATOM     11  N   UNL     1       1.431   8.546  18.989  0.00  0.00    +0.000 N 
ATOM     12  C   UNL     1       1.027   9.074  20.301  0.00  0.00    +0.000 C 
ATOM     13  C   UNL     1       0.818   9.338  17.895  0.00  0.00    +0.000 C 
ENDBRANCH   4  11
BRANCH   1  14
ATOM     14  C   UNL     1       5.525   4.760  17.878  0.00  0.00    +0.000 C 
ATOM     15  O   UNL     1       6.254   4.370  18.780  0.00  0.00    +0.000 OA
BRANCH  14  19
ATOM     16  C   UNL     1       6.317   4.020  13.714  0.00  0.00    +0.000 A 
ATOM     17  C   UNL     1       7.271   4.629  14.541  0.00  0.00    +0.000 A 
ATOM     18  C   UNL     1       7.070   4.789  15.914  0.00  0.00    +0.000 A 
ATOM     19  C   UNL     1       5.835   4.456  16.458  0.00  0.00    +0.000 A 
ATOM     20  C   UNL     1       4.855   3.901  15.635  0.00  0.00    +0.000 A 
ATOM     21  C   UNL     1       5.099   3.667  14.292  0.00  0.00    +0.000 A 
BRANCH  16  23
ATOM     22  C   UNL     1       6.006   2.592  11.739  0.00  0.00    +0.000 C 
ATOM     23  N   UNL     1       6.586   3.752  12.386  0.00  0.00    +0.000 N 
ATOM     24  C   UNL     1       7.448   4.648  11.637  0.00  0.00    +0.000 C 
ENDBRANCH  16  23
ENDBRANCH  14  19
ENDBRANCH   1  14
TORSDOF 4
ENDMDL
