MODEL 1
REMARK VINA RESULT:      -7.0      0.000      0.000
REMARK  Name = 
REMARK  6 active torsions:
REMARK  status: ('A' for Active; 'I' for Inactive)
REMARK    1  A    between atoms: C_1  and  O_2
REMARK    2  A    between atoms: O_2  and  C_3
REMARK    3  A    between atoms: C_6  and  C_7
REMARK    4  A    between atoms: C_10  and  N_11
REMARK    5  A    between atoms: C_17  and  O_18
REMARK    6  A    between atoms: O_18  and  C_19
REMARK                            x       y       z     vdW  Elec       q    Type
REMARK                         _______ _______ _______ _____ _____    ______ ____
ROOT
ATOM      1  C   UNL     1       3.860   5.486  18.683  0.00  0.00    +0.000 A 
ATOM      2  C   UNL     1       3.004   6.563  18.784  0.00  0.00    +0.000 A 
ATOM      3  S   UNL     1       1.943   6.352  20.103  0.00  0.00    +0.000 S 
ATOM      4  C   UNL     1       2.696   4.840  20.470  0.00  0.00    +0.000 A 
ATOM      5  N   UNL     1       3.669   4.502  19.640  0.00  0.00    +0.000 NA
ENDROOT
BRANCH   4   6
ATOM      6  N   UNL     1       2.220   4.147  21.533  0.00  0.00    +0.000 NA
ATOM      7  C   UNL     1       1.665   3.002  21.314  0.00  0.00    +0.000 C 
ATOM      8  N   UNL     1       1.500   2.336  20.144  0.00  0.00    +0.000 N 
ATOM      9  N   UNL     1       1.214   2.275  22.364  0.00  0.00    +0.000 N 
ATOM     10  H   UNL     1       1.666   2.931  19.333  0.00  0.00    +0.000 HD
ATOM     11  H   UNL     1       0.656   1.795  20.047  0.00  0.00    +0.000 HD
ATOM     12  H   UNL     1       1.194   2.814  23.222  0.00  0.00    +0.000 HD
ATOM     13  H   UNL     1       0.381   1.727  22.219  0.00  0.00    +0.000 HD
ENDBRANCH   4   6
BRANCH   1  17
ATOM     14  C   UNL     1       6.665   5.207  15.458  0.00  0.00    +0.000 A 
ATOM     15  C   UNL     1       5.625   4.273  15.595  0.00  0.00    +0.000 A 
ATOM     16  C   UNL     1       4.719   4.352  16.656  0.00  0.00    +0.000 A 
ATOM     17  C   UNL     1       4.855   5.347  17.625  0.00  0.00    +0.000 A 
ATOM     18  C   UNL     1       5.952   6.212  17.539  0.00  0.00    +0.000 A 
ATOM     19  C   UNL     1       6.860   6.157  16.471  0.00  0.00    +0.000 A 
BRANCH  14  21
ATOM     20  C   UNL     1       7.029   4.469  13.237  0.00  0.00    +0.000 C 
ATOM     21  O   UNL     1       7.508   5.176  14.381  0.00  0.00    +0.000 OA
ENDBRANCH  14  21
BRANCH  19  22
ATOM     22  O   UNL     1       7.831   7.116  16.587  0.00  0.00    +0.000 OA
ATOM     23  C   UNL     1       7.800   8.011  17.689  0.00  0.00    +0.000 C 
ENDBRANCH  19  22
ENDBRANCH   1  17
TORSDOF 4
ENDMDL
MODEL 2
REMARK VINA RESULT:      -6.6      4.501      6.915
REMARK  Name = 
REMARK  6 active torsions:
REMARK  status: ('A' for Active; 'I' for Inactive)
REMARK    1  A    between atoms: C_1  and  O_2
REMARK    2  A    between atoms: O_2  and  C_3
REMARK    3  A    between atoms: C_6  and  C_7
REMARK    4  A    between atoms: C_10  and  N_11
REMARK    5  A    between atoms: C_17  and  O_18
REMARK    6  A    between atoms: O_18  and  C_19
REMARK                            x       y       z     vdW  Elec       q    Type
REMARK                         _______ _______ _______ _____ _____    ______ ____
ROOT
ATOM      1  C   UNL     1       2.955   6.396  18.193  0.00  0.00    +0.000 A 
ATOM      2  C   UNL     1       2.298   5.184  18.136  0.00  0.00    +0.000 A 
ATOM      3  S   UNL     1       3.335   3.980  17.511  0.00  0.00    +0.000 S 
ATOM      4  C   UNL     1       4.603   5.145  17.365  0.00  0.00    +0.000 A 
ATOM      5  N   UNL     1       4.264   6.368  17.739  0.00  0.00    +0.000 NA
ENDROOT
BRANCH   4   6
ATOM      6  N   UNL     1       5.792   4.717  16.873  0.00  0.00    +0.000 NA
ATOM      7  C   UNL     1       6.808   4.697  17.670  0.00  0.00    +0.000 C 
ATOM      8  N   UNL     1       6.877   5.022  18.984  0.00  0.00    +0.000 N 
ATOM      9  N   UNL     1       7.998   4.239  17.211  0.00  0.00    +0.000 N 
ATOM     10  H   UNL     1       6.052   5.530  19.302  0.00  0.00    +0.000 HD
ATOM     11  H   UNL     1       7.730   5.455  19.299  0.00  0.00    +0.000 HD
ATOM     12  H   UNL     1       8.003   4.133  16.202  0.00  0.00    +0.000 HD
ATOM     13  H   UNL     1       8.828   4.683  17.569  0.00  0.00    +0.000 HD
ENDBRANCH   4   6
BRANCH   1  17
ATOM     14  C   UNL     1       0.907   9.944  19.441  0.00  0.00    +0.000 A 
ATOM     15  C   UNL     1       1.427   9.829  18.142  0.00  0.00    +0.000 A 
ATOM     16  C   UNL     1       2.110   8.679  17.737  0.00  0.00    +0.000 A 
ATOM     17  C   UNL     1       2.321   7.632  18.636  0.00  0.00    +0.000 A 
ATOM     18  C   UNL     1       1.889   7.796  19.958  0.00  0.00    +0.000 A 
ATOM     19  C   UNL     1       1.186   8.936  20.374  0.00  0.00    +0.000 A 
BRANCH  14  21
ATOM     20  C   UNL     1       0.904  12.089  20.446  0.00  0.00    +0.000 C 
ATOM     21  O   UNL     1       0.174  11.037  19.816  0.00  0.00    +0.000 OA
ENDBRANCH  14  21
BRANCH  19  22
ATOM     22  O   UNL     1       0.844   8.860  21.698  0.00  0.00    +0.000 OA
ATOM     23  C   UNL     1      -0.503   8.589  22.057  0.00  0.00    +0.000 C 
ENDBRANCH  19  22
ENDBRANCH   1  17
TORSDOF 4
ENDMDL
MODEL 3
REMARK VINA RESULT:      -6.6      4.328      6.734
REMARK  Name = 
REMARK  6 active torsions:
REMARK  status: ('A' for Active; 'I' for Inactive)
REMARK    1  A    between atoms: C_1  and  O_2
REMARK    2  A    between atoms: O_2  and  C_3
REMARK    3  A    between atoms: C_6  and  C_7
REMARK    4  A    between atoms: C_10  and  N_11
REMARK    5  A    between atoms: C_17  and  O_18
REMARK    6  A    between atoms: O_18  and  C_19
REMARK                            x       y       z     vdW  Elec       q    Type
REMARK                         _______ _______ _______ _____ _____    ______ ____
ROOT
ATOM      1  C   UNL     1       3.073   6.115  18.867  0.00  0.00    +0.000 A 
ATOM      2  C   UNL     1       2.412   4.911  18.737  0.00  0.00    +0.000 A 
ATOM      3  S   UNL     1       3.535   3.632  18.612  0.00  0.00    +0.000 S 
ATOM      4  C   UNL     1       4.838   4.759  18.750  0.00  0.00    +0.000 A 
ATOM      5  N   UNL     1       4.456   6.021  18.859  0.00  0.00    +0.000 NA
ENDROOT
BRANCH   4   6
ATOM      6  N   UNL     1       6.100   4.264  18.712  0.00  0.00    +0.000 NA
ATOM      7  C   UNL     1       6.893   4.691  17.788  0.00  0.00    +0.000 C 
ATOM      8  N   UNL     1       6.671   5.617  16.822  0.00  0.00    +0.000 N 
ATOM      9  N   UNL     1       8.169   4.237  17.752  0.00  0.00    +0.000 N 
ATOM     10  H   UNL     1       5.680   5.837  16.718  0.00  0.00    +0.000 HD
ATOM     11  H   UNL     1       7.117   5.459  15.933  0.00  0.00    +0.000 HD
ATOM     12  H   UNL     1       8.310   3.442  18.366  0.00  0.00    +0.000 HD
ATOM     13  H   UNL     1       8.588   4.116  16.843  0.00  0.00    +0.000 HD
ENDBRANCH   4   6
BRANCH   1  17
ATOM     14  C   UNL     1       0.887   9.793  19.055  0.00  0.00    +0.000 A 
ATOM     15  C   UNL     1       1.510   9.383  17.865  0.00  0.00    +0.000 A 
ATOM     16  C   UNL     1       2.238   8.191  17.806  0.00  0.00    +0.000 A 
ATOM     17  C   UNL     1       2.390   7.402  18.947  0.00  0.00    +0.000 A 
ATOM     18  C   UNL     1       1.853   7.867  20.153  0.00  0.00    +0.000 A 
ATOM     19  C   UNL     1       1.105   9.051  20.225  0.00  0.00    +0.000 A 
BRANCH  14  21
ATOM     20  C   UNL     1      -1.236  10.765  18.658  0.00  0.00    +0.000 C 
ATOM     21  O   UNL     1       0.113  10.921  19.097  0.00  0.00    +0.000 OA
ENDBRANCH  14  21
BRANCH  19  22
ATOM     22  O   UNL     1       0.660   9.288  21.498  0.00  0.00    +0.000 OA
ATOM     23  C   UNL     1      -0.469   8.579  21.987  0.00  0.00    +0.000 C 
ENDBRANCH  19  22
ENDBRANCH   1  17
TORSDOF 4
ENDMDL
MODEL 4
REMARK VINA RESULT:      -6.6      4.206      6.223
REMARK  Name = 
REMARK  6 active torsions:
REMARK  status: ('A' for Active; 'I' for Inactive)
REMARK    1  A    between atoms: C_1  and  O_2
REMARK    2  A    between atoms: O_2  and  C_3
REMARK    3  A    between atoms: C_6  and  C_7
REMARK    4  A    between atoms: C_10  and  N_11
REMARK    5  A    between atoms: C_17  and  O_18
REMARK    6  A    between atoms: O_18  and  C_19
REMARK                            x       y       z     vdW  Elec       q    Type
REMARK                         _______ _______ _______ _____ _____    ______ ____
ROOT
ATOM      1  C   UNL     1       3.521   6.580  18.359  0.00  0.00    +0.000 A 
ATOM      2  C   UNL     1       4.172   6.478  17.147  0.00  0.00    +0.000 A 
ATOM      3  S   UNL     1       5.221   5.132  17.150  0.00  0.00    +0.000 S 
ATOM      4  C   UNL     1       4.736   4.756  18.766  0.00  0.00    +0.000 A 
ATOM      5  N   UNL     1       3.859   5.602  19.282  0.00  0.00    +0.000 NA
ENDROOT
BRANCH   4   6
ATOM      6  N   UNL     1       5.300   3.670  19.351  0.00  0.00    +0.000 NA
ATOM      7  C   UNL     1       4.526   2.697  19.700  0.00  0.00    +0.000 C 
ATOM      8  N   UNL     1       3.186   2.565  19.543  0.00  0.00    +0.000 N 
ATOM      9  N   UNL     1       5.071   1.587  20.254  0.00  0.00    +0.000 N 
ATOM     10  H   UNL     1       2.736   3.447  19.297  0.00  0.00    +0.000 HD
ATOM     11  H   UNL     1       2.691   2.081  20.275  0.00  0.00    +0.000 HD
ATOM     12  H   UNL     1       6.041   1.725  20.512  0.00  0.00    +0.000 HD
ATOM     13  H   UNL     1       4.533   1.118  20.965  0.00  0.00    +0.000 HD
ENDBRANCH   4   6
BRANCH   1  17
ATOM     14  C   UNL     1       0.639   9.622  19.242  0.00  0.00    +0.000 A 
ATOM     15  C   UNL     1       1.330   9.614  18.020  0.00  0.00    +0.000 A 
ATOM     16  C   UNL     1       2.283   8.632  17.736  0.00  0.00    +0.000 A 
ATOM     17  C   UNL     1       2.594   7.657  18.686  0.00  0.00    +0.000 A 
ATOM     18  C   UNL     1       1.975   7.731  19.939  0.00  0.00    +0.000 A 
ATOM     19  C   UNL     1       1.003   8.699  20.233  0.00  0.00    +0.000 A 
BRANCH  14  21
ATOM     20  C   UNL     1       0.090  11.799  19.995  0.00  0.00    +0.000 C 
ATOM     21  O   UNL     1      -0.347  10.537  19.492  0.00  0.00    +0.000 OA
ENDBRANCH  14  21
BRANCH  19  22
ATOM     22  O   UNL     1       0.522   8.557  21.507  0.00  0.00    +0.000 OA
ATOM     23  C   UNL     1       1.134   9.275  22.569  0.00  0.00    +0.000 C 
ENDBRANCH  19  22
ENDBRANCH   1  17
TORSDOF 4
ENDMDL
MODEL 5
REMARK VINA RESULT:      -6.5      4.265      6.233
REMARK  Name = 
REMARK  6 active torsions:
REMARK  status: ('A' for Active; 'I' for Inactive)
REMARK    1  A    between atoms: C_1  and  O_2
REMARK    2  A    between atoms: O_2  and  C_3
REMARK    3  A    between atoms: C_6  and  C_7
REMARK    4  A    between atoms: C_10  and  N_11
REMARK    5  A    between atoms: C_17  and  O_18
REMARK    6  A    between atoms: O_18  and  C_19
REMARK                            x       y       z     vdW  Elec       q    Type
REMARK                         _______ _______ _______ _____ _____    ______ ____
ROOT
ATOM      1  C   UNL     1       3.255   6.383  17.910  0.00  0.00    +0.000 A 
ATOM      2  C   UNL     1       4.452   6.471  17.230  0.00  0.00    +0.000 A 
ATOM      3  S   UNL     1       5.014   4.912  16.819  0.00  0.00    +0.000 S 
ATOM      4  C   UNL     1       3.619   4.212  17.563  0.00  0.00    +0.000 A 
ATOM      5  N   UNL     1       2.794   5.091  18.107  0.00  0.00    +0.000 NA
ENDROOT
BRANCH   4   6
ATOM      6  N   UNL     1       3.511   2.860  17.540  0.00  0.00    +0.000 NA
ATOM      7  C   UNL     1       4.073   2.190  18.489  0.00  0.00    +0.000 C 
ATOM      8  N   UNL     1       4.759   2.637  19.570  0.00  0.00    +0.000 N 
ATOM      9  N   UNL     1       3.949   0.841  18.507  0.00  0.00    +0.000 N 
ATOM     10  H   UNL     1       5.016   3.621  19.486  0.00  0.00    +0.000 HD
ATOM     11  H   UNL     1       5.532   2.071  19.881  0.00  0.00    +0.000 HD
ATOM     12  H   UNL     1       3.571   0.480  17.638  0.00  0.00    +0.000 HD
ATOM     13  H   UNL     1       4.736   0.312  18.849  0.00  0.00    +0.000 HD
ENDBRANCH   4   6
BRANCH   1  17
ATOM     14  C   UNL     1       0.989   9.702  19.389  0.00  0.00    +0.000 A 
ATOM     15  C   UNL     1       1.580   9.741  18.116  0.00  0.00    +0.000 A 
ATOM     16  C   UNL     1       2.334   8.666  17.638  0.00  0.00    +0.000 A 
ATOM     17  C   UNL     1       2.545   7.542  18.439  0.00  0.00    +0.000 A 
ATOM     18  C   UNL     1       2.038   7.552  19.743  0.00  0.00    +0.000 A 
ATOM     19  C   UNL     1       1.264   8.616  20.231  0.00  0.00    +0.000 A 
BRANCH  14  21
ATOM     20  C   UNL     1      -1.131  10.754  19.289  0.00  0.00    +0.000 C 
ATOM     21  O   UNL     1       0.189  10.722  19.829  0.00  0.00    +0.000 OA
ENDBRANCH  14  21
BRANCH  19  22
ATOM     22  O   UNL     1       0.858   8.391  21.520  0.00  0.00    +0.000 OA
ATOM     23  C   UNL     1       1.413   9.167  22.572  0.00  0.00    +0.000 C 
ENDBRANCH  19  22
ENDBRANCH   1  17
TORSDOF 4
ENDMDL
MODEL 6
REMARK VINA RESULT:      -6.5      4.321      6.742
REMARK  Name = 
REMARK  6 active torsions:
REMARK  status: ('A' for Active; 'I' for Inactive)
REMARK    1  A    between atoms: C_1  and  O_2
REMARK    2  A    between atoms: O_2  and  C_3
REMARK    3  A    between atoms: C_6  and  C_7
REMARK    4  A    between atoms: C_10  and  N_11
REMARK    5  A    between atoms: C_17  and  O_18
REMARK    6  A    between atoms: O_18  and  C_19
REMARK                            x       y       z     vdW  Elec       q    Type
REMARK                         _______ _______ _______ _____ _____    ______ ____
ROOT
ATOM      1  C   UNL     1       3.507   6.064  18.536  0.00  0.00    +0.000 A 
ATOM      2  C   UNL     1       3.868   5.224  19.569  0.00  0.00    +0.000 A 
ATOM      3  S   UNL     1       4.707   3.867  18.961  0.00  0.00    +0.000 S 
ATOM      4  C   UNL     1       4.550   4.488  17.355  0.00  0.00    +0.000 A 
ATOM      5  N   UNL     1       3.888   5.630  17.276  0.00  0.00    +0.000 NA
ENDROOT
BRANCH   4   6
ATOM      6  N   UNL     1       5.086   3.755  16.347  0.00  0.00    +0.000 NA
ATOM      7  C   UNL     1       5.759   4.376  15.436  0.00  0.00    +0.000 C 
ATOM      8  N   UNL     1       6.055   5.695  15.334  0.00  0.00    +0.000 N 
ATOM      9  N   UNL     1       6.333   3.661  14.439  0.00  0.00    +0.000 N 
ATOM     10  H   UNL     1       5.493   6.268  15.963  0.00  0.00    +0.000 HD
ATOM     11  H   UNL     1       6.089   6.079  14.403  0.00  0.00    +0.000 HD
ATOM     12  H   UNL     1       6.003   2.703  14.416  0.00  0.00    +0.000 HD
ATOM     13  H   UNL     1       6.370   4.092  13.529  0.00  0.00    +0.000 HD
ENDBRANCH   4   6
BRANCH   1  17
ATOM     14  C   UNL     1       1.073   9.554  19.015  0.00  0.00    +0.000 A 
ATOM     15  C   UNL     1       1.848   9.367  17.859  0.00  0.00    +0.000 A 
ATOM     16  C   UNL     1       2.656   8.237  17.708  0.00  0.00    +0.000 A 
ATOM     17  C   UNL     1       2.736   7.287  18.727  0.00  0.00    +0.000 A 
ATOM     18  C   UNL     1       2.040   7.530  19.917  0.00  0.00    +0.000 A 
ATOM     19  C   UNL     1       1.210   8.650  20.077  0.00  0.00    +0.000 A 
BRANCH  14  21
ATOM     20  C   UNL     1      -1.089  10.433  18.609  0.00  0.00    +0.000 C 
ATOM     21  O   UNL     1       0.225  10.622  19.133  0.00  0.00    +0.000 OA
ENDBRANCH  14  21
BRANCH  19  22
ATOM     22  O   UNL     1       0.615   8.662  21.310  0.00  0.00    +0.000 OA
ATOM     23  C   UNL     1       1.323   9.188  22.423  0.00  0.00    +0.000 C 
ENDBRANCH  19  22
ENDBRANCH   1  17
TORSDOF 4
ENDMDL
MODEL 7
REMARK VINA RESULT:      -6.5      1.867      2.517
REMARK  Name = 
REMARK  6 active torsions:
REMARK  status: ('A' for Active; 'I' for Inactive)
REMARK    1  A    between atoms: C_1  and  O_2
REMARK    2  A    between atoms: O_2  and  C_3
REMARK    3  A    between atoms: C_6  and  C_7
REMARK    4  A    between atoms: C_10  and  N_11
REMARK    5  A    between atoms: C_17  and  O_18
REMARK    6  A    between atoms: O_18  and  C_19
REMARK                            x       y       z     vdW  Elec       q    Type
REMARK                         _______ _______ _______ _____ _____    ______ ____
ROOT
ATOM      1  C   UNL     1       3.708   4.827  17.770  0.00  0.00    +0.000 A 
ATOM      2  C   UNL     1       2.760   3.825  17.730  0.00  0.00    +0.000 A 
ATOM      3  S   UNL     1       1.618   4.042  18.979  0.00  0.00    +0.000 S 
ATOM      4  C   UNL     1       2.448   5.468  19.493  0.00  0.00    +0.000 A 
ATOM      5  N   UNL     1       3.530   5.753  18.786  0.00  0.00    +0.000 NA
ENDROOT
BRANCH   4   6
ATOM      6  N   UNL     1       1.942   6.136  20.559  0.00  0.00    +0.000 NA
ATOM      7  C   UNL     1       1.761   7.410  20.448  0.00  0.00    +0.000 C 
ATOM      8  N   UNL     1       1.976   8.220  19.383  0.00  0.00    +0.000 N 
ATOM      9  N   UNL     1       1.223   8.093  21.487  0.00  0.00    +0.000 N 
ATOM     10  H   UNL     1       2.540   7.770  18.661  0.00  0.00    +0.000 HD
ATOM     11  H   UNL     1       2.297   9.154  19.583  0.00  0.00    +0.000 HD
ATOM     12  H   UNL     1       1.193   7.538  22.335  0.00  0.00    +0.000 HD
ATOM     13  H   UNL     1       1.553   9.033  21.638  0.00  0.00    +0.000 HD
ENDBRANCH   4   6
BRANCH   1  17
ATOM     14  C   UNL     1       6.946   5.168  14.989  0.00  0.00    +0.000 A 
ATOM     15  C   UNL     1       5.940   4.206  14.811  0.00  0.00    +0.000 A 
ATOM     16  C   UNL     1       4.891   4.081  15.726  0.00  0.00    +0.000 A 
ATOM     17  C   UNL     1       4.846   4.894  16.861  0.00  0.00    +0.000 A 
ATOM     18  C   UNL     1       5.906   5.780  17.084  0.00  0.00    +0.000 A 
ATOM     19  C   UNL     1       6.956   5.929  16.166  0.00  0.00    +0.000 A 
BRANCH  14  21
ATOM     20  C   UNL     1       7.592   4.985  12.717  0.00  0.00    +0.000 C 
ATOM     21  O   UNL     1       7.933   5.341  14.056  0.00  0.00    +0.000 OA
ENDBRANCH  14  21
BRANCH  19  22
ATOM     22  O   UNL     1       7.859   6.871  16.584  0.00  0.00    +0.000 OA
ATOM     23  C   UNL     1       7.487   7.793  17.598  0.00  0.00    +0.000 C 
ENDBRANCH  19  22
ENDBRANCH   1  17
TORSDOF 4
ENDMDL
MODEL 8
REMARK VINA RESULT:      -6.4      4.433      7.070
REMARK  Name = 
REMARK  6 active torsions:
REMARK  status: ('A' for Active; 'I' for Inactive)
REMARK    1  A    between atoms: C_1  and  O_2
REMARK    2  A    between atoms: O_2  and  C_3
REMARK    3  A    between atoms: C_6  and  C_7
REMARK    4  A    between atoms: C_10  and  N_11
REMARK    5  A    between atoms: C_17  and  O_18
REMARK    6  A    between atoms: O_18  and  C_19
REMARK                            x       y       z     vdW  Elec       q    Type
REMARK                         _______ _______ _______ _____ _____    ______ ____
ROOT
ATOM      1  C   UNL     1       2.956   6.303  18.207  0.00  0.00    +0.000 A 
ATOM      2  C   UNL     1       2.272   5.111  18.084  0.00  0.00    +0.000 A 
ATOM      3  S   UNL     1       3.302   3.900  17.463  0.00  0.00    +0.000 S 
ATOM      4  C   UNL     1       4.604   5.036  17.406  0.00  0.00    +0.000 A 
ATOM      5  N   UNL     1       4.282   6.255  17.806  0.00  0.00    +0.000 NA
ENDROOT
BRANCH   4   6
ATOM      6  N   UNL     1       5.802   4.591  16.949  0.00  0.00    +0.000 NA
ATOM      7  C   UNL     1       6.308   5.167  15.911  0.00  0.00    +0.000 C 
ATOM      8  N   UNL     1       5.831   6.210  15.187  0.00  0.00    +0.000 N 
ATOM      9  N   UNL     1       7.519   4.763  15.457  0.00  0.00    +0.000 N 
ATOM     10  H   UNL     1       4.853   6.411  15.395  0.00  0.00    +0.000 HD
ATOM     11  H   UNL     1       6.009   6.191  14.196  0.00  0.00    +0.000 HD
ATOM     12  H   UNL     1       7.820   3.897  15.889  0.00  0.00    +0.000 HD
ATOM     13  H   UNL     1       7.665   4.783  14.460  0.00  0.00    +0.000 HD
ENDBRANCH   4   6
BRANCH   1  17
ATOM     14  C   UNL     1       0.947   9.857  19.502  0.00  0.00    +0.000 A 
ATOM     15  C   UNL     1       1.430   9.738  18.189  0.00  0.00    +0.000 A 
ATOM     16  C   UNL     1       2.101   8.586  17.769  0.00  0.00    +0.000 A 
ATOM     17  C   UNL     1       2.336   7.541  18.665  0.00  0.00    +0.000 A 
ATOM     18  C   UNL     1       1.942   7.709  19.998  0.00  0.00    +0.000 A 
ATOM     19  C   UNL     1       1.252   8.851  20.430  0.00  0.00    +0.000 A 
BRANCH  14  21
ATOM     20  C   UNL     1       0.989  12.064  20.360  0.00  0.00    +0.000 C 
ATOM     21  O   UNL     1       0.226  10.952  19.895  0.00  0.00    +0.000 OA
ENDBRANCH  14  21
BRANCH  19  22
ATOM     22  O   UNL     1       0.947   8.779  21.764  0.00  0.00    +0.000 OA
ATOM     23  C   UNL     1      -0.414   8.793  22.171  0.00  0.00    +0.000 C 
ENDBRANCH  19  22
ENDBRANCH   1  17
TORSDOF 4
ENDMDL
MODEL 9
REMARK VINA RESULT:      -6.4      4.585      5.996
REMARK  Name = 
REMARK  6 active torsions:
REMARK  status: ('A' for Active; 'I' for Inactive)
REMARK    1  A    between atoms: C_1  and  O_2
REMARK    2  A    between atoms: O_2  and  C_3
REMARK    3  A    between atoms: C_6  and  C_7
REMARK    4  A    between atoms: C_10  and  N_11
REMARK    5  A    between atoms: C_17  and  O_18
REMARK    6  A    between atoms: O_18  and  C_19
REMARK                            x       y       z     vdW  Elec       q    Type
REMARK                         _______ _______ _______ _____ _____    ______ ____
ROOT
ATOM      1  C   UNL     1       2.372   5.528  20.080  0.00  0.00    +0.000 A 
ATOM      2  C   UNL     1       1.786   4.913  21.166  0.00  0.00    +0.000 A 
ATOM      3  S   UNL     1       2.299   3.288  21.273  0.00  0.00    +0.000 S 
ATOM      4  C   UNL     1       3.283   3.506  19.869  0.00  0.00    +0.000 A 
ATOM      5  N   UNL     1       3.214   4.715  19.337  0.00  0.00    +0.000 NA
ENDROOT
BRANCH   4   6
ATOM      6  N   UNL     1       4.002   2.439  19.438  0.00  0.00    +0.000 NA
ATOM      7  C   UNL     1       3.489   1.693  18.518  0.00  0.00    +0.000 C 
ATOM      8  N   UNL     1       2.311   1.823  17.861  0.00  0.00    +0.000 N 
ATOM      9  N   UNL     1       4.204   0.642  18.047  0.00  0.00    +0.000 N 
ATOM     10  H   UNL     1       1.686   2.491  18.314  0.00  0.00    +0.000 HD
ATOM     11  H   UNL     1       1.835   0.971  17.612  0.00  0.00    +0.000 HD
ATOM     12  H   UNL     1       5.014   0.442  18.622  0.00  0.00    +0.000 HD
ATOM     13  H   UNL     1       3.687  -0.183  17.785  0.00  0.00    +0.000 HD
ENDBRANCH   4   6
BRANCH   1  17
ATOM     14  C   UNL     1       1.364   9.515  18.886  0.00  0.00    +0.000 A 
ATOM     15  C   UNL     1       1.961   8.621  17.984  0.00  0.00    +0.000 A 
ATOM     16  C   UNL     1       2.307   7.324  18.376  0.00  0.00    +0.000 A 
ATOM     17  C   UNL     1       2.095   6.907  19.691  0.00  0.00    +0.000 A 
ATOM     18  C   UNL     1       1.593   7.835  20.610  0.00  0.00    +0.000 A 
ATOM     19  C   UNL     1       1.224   9.134  20.228  0.00  0.00    +0.000 A 
BRANCH  14  21
ATOM     20  C   UNL     1      -0.453  10.944  18.366  0.00  0.00    +0.000 C 
ATOM     21  O   UNL     1       0.957  10.759  18.485  0.00  0.00    +0.000 OA
ENDBRANCH  14  21
BRANCH  19  22
ATOM     22  O   UNL     1       0.735   9.849  21.288  0.00  0.00    +0.000 OA
ATOM     23  C   UNL     1      -0.262   9.273  22.119  0.00  0.00    +0.000 C 
ENDBRANCH  19  22
ENDBRANCH   1  17
TORSDOF 4
ENDMDL
