MODEL 1
REMARK VINA RESULT:      -8.3      0.000      0.000
REMARK  Name = 
REMARK  7 active torsions:
REMARK  status: ('A' for Active; 'I' for Inactive)
REMARK    1  A    between atoms: C_1  and  C_2
REMARK    2  A    between atoms: C_5  and  N_6
REMARK    3  A    between atoms: C_7  and  C_9
REMARK    4  A    between atoms: C_13  and  C_15
REMARK    5  A    between atoms: N_18  and  C_19
REMARK    6  A    between atoms: C_25  and  N_26
REMARK    7  A    between atoms: C_34  and  C_35
REMARK                            x       y       z     vdW  Elec       q    Type
REMARK                         _______ _______ _______ _____ _____    ______ ____
ROOT
ATOM      1  C   UNL     1       1.283   9.477  21.898  0.00  0.00    +0.000 C 
ATOM      2  C   UNL     1       0.494   9.738  23.196  0.00  0.00    +0.000 C 
ATOM      3  C   UNL     1      -0.926  10.280  22.973  0.00  0.00    +0.000 C 
ATOM      4  N   UNL     1      -0.939  11.356  21.983  0.00  0.00    +0.000 N 
ATOM      5  C   UNL     1      -1.109  12.682  22.412  0.00  0.00    +0.000 C 
ATOM      6  O   UNL     1      -1.171  12.930  23.615  0.00  0.00    +0.000 OA
ATOM      7  C   UNL     1      -0.454  10.908  20.685  0.00  0.00    +0.000 C 
ATOM      8  C   UNL     1       1.035  10.577  20.835  0.00  0.00    +0.000 C 
ENDROOT
BRANCH   5   9
ATOM      9  C   UNL     1      -1.229  13.768  21.429  0.00  0.00    +0.000 A 
ATOM     10  C   UNL     1      -2.392  14.239  20.781  0.00  0.00    +0.000 A 
ATOM     11  N   UNL     1      -2.202  15.353  20.080  0.00  0.00    +0.000 NA
ATOM     12  N   UNL     1      -0.853  15.513  20.058  0.00  0.00    +0.000 N 
ATOM     13  C   UNL     1      -0.233  14.611  20.920  0.00  0.00    +0.000 A 
BRANCH  12  14
ATOM     14  C   UNL     1      -0.306  16.443  19.121  0.00  0.00    +0.000 A 
ATOM     15  C   UNL     1      -1.123  17.468  18.616  0.00  0.00    +0.000 A 
ATOM     16  C   UNL     1      -0.592  18.425  17.746  0.00  0.00    +0.000 A 
ATOM     17  C   UNL     1       0.744  18.351  17.356  0.00  0.00    +0.000 A 
ATOM     18  C   UNL     1       1.545  17.305  17.811  0.00  0.00    +0.000 A 
ATOM     19  C   UNL     1       1.019  16.346  18.678  0.00  0.00    +0.000 A 
ENDBRANCH  12  14
BRANCH  13  20
ATOM     20  N   UNL     1       1.127  14.661  21.245  0.00  0.00    +0.000 N 
ATOM     21  C   UNL     1       2.137  13.866  20.741  0.00  0.00    +0.000 A 
ATOM     22  C   UNL     1       3.351  14.275  21.246  0.00  0.00    +0.000 A 
ATOM     23  C   UNL     1       3.099  15.359  22.105  0.00  0.00    +0.000 A 
ATOM     24  C   UNL     1       1.736  15.561  22.107  0.00  0.00    +0.000 A 
ENDBRANCH  13  20
ENDBRANCH   5   9
BRANCH   1  26
ATOM     25  N   UNL     1       2.114   7.427  20.792  0.00  0.00    +0.000 N 
ATOM     26  C   UNL     1       1.003   8.094  21.292  0.00  0.00    +0.000 C 
ATOM     27  O   UNL     1      -0.152   7.667  21.267  0.00  0.00    +0.000 OA
ATOM     28  H   UNL     1       3.024   7.847  20.940  0.00  0.00    +0.000 HD
BRANCH  25  33
ATOM     29  C   UNL     1       1.924   2.420  17.932  0.00  0.00    +0.000 C 
ATOM     30  C   UNL     1       1.996   3.705  18.712  0.00  0.00    +0.000 A 
ATOM     31  C   UNL     1       2.296   4.888  18.033  0.00  0.00    +0.000 A 
ATOM     32  C   UNL     1       2.348   6.110  18.706  0.00  0.00    +0.000 A 
ATOM     33  C   UNL     1       2.093   6.197  20.075  0.00  0.00    +0.000 A 
ATOM     34  C   UNL     1       1.819   5.007  20.768  0.00  0.00    +0.000 A 
ATOM     35  C   UNL     1       1.767   3.758  20.100  0.00  0.00    +0.000 A 
ATOM     36  C   UNL     1       1.464   2.499  20.867  0.00  0.00    +0.000 C 
ENDBRANCH  25  33
ENDBRANCH   1  26
TORSDOF 5
ENDMDL
MODEL 2
REMARK VINA RESULT:      -8.2      4.542      8.179
REMARK  Name = 
REMARK  7 active torsions:
REMARK  status: ('A' for Active; 'I' for Inactive)
REMARK    1  A    between atoms: C_1  and  C_2
REMARK    2  A    between atoms: C_5  and  N_6
REMARK    3  A    between atoms: C_7  and  C_9
REMARK    4  A    between atoms: C_13  and  C_15
REMARK    5  A    between atoms: N_18  and  C_19
REMARK    6  A    between atoms: C_25  and  N_26
REMARK    7  A    between atoms: C_34  and  C_35
REMARK                            x       y       z     vdW  Elec       q    Type
REMARK                         _______ _______ _______ _____ _____    ______ ____
ROOT
ATOM      1  C   UNL     1       5.082  16.266  20.343  0.00  0.00    +0.000 C 
ATOM      2  C   UNL     1       4.555  16.104  21.783  0.00  0.00    +0.000 C 
ATOM      3  C   UNL     1       3.937  14.729  22.077  0.00  0.00    +0.000 C 
ATOM      4  N   UNL     1       3.031  14.310  21.008  0.00  0.00    +0.000 N 
ATOM      5  C   UNL     1       1.645  14.352  21.227  0.00  0.00    +0.000 C 
ATOM      6  O   UNL     1       1.207  14.808  22.282  0.00  0.00    +0.000 OA
ATOM      7  C   UNL     1       3.716  14.195  19.728  0.00  0.00    +0.000 C 
ATOM      8  C   UNL     1       4.144  15.604  19.302  0.00  0.00    +0.000 C 
ENDROOT
BRANCH   5   9
ATOM      9  C   UNL     1       0.720  13.839  20.206  0.00  0.00    +0.000 A 
ATOM     10  C   UNL     1       0.468  14.351  18.914  0.00  0.00    +0.000 A 
ATOM     11  N   UNL     1      -0.291  13.560  18.162  0.00  0.00    +0.000 NA
ATOM     12  N   UNL     1      -0.752  12.615  19.022  0.00  0.00    +0.000 N 
ATOM     13  C   UNL     1      -0.108  12.711  20.253  0.00  0.00    +0.000 A 
BRANCH  12  14
ATOM     14  C   UNL     1      -1.844  11.798  18.594  0.00  0.00    +0.000 A 
ATOM     15  C   UNL     1      -1.581  10.645  17.835  0.00  0.00    +0.000 A 
ATOM     16  C   UNL     1      -2.627   9.798  17.458  0.00  0.00    +0.000 A 
ATOM     17  C   UNL     1      -3.940  10.109  17.812  0.00  0.00    +0.000 A 
ATOM     18  C   UNL     1      -4.212  11.279  18.517  0.00  0.00    +0.000 A 
ATOM     19  C   UNL     1      -3.171  12.129  18.895  0.00  0.00    +0.000 A 
ENDBRANCH  12  14
BRANCH  13  20
ATOM     20  N   UNL     1      -0.242  11.760  21.272  0.00  0.00    +0.000 N 
ATOM     21  C   UNL     1      -1.055  11.836  22.385  0.00  0.00    +0.000 A 
ATOM     22  C   UNL     1      -0.967  10.669  23.111  0.00  0.00    +0.000 A 
ATOM     23  C   UNL     1      -0.061   9.831  22.438  0.00  0.00    +0.000 A 
ATOM     24  C   UNL     1       0.386  10.525  21.334  0.00  0.00    +0.000 A 
ENDBRANCH  13  20
ENDBRANCH   5   9
BRANCH   1  26
ATOM     25  N   UNL     1       6.930  15.586  18.849  0.00  0.00    +0.000 N 
ATOM     26  C   UNL     1       6.514  15.741  20.164  0.00  0.00    +0.000 C 
ATOM     27  O   UNL     1       7.191  15.480  21.158  0.00  0.00    +0.000 OA
ATOM     28  H   UNL     1       6.310  15.908  18.114  0.00  0.00    +0.000 HD
BRANCH  25  33
ATOM     29  C   UNL     1      11.848  13.148  17.069  0.00  0.00    +0.000 C 
ATOM     30  C   UNL     1      10.564  13.754  17.568  0.00  0.00    +0.000 A 
ATOM     31  C   UNL     1      10.440  15.145  17.589  0.00  0.00    +0.000 A 
ATOM     32  C   UNL     1       9.259  15.755  18.017  0.00  0.00    +0.000 A 
ATOM     33  C   UNL     1       8.159  15.002  18.428  0.00  0.00    +0.000 A 
ATOM     34  C   UNL     1       8.288  13.603  18.435  0.00  0.00    +0.000 A 
ATOM     35  C   UNL     1       9.481  12.969  18.009  0.00  0.00    +0.000 A 
ATOM     36  C   UNL     1       9.589  11.467  18.021  0.00  0.00    +0.000 C 
ENDBRANCH  25  33
ENDBRANCH   1  26
TORSDOF 5
ENDMDL
MODEL 3
REMARK VINA RESULT:      -7.8      3.267      4.907
REMARK  Name = 
REMARK  7 active torsions:
REMARK  status: ('A' for Active; 'I' for Inactive)
REMARK    1  A    between atoms: C_1  and  C_2
REMARK    2  A    between atoms: C_5  and  N_6
REMARK    3  A    between atoms: C_7  and  C_9
REMARK    4  A    between atoms: C_13  and  C_15
REMARK    5  A    between atoms: N_18  and  C_19
REMARK    6  A    between atoms: C_25  and  N_26
REMARK    7  A    between atoms: C_34  and  C_35
REMARK                            x       y       z     vdW  Elec       q    Type
REMARK                         _______ _______ _______ _____ _____    ______ ____
ROOT
ATOM      1  C   UNL     1       1.383   9.288  17.878  0.00  0.00    +0.000 C 
ATOM      2  C   UNL     1       2.026  10.655  18.185  0.00  0.00    +0.000 C 
ATOM      3  C   UNL     1       1.453  11.357  19.424  0.00  0.00    +0.000 C 
ATOM      4  N   UNL     1      -0.008  11.316  19.436  0.00  0.00    +0.000 N 
ATOM      5  C   UNL     1      -0.731  12.482  19.138  0.00  0.00    +0.000 C 
ATOM      6  O   UNL     1      -0.131  13.501  18.800  0.00  0.00    +0.000 OA
ATOM      7  C   UNL     1      -0.514   9.950  19.458  0.00  0.00    +0.000 C 
ATOM      8  C   UNL     1      -0.149   9.298  18.121  0.00  0.00    +0.000 C 
ENDROOT
BRANCH   5   9
ATOM      9  C   UNL     1      -2.197  12.491  19.244  0.00  0.00    +0.000 A 
ATOM     10  C   UNL     1      -3.145  11.987  18.327  0.00  0.00    +0.000 A 
ATOM     11  N   UNL     1      -4.391  11.983  18.791  0.00  0.00    +0.000 NA
ATOM     12  N   UNL     1      -4.327  12.703  19.941  0.00  0.00    +0.000 N 
ATOM     13  C   UNL     1      -3.003  12.969  20.284  0.00  0.00    +0.000 A 
BRANCH  12  14
ATOM     14  C   UNL     1      -5.555  13.149  20.520  0.00  0.00    +0.000 A 
ATOM     15  C   UNL     1      -6.080  12.463  21.628  0.00  0.00    +0.000 A 
ATOM     16  C   UNL     1      -7.247  12.919  22.248  0.00  0.00    +0.000 A 
ATOM     17  C   UNL     1      -7.909  14.042  21.752  0.00  0.00    +0.000 A 
ATOM     18  C   UNL     1      -7.423  14.693  20.620  0.00  0.00    +0.000 A 
ATOM     19  C   UNL     1      -6.259  14.241  19.996  0.00  0.00    +0.000 A 
ENDBRANCH  12  14
BRANCH  13  20
ATOM     20  N   UNL     1      -2.619  13.530  21.508  0.00  0.00    +0.000 N 
ATOM     21  C   UNL     1      -2.462  14.870  21.800  0.00  0.00    +0.000 A 
ATOM     22  C   UNL     1      -2.153  15.025  23.134  0.00  0.00    +0.000 A 
ATOM     23  C   UNL     1      -2.104  13.739  23.700  0.00  0.00    +0.000 A 
ATOM     24  C   UNL     1      -2.368  12.844  22.686  0.00  0.00    +0.000 A 
ENDBRANCH  13  20
ENDBRANCH   5   9
BRANCH   1  26
ATOM     25  N   UNL     1       2.455   7.060  17.883  0.00  0.00    +0.000 N 
ATOM     26  C   UNL     1       2.027   8.131  18.656  0.00  0.00    +0.000 C 
ATOM     27  O   UNL     1       2.115   8.203  19.882  0.00  0.00    +0.000 OA
ATOM     28  H   UNL     1       2.399   7.150  16.875  0.00  0.00    +0.000 HD
BRANCH  25  33
ATOM     29  C   UNL     1       4.476   2.007  19.802  0.00  0.00    +0.000 C 
ATOM     30  C   UNL     1       3.911   3.319  19.327  0.00  0.00    +0.000 A 
ATOM     31  C   UNL     1       4.756   4.428  19.253  0.00  0.00    +0.000 A 
ATOM     32  C   UNL     1       4.287   5.660  18.793  0.00  0.00    +0.000 A 
ATOM     33  C   UNL     1       2.964   5.827  18.381  0.00  0.00    +0.000 A 
ATOM     34  C   UNL     1       2.103   4.722  18.479  0.00  0.00    +0.000 A 
ATOM     35  C   UNL     1       2.563   3.466  18.949  0.00  0.00    +0.000 A 
ATOM     36  C   UNL     1       1.618   2.297  19.037  0.00  0.00    +0.000 C 
ENDBRANCH  25  33
ENDBRANCH   1  26
TORSDOF 5
ENDMDL
MODEL 4
REMARK VINA RESULT:      -7.8      0.461      1.157
REMARK  Name = 
REMARK  7 active torsions:
REMARK  status: ('A' for Active; 'I' for Inactive)
REMARK    1  A    between atoms: C_1  and  C_2
REMARK    2  A    between atoms: C_5  and  N_6
REMARK    3  A    between atoms: C_7  and  C_9
REMARK    4  A    between atoms: C_13  and  C_15
REMARK    5  A    between atoms: N_18  and  C_19
REMARK    6  A    between atoms: C_25  and  N_26
REMARK    7  A    between atoms: C_34  and  C_35
REMARK                            x       y       z     vdW  Elec       q    Type
REMARK                         _______ _______ _______ _____ _____    ______ ____
ROOT
ATOM      1  C   UNL     1       1.247   9.222  21.857  0.00  0.00    +0.000 C 
ATOM      2  C   UNL     1       0.513   9.500  23.183  0.00  0.00    +0.000 C 
ATOM      3  C   UNL     1      -0.896  10.087  23.013  0.00  0.00    +0.000 C 
ATOM      4  N   UNL     1      -0.910  11.169  22.030  0.00  0.00    +0.000 N 
ATOM      5  C   UNL     1      -1.023  12.497  22.472  0.00  0.00    +0.000 C 
ATOM      6  O   UNL     1      -1.035  12.740  23.677  0.00  0.00    +0.000 OA
ATOM      7  C   UNL     1      -0.485  10.714  20.713  0.00  0.00    +0.000 C 
ATOM      8  C   UNL     1       0.997  10.337  20.808  0.00  0.00    +0.000 C 
ENDROOT
BRANCH   5   9
ATOM      9  C   UNL     1      -1.143  13.592  21.498  0.00  0.00    +0.000 A 
ATOM     10  C   UNL     1      -2.314  14.113  20.905  0.00  0.00    +0.000 A 
ATOM     11  N   UNL     1      -2.111  15.222  20.199  0.00  0.00    +0.000 NA
ATOM     12  N   UNL     1      -0.759  15.329  20.118  0.00  0.00    +0.000 N 
ATOM     13  C   UNL     1      -0.139  14.400  20.950  0.00  0.00    +0.000 A 
BRANCH  12  14
ATOM     14  C   UNL     1      -0.218  16.242  19.162  0.00  0.00    +0.000 A 
ATOM     15  C   UNL     1      -1.063  17.195  18.569  0.00  0.00    +0.000 A 
ATOM     16  C   UNL     1      -0.542  18.138  17.677  0.00  0.00    +0.000 A 
ATOM     17  C   UNL     1       0.814  18.119  17.353  0.00  0.00    +0.000 A 
ATOM     18  C   UNL     1       1.646  17.142  17.897  0.00  0.00    +0.000 A 
ATOM     19  C   UNL     1       1.131  16.198  18.787  0.00  0.00    +0.000 A 
ENDBRANCH  12  14
BRANCH  13  20
ATOM     20  N   UNL     1       1.236  14.394  21.215  0.00  0.00    +0.000 N 
ATOM     21  C   UNL     1       2.193  13.573  20.652  0.00  0.00    +0.000 A 
ATOM     22  C   UNL     1       3.443  13.929  21.110  0.00  0.00    +0.000 A 
ATOM     23  C   UNL     1       3.268  15.004  21.998  0.00  0.00    +0.000 A 
ATOM     24  C   UNL     1       1.914  15.255  22.064  0.00  0.00    +0.000 A 
ENDBRANCH  13  20
ENDBRANCH   5   9
BRANCH   1  26
ATOM     25  N   UNL     1       1.983   7.006  21.045  0.00  0.00    +0.000 N 
ATOM     26  C   UNL     1       0.903   7.853  21.254  0.00  0.00    +0.000 C 
ATOM     27  O   UNL     1      -0.269   7.588  20.983  0.00  0.00    +0.000 OA
ATOM     28  H   UNL     1       2.892   7.305  21.380  0.00  0.00    +0.000 HD
BRANCH  25  33
ATOM     29  C   UNL     1       1.912   1.893  18.371  0.00  0.00    +0.000 C 
ATOM     30  C   UNL     1       1.924   3.247  19.028  0.00  0.00    +0.000 A 
ATOM     31  C   UNL     1       1.242   3.416  20.235  0.00  0.00    +0.000 A 
ATOM     32  C   UNL     1       1.246   4.645  20.898  0.00  0.00    +0.000 A 
ATOM     33  C   UNL     1       1.937   5.744  20.387  0.00  0.00    +0.000 A 
ATOM     34  C   UNL     1       2.601   5.588  19.160  0.00  0.00    +0.000 A 
ATOM     35  C   UNL     1       2.602   4.349  18.472  0.00  0.00    +0.000 A 
ATOM     36  C   UNL     1       3.329   4.209  17.161  0.00  0.00    +0.000 C 
ENDBRANCH  25  33
ENDBRANCH   1  26
TORSDOF 5
ENDMDL
MODEL 5
REMARK VINA RESULT:      -7.7      3.210      4.789
REMARK  Name = 
REMARK  7 active torsions:
REMARK  status: ('A' for Active; 'I' for Inactive)
REMARK    1  A    between atoms: C_1  and  C_2
REMARK    2  A    between atoms: C_5  and  N_6
REMARK    3  A    between atoms: C_7  and  C_9
REMARK    4  A    between atoms: C_13  and  C_15
REMARK    5  A    between atoms: N_18  and  C_19
REMARK    6  A    between atoms: C_25  and  N_26
REMARK    7  A    between atoms: C_34  and  C_35
REMARK                            x       y       z     vdW  Elec       q    Type
REMARK                         _______ _______ _______ _____ _____    ______ ____
ROOT
ATOM      1  C   UNL     1       1.352   9.273  17.871  0.00  0.00    +0.000 C 
ATOM      2  C   UNL     1       2.014  10.636  18.156  0.00  0.00    +0.000 C 
ATOM      3  C   UNL     1       1.476  11.351  19.404  0.00  0.00    +0.000 C 
ATOM      4  N   UNL     1       0.016  11.323  19.448  0.00  0.00    +0.000 N 
ATOM      5  C   UNL     1      -0.703  12.495  19.159  0.00  0.00    +0.000 C 
ATOM      6  O   UNL     1      -0.101  13.506  18.803  0.00  0.00    +0.000 OA
ATOM      7  C   UNL     1      -0.503   9.963  19.489  0.00  0.00    +0.000 C 
ATOM      8  C   UNL     1      -0.173   9.299  18.148  0.00  0.00    +0.000 C 
ENDROOT
BRANCH   5   9
ATOM      9  C   UNL     1      -2.166  12.518  19.298  0.00  0.00    +0.000 A 
ATOM     10  C   UNL     1      -3.139  12.002  18.414  0.00  0.00    +0.000 A 
ATOM     11  N   UNL     1      -4.374  12.019  18.906  0.00  0.00    +0.000 NA
ATOM     12  N   UNL     1      -4.278  12.762  20.038  0.00  0.00    +0.000 N 
ATOM     13  C   UNL     1      -2.945  13.025  20.346  0.00  0.00    +0.000 A 
BRANCH  12  14
ATOM     14  C   UNL     1      -5.489  13.231  20.635  0.00  0.00    +0.000 A 
ATOM     15  C   UNL     1      -6.117  14.371  20.106  0.00  0.00    +0.000 A 
ATOM     16  C   UNL     1      -7.334  14.811  20.634  0.00  0.00    +0.000 A 
ATOM     17  C   UNL     1      -7.917  14.135  21.705  0.00  0.00    +0.000 A 
ATOM     18  C   UNL     1      -7.271  13.037  22.269  0.00  0.00    +0.000 A 
ATOM     19  C   UNL     1      -6.054  12.594  21.746  0.00  0.00    +0.000 A 
ENDBRANCH  12  14
BRANCH  13  20
ATOM     20  N   UNL     1      -2.528  13.610  21.548  0.00  0.00    +0.000 N 
ATOM     21  C   UNL     1      -2.250  12.967  22.738  0.00  0.00    +0.000 A 
ATOM     22  C   UNL     1      -1.792  13.877  23.665  0.00  0.00    +0.000 A 
ATOM     23  C   UNL     1      -1.789  15.137  23.042  0.00  0.00    +0.000 A 
ATOM     24  C   UNL     1      -2.263  14.954  21.762  0.00  0.00    +0.000 A 
ENDBRANCH  13  20
ENDBRANCH   5   9
BRANCH   1  26
ATOM     25  N   UNL     1       2.449   7.058  17.861  0.00  0.00    +0.000 N 
ATOM     26  C   UNL     1       2.003   8.115  18.642  0.00  0.00    +0.000 C 
ATOM     27  O   UNL     1       2.080   8.174  19.869  0.00  0.00    +0.000 OA
ATOM     28  H   UNL     1       2.400   7.158  16.854  0.00  0.00    +0.000 HD
BRANCH  25  33
ATOM     29  C   UNL     1       4.488   2.003  19.755  0.00  0.00    +0.000 C 
ATOM     30  C   UNL     1       3.924   3.320  19.293  0.00  0.00    +0.000 A 
ATOM     31  C   UNL     1       4.805   4.354  18.973  0.00  0.00    +0.000 A 
ATOM     32  C   UNL     1       4.332   5.585  18.514  0.00  0.00    +0.000 A 
ATOM     33  C   UNL     1       2.968   5.824  18.348  0.00  0.00    +0.000 A 
ATOM     34  C   UNL     1       2.076   4.797  18.695  0.00  0.00    +0.000 A 
ATOM     35  C   UNL     1       2.539   3.544  19.167  0.00  0.00    +0.000 A 
ATOM     36  C   UNL     1       1.560   2.458  19.525  0.00  0.00    +0.000 C 
ENDBRANCH  25  33
ENDBRANCH   1  26
TORSDOF 5
ENDMDL
MODEL 6
REMARK VINA RESULT:      -7.7      4.558      8.449
REMARK  Name = 
REMARK  7 active torsions:
REMARK  status: ('A' for Active; 'I' for Inactive)
REMARK    1  A    between atoms: C_1  and  C_2
REMARK    2  A    between atoms: C_5  and  N_6
REMARK    3  A    between atoms: C_7  and  C_9
REMARK    4  A    between atoms: C_13  and  C_15
REMARK    5  A    between atoms: N_18  and  C_19
REMARK    6  A    between atoms: C_25  and  N_26
REMARK    7  A    between atoms: C_34  and  C_35
REMARK                            x       y       z     vdW  Elec       q    Type
REMARK                         _______ _______ _______ _____ _____    ______ ____
ROOT
ATOM      1  C   UNL     1       4.706  16.675  19.976  0.00  0.00    +0.000 C 
ATOM      2  C   UNL     1       4.512  16.110  21.397  0.00  0.00    +0.000 C 
ATOM      3  C   UNL     1       4.172  14.613  21.440  0.00  0.00    +0.000 C 
ATOM      4  N   UNL     1       3.139  14.271  20.465  0.00  0.00    +0.000 N 
ATOM      5  C   UNL     1       1.835  14.003  20.912  0.00  0.00    +0.000 C 
ATOM      6  O   UNL     1       1.560  14.130  22.104  0.00  0.00    +0.000 OA
ATOM      7  C   UNL     1       3.557  14.565  19.101  0.00  0.00    +0.000 C 
ATOM      8  C   UNL     1       3.681  16.087  18.972  0.00  0.00    +0.000 C 
ENDROOT
BRANCH   5   9
ATOM      9  C   UNL     1       0.805  13.556  19.962  0.00  0.00    +0.000 A 
ATOM     10  C   UNL     1       0.397  14.171  18.758  0.00  0.00    +0.000 A 
ATOM     11  N   UNL     1      -0.432  13.429  18.031  0.00  0.00    +0.000 NA
ATOM     12  N   UNL     1      -0.776  12.402  18.850  0.00  0.00    +0.000 N 
ATOM     13  C   UNL     1       0.006  12.407  20.004  0.00  0.00    +0.000 A 
BRANCH  12  14
ATOM     14  C   UNL     1      -1.897  11.597  18.479  0.00  0.00    +0.000 A 
ATOM     15  C   UNL     1      -3.192  12.040  18.792  0.00  0.00    +0.000 A 
ATOM     16  C   UNL     1      -4.306  11.299  18.384  0.00  0.00    +0.000 A 
ATOM     17  C   UNL     1      -4.133  10.104  17.688  0.00  0.00    +0.000 A 
ATOM     18  C   UNL     1      -2.849   9.632  17.423  0.00  0.00    +0.000 A 
ATOM     19  C   UNL     1      -1.734  10.367  17.830  0.00  0.00    +0.000 A 
ENDBRANCH  12  14
BRANCH  13  20
ATOM     20  N   UNL     1       0.007  11.369  20.943  0.00  0.00    +0.000 N 
ATOM     21  C   UNL     1       0.735  10.197  20.893  0.00  0.00    +0.000 A 
ATOM     22  C   UNL     1       0.526   9.466  22.042  0.00  0.00    +0.000 A 
ATOM     23  C   UNL     1      -0.372  10.198  22.840  0.00  0.00    +0.000 A 
ATOM     24  C   UNL     1      -0.692  11.341  22.140  0.00  0.00    +0.000 A 
ENDBRANCH  13  20
ENDBRANCH   5   9
BRANCH   1  26
ATOM     25  N   UNL     1       6.816  15.388  19.954  0.00  0.00    +0.000 N 
ATOM     26  C   UNL     1       6.131  16.480  19.439  0.00  0.00    +0.000 C 
ATOM     27  O   UNL     1       6.584  17.281  18.621  0.00  0.00    +0.000 OA
ATOM     28  H   UNL     1       6.311  14.756  20.564  0.00  0.00    +0.000 HD
BRANCH  25  33
ATOM     29  C   UNL     1      12.333  14.109  18.845  0.00  0.00    +0.000 C 
ATOM     30  C   UNL     1      10.885  14.398  19.140  0.00  0.00    +0.000 A 
ATOM     31  C   UNL     1      10.570  15.471  19.976  0.00  0.00    +0.000 A 
ATOM     32  C   UNL     1       9.242  15.797  20.258  0.00  0.00    +0.000 A 
ATOM     33  C   UNL     1       8.184  15.073  19.709  0.00  0.00    +0.000 A 
ATOM     34  C   UNL     1       8.495  13.975  18.890  0.00  0.00    +0.000 A 
ATOM     35  C   UNL     1       9.838  13.629  18.598  0.00  0.00    +0.000 A 
ATOM     36  C   UNL     1      10.143  12.451  17.711  0.00  0.00    +0.000 C 
ENDBRANCH  25  33
ENDBRANCH   1  26
TORSDOF 5
ENDMDL
MODEL 7
REMARK VINA RESULT:      -7.7      3.371      5.425
REMARK  Name = 
REMARK  7 active torsions:
REMARK  status: ('A' for Active; 'I' for Inactive)
REMARK    1  A    between atoms: C_1  and  C_2
REMARK    2  A    between atoms: C_5  and  N_6
REMARK    3  A    between atoms: C_7  and  C_9
REMARK    4  A    between atoms: C_13  and  C_15
REMARK    5  A    between atoms: N_18  and  C_19
REMARK    6  A    between atoms: C_25  and  N_26
REMARK    7  A    between atoms: C_34  and  C_35
REMARK                            x       y       z     vdW  Elec       q    Type
REMARK                         _______ _______ _______ _____ _____    ______ ____
ROOT
ATOM      1  C   UNL     1       1.352   9.119  18.026  0.00  0.00    +0.000 C 
ATOM      2  C   UNL     1       2.181  10.417  17.954  0.00  0.00    +0.000 C 
ATOM      3  C   UNL     1       1.987  11.357  19.152  0.00  0.00    +0.000 C 
ATOM      4  N   UNL     1       0.573  11.514  19.486  0.00  0.00    +0.000 N 
ATOM      5  C   UNL     1      -0.081  12.713  19.160  0.00  0.00    +0.000 C 
ATOM      6  O   UNL     1       0.521  13.585  18.535  0.00  0.00    +0.000 OA
ATOM      7  C   UNL     1      -0.046  10.246  19.845  0.00  0.00    +0.000 C 
ATOM      8  C   UNL     1      -0.071   9.368  18.589  0.00  0.00    +0.000 C 
ENDROOT
BRANCH   5   9
ATOM      9  C   UNL     1      -1.473  12.934  19.578  0.00  0.00    +0.000 A 
ATOM     10  C   UNL     1      -1.960  13.801  20.580  0.00  0.00    +0.000 A 
ATOM     11  N   UNL     1      -3.285  13.909  20.598  0.00  0.00    +0.000 NA
ATOM     12  N   UNL     1      -3.716  12.933  19.758  0.00  0.00    +0.000 N 
ATOM     13  C   UNL     1      -2.647  12.366  19.068  0.00  0.00    +0.000 A 
BRANCH  12  14
ATOM     14  C   UNL     1      -5.101  12.581  19.798  0.00  0.00    +0.000 A 
ATOM     15  C   UNL     1      -5.670  12.174  21.016  0.00  0.00    +0.000 A 
ATOM     16  C   UNL     1      -7.036  11.884  21.091  0.00  0.00    +0.000 A 
ATOM     17  C   UNL     1      -7.833  11.972  19.951  0.00  0.00    +0.000 A 
ATOM     18  C   UNL     1      -7.263  12.322  18.728  0.00  0.00    +0.000 A 
ATOM     19  C   UNL     1      -5.899  12.611  18.648  0.00  0.00    +0.000 A 
ENDBRANCH  12  14
BRANCH  13  20
ATOM     20  N   UNL     1      -2.800  11.468  18.005  0.00  0.00    +0.000 N 
ATOM     21  C   UNL     1      -3.412  10.231  18.038  0.00  0.00    +0.000 A 
ATOM     22  C   UNL     1      -3.433   9.686  16.773  0.00  0.00    +0.000 A 
ATOM     23  C   UNL     1      -2.805  10.606  15.915  0.00  0.00    +0.000 A 
ATOM     24  C   UNL     1      -2.408  11.672  16.691  0.00  0.00    +0.000 A 
ENDBRANCH  13  20
ENDBRANCH   5   9
BRANCH   1  26
ATOM     25  N   UNL     1       2.454   6.907  18.089  0.00  0.00    +0.000 N 
ATOM     26  C   UNL     1       2.043   8.008  18.829  0.00  0.00    +0.000 C 
ATOM     27  O   UNL     1       2.180   8.136  20.046  0.00  0.00    +0.000 OA
ATOM     28  H   UNL     1       2.356   6.950  17.081  0.00  0.00    +0.000 HD
BRANCH  25  33
ATOM     29  C   UNL     1       4.571   1.974  20.206  0.00  0.00    +0.000 C 
ATOM     30  C   UNL     1       4.002   3.271  19.695  0.00  0.00    +0.000 A 
ATOM     31  C   UNL     1       4.783   4.061  18.850  0.00  0.00    +0.000 A 
ATOM     32  C   UNL     1       4.290   5.259  18.327  0.00  0.00    +0.000 A 
ATOM     33  C   UNL     1       3.001   5.704  18.621  0.00  0.00    +0.000 A 
ATOM     34  C   UNL     1       2.222   4.927  19.493  0.00  0.00    +0.000 A 
ATOM     35  C   UNL     1       2.709   3.712  20.036  0.00  0.00    +0.000 A 
ATOM     36  C   UNL     1       1.849   2.895  20.963  0.00  0.00    +0.000 C 
ENDBRANCH  25  33
ENDBRANCH   1  26
TORSDOF 5
ENDMDL
MODEL 8
REMARK VINA RESULT:      -7.6      3.108      4.871
REMARK  Name = 
REMARK  7 active torsions:
REMARK  status: ('A' for Active; 'I' for Inactive)
REMARK    1  A    between atoms: C_1  and  C_2
REMARK    2  A    between atoms: C_5  and  N_6
REMARK    3  A    between atoms: C_7  and  C_9
REMARK    4  A    between atoms: C_13  and  C_15
REMARK    5  A    between atoms: N_18  and  C_19
REMARK    6  A    between atoms: C_25  and  N_26
REMARK    7  A    between atoms: C_34  and  C_35
REMARK                            x       y       z     vdW  Elec       q    Type
REMARK                         _______ _______ _______ _____ _____    ______ ____
ROOT
ATOM      1  C   UNL     1       0.782  10.071  18.260  0.00  0.00    +0.000 C 
ATOM      2  C   UNL     1       1.508  11.397  18.560  0.00  0.00    +0.000 C 
ATOM      3  C   UNL     1       1.197  11.988  19.943  0.00  0.00    +0.000 C 
ATOM      4  N   UNL     1      -0.237  11.960  20.227  0.00  0.00    +0.000 N 
ATOM      5  C   UNL     1      -0.971  13.156  20.176  0.00  0.00    +0.000 C 
ATOM      6  O   UNL     1      -0.418  14.196  19.823  0.00  0.00    +0.000 OA
ATOM      7  C   UNL     1      -0.767  10.603  20.223  0.00  0.00    +0.000 C 
ATOM      8  C   UNL     1      -0.676  10.073  18.788  0.00  0.00    +0.000 C 
ENDROOT
BRANCH   5   9
ATOM      9  C   UNL     1      -2.390  13.169  20.558  0.00  0.00    +0.000 A 
ATOM     10  C   UNL     1      -3.481  12.563  19.898  0.00  0.00    +0.000 A 
ATOM     11  N   UNL     1      -4.617  12.604  20.588  0.00  0.00    +0.000 NA
ATOM     12  N   UNL     1      -4.355  13.446  21.621  0.00  0.00    +0.000 N 
ATOM     13  C   UNL     1      -2.998  13.755  21.676  0.00  0.00    +0.000 A 
BRANCH  12  14
ATOM     14  C   UNL     1      -5.463  13.947  22.372  0.00  0.00    +0.000 A 
ATOM     15  C   UNL     1      -6.194  13.066  23.186  0.00  0.00    +0.000 A 
ATOM     16  C   UNL     1      -7.243  13.546  23.976  0.00  0.00    +0.000 A 
ATOM     17  C   UNL     1      -7.584  14.898  23.939  0.00  0.00    +0.000 A 
ATOM     18  C   UNL     1      -6.897  15.766  23.093  0.00  0.00    +0.000 A 
ATOM     19  C   UNL     1      -5.850  15.291  22.300  0.00  0.00    +0.000 A 
ENDBRANCH  12  14
BRANCH  13  20
ATOM     20  N   UNL     1      -2.404  14.449  22.736  0.00  0.00    +0.000 N 
ATOM     21  C   UNL     1      -2.105  15.795  22.791  0.00  0.00    +0.000 A 
ATOM     22  C   UNL     1      -1.601  16.113  24.033  0.00  0.00    +0.000 A 
ATOM     23  C   UNL     1      -1.573  14.926  24.785  0.00  0.00    +0.000 A 
ATOM     24  C   UNL     1      -2.045  13.922  23.967  0.00  0.00    +0.000 A 
ENDBRANCH  13  20
ENDBRANCH   5   9
BRANCH   1  26
ATOM     25  N   UNL     1       2.011   7.970  17.830  0.00  0.00    +0.000 N 
ATOM     26  C   UNL     1       1.529   8.842  18.796  0.00  0.00    +0.000 C 
ATOM     27  O   UNL     1       1.646   8.688  20.013  0.00  0.00    +0.000 OA
ATOM     28  H   UNL     1       1.921   8.243  16.858  0.00  0.00    +0.000 HD
BRANCH  25  33
ATOM     29  C   UNL     1       4.430   2.811  18.738  0.00  0.00    +0.000 C 
ATOM     30  C   UNL     1       3.766   4.145  18.530  0.00  0.00    +0.000 A 
ATOM     31  C   UNL     1       4.560   5.293  18.492  0.00  0.00    +0.000 A 
ATOM     32  C   UNL     1       3.994   6.551  18.274  0.00  0.00    +0.000 A 
ATOM     33  C   UNL     1       2.622   6.707  18.077  0.00  0.00    +0.000 A 
ATOM     34  C   UNL     1       1.816   5.560  18.143  0.00  0.00    +0.000 A 
ATOM     35  C   UNL     1       2.373   4.277  18.368  0.00  0.00    +0.000 A 
ATOM     36  C   UNL     1       1.485   3.062  18.426  0.00  0.00    +0.000 C 
ENDBRANCH  25  33
ENDBRANCH   1  26
TORSDOF 5
ENDMDL
MODEL 9
REMARK VINA RESULT:      -7.6      3.110      4.914
REMARK  Name = 
REMARK  7 active torsions:
REMARK  status: ('A' for Active; 'I' for Inactive)
REMARK    1  A    between atoms: C_1  and  C_2
REMARK    2  A    between atoms: C_5  and  N_6
REMARK    3  A    between atoms: C_7  and  C_9
REMARK    4  A    between atoms: C_13  and  C_15
REMARK    5  A    between atoms: N_18  and  C_19
REMARK    6  A    between atoms: C_25  and  N_26
REMARK    7  A    between atoms: C_34  and  C_35
REMARK                            x       y       z     vdW  Elec       q    Type
REMARK                         _______ _______ _______ _____ _____    ______ ____
ROOT
ATOM      1  C   UNL     1       0.827  10.010  18.288  0.00  0.00    +0.000 C 
ATOM      2  C   UNL     1       1.564  11.335  18.566  0.00  0.00    +0.000 C 
ATOM      3  C   UNL     1       1.243  11.962  19.930  0.00  0.00    +0.000 C 
ATOM      4  N   UNL     1      -0.194  11.957  20.197  0.00  0.00    +0.000 N 
ATOM      5  C   UNL     1      -0.914  13.159  20.107  0.00  0.00    +0.000 C 
ATOM      6  O   UNL     1      -0.344  14.184  19.737  0.00  0.00    +0.000 OA
ATOM      7  C   UNL     1      -0.740  10.606  20.218  0.00  0.00    +0.000 C 
ATOM      8  C   UNL     1      -0.637  10.041  18.797  0.00  0.00    +0.000 C 
ENDROOT
BRANCH   5   9
ATOM      9  C   UNL     1      -2.337  13.198  20.471  0.00  0.00    +0.000 A 
ATOM     10  C   UNL     1      -3.430  12.605  19.801  0.00  0.00    +0.000 A 
ATOM     11  N   UNL     1      -4.573  12.668  20.476  0.00  0.00    +0.000 NA
ATOM     12  N   UNL     1      -4.311  13.513  21.507  0.00  0.00    +0.000 N 
ATOM     13  C   UNL     1      -2.950  13.801  21.577  0.00  0.00    +0.000 A 
BRANCH  12  14
ATOM     14  C   UNL     1      -5.420  14.037  22.240  0.00  0.00    +0.000 A 
ATOM     15  C   UNL     1      -6.090  13.208  23.155  0.00  0.00    +0.000 A 
ATOM     16  C   UNL     1      -7.138  13.717  23.928  0.00  0.00    +0.000 A 
ATOM     17  C   UNL     1      -7.539  15.043  23.774  0.00  0.00    +0.000 A 
ATOM     18  C   UNL     1      -6.914  15.855  22.830  0.00  0.00    +0.000 A 
ATOM     19  C   UNL     1      -5.868  15.351  22.055  0.00  0.00    +0.000 A 
ENDBRANCH  12  14
BRANCH  13  20
ATOM     20  N   UNL     1      -2.358  14.492  22.640  0.00  0.00    +0.000 N 
ATOM     21  C   UNL     1      -2.101  15.847  22.717  0.00  0.00    +0.000 A 
ATOM     22  C   UNL     1      -1.584  16.156  23.956  0.00  0.00    +0.000 A 
ATOM     23  C   UNL     1      -1.505  14.955  24.683  0.00  0.00    +0.000 A 
ATOM     24  C   UNL     1      -1.960  13.953  23.854  0.00  0.00    +0.000 A 
ENDBRANCH  13  20
ENDBRANCH   5   9
BRANCH   1  26
ATOM     25  N   UNL     1       2.070   7.905  17.922  0.00  0.00    +0.000 N 
ATOM     26  C   UNL     1       1.553   8.785  18.863  0.00  0.00    +0.000 C 
ATOM     27  O   UNL     1       1.625   8.643  20.084  0.00  0.00    +0.000 OA
ATOM     28  H   UNL     1       2.015   8.168  16.945  0.00  0.00    +0.000 HD
BRANCH  25  33
ATOM     29  C   UNL     1       4.551   2.845  19.162  0.00  0.00    +0.000 C 
ATOM     30  C   UNL     1       3.939   4.175  18.812  0.00  0.00    +0.000 A 
ATOM     31  C   UNL     1       2.572   4.235  18.537  0.00  0.00    +0.000 A 
ATOM     32  C   UNL     1       1.952   5.449  18.234  0.00  0.00    +0.000 A 
ATOM     33  C   UNL     1       2.670   6.644  18.204  0.00  0.00    +0.000 A 
ATOM     34  C   UNL     1       4.051   6.585  18.453  0.00  0.00    +0.000 A 
ATOM     35  C   UNL     1       4.696   5.361  18.757  0.00  0.00    +0.000 A 
ATOM     36  C   UNL     1       6.177   5.329  19.026  0.00  0.00    +0.000 C 
ENDBRANCH  25  33
ENDBRANCH   1  26
TORSDOF 5
ENDMDL
