MODEL 1
REMARK VINA RESULT:      -7.8      0.000      0.000
REMARK  Name = 
REMARK  1 active torsions:
REMARK  status: ('A' for Active; 'I' for Inactive)
REMARK    1  A    between atoms: C_4  and  C_5
REMARK                            x       y       z     vdW  Elec       q    Type
REMARK                         _______ _______ _______ _____ _____    ______ ____
ROOT
ATOM      1  O   UNL     1       4.803   3.681  15.265  0.00  0.00    +0.000 OA
ATOM      2  C   UNL     1       4.839   4.092  16.414  0.00  0.00    +0.000 C 
ATOM      3  N   UNL     1       5.649   5.149  16.748  0.00  0.00    +0.000 N 
ATOM      4  C   UNL     1       5.610   5.900  17.997  0.00  0.00    +0.000 C 
ATOM      5  C   UNL     1       6.157   4.989  19.115  0.00  0.00    +0.000 C 
ATOM      6  O   UNL     1       6.949   5.416  19.966  0.00  0.00    +0.000 OA
ATOM      7  N   UNL     1       5.648   3.725  19.298  0.00  0.00    +0.000 N 
ATOM      8  C   UNL     1       4.421   3.281  18.776  0.00  0.00    +0.000 A 
ATOM      9  C   UNL     1       3.567   2.642  19.684  0.00  0.00    +0.000 A 
ATOM     10  C   UNL     1       2.251   2.344  19.325  0.00  0.00    +0.000 A 
ATOM     11  C   UNL     1       1.806   2.601  18.030  0.00  0.00    +0.000 A 
ATOM     12  C   UNL     1       2.683   3.137  17.089  0.00  0.00    +0.000 A 
ATOM     13  C   UNL     1       3.983   3.501  17.464  0.00  0.00    +0.000 A 
ATOM     14  H   UNL     1       6.155   5.546  15.969  0.00  0.00    +0.000 HD
ATOM     15  H   UNL     1       5.963   3.328  20.175  0.00  0.00    +0.000 HD
ENDROOT
BRANCH   4  16
ATOM     16  C   UNL     1       4.259   6.560  18.276  0.00  0.00    +0.000 A 
ATOM     17  C   UNL     1       3.696   7.498  17.393  0.00  0.00    +0.000 A 
ATOM     18  C   UNL     1       2.523   8.184  17.728  0.00  0.00    +0.000 A 
ATOM     19  C   UNL     1       1.867   7.912  18.926  0.00  0.00    +0.000 A 
ATOM     20  C   UNL     1       2.356   6.919  19.767  0.00  0.00    +0.000 A 
ATOM     21  C   UNL     1       3.533   6.241  19.439  0.00  0.00    +0.000 A 
ENDBRANCH   4  16
TORSDOF 1
ENDMDL
MODEL 2
REMARK VINA RESULT:      -7.7      1.272      1.885
REMARK  Name = 
REMARK  1 active torsions:
REMARK  status: ('A' for Active; 'I' for Inactive)
REMARK    1  A    between atoms: C_4  and  C_5
REMARK                            x       y       z     vdW  Elec       q    Type
REMARK                         _______ _______ _______ _____ _____    ______ ____
ROOT
ATOM      1  O   UNL     1       2.458   2.824  16.316  0.00  0.00    +0.000 OA
ATOM      2  C   UNL     1       3.019   3.415  17.227  0.00  0.00    +0.000 C 
ATOM      3  N   UNL     1       4.093   4.228  16.966  0.00  0.00    +0.000 N 
ATOM      4  C   UNL     1       4.696   5.178  17.894  0.00  0.00    +0.000 C 
ATOM      5  C   UNL     1       5.432   4.374  18.985  0.00  0.00    +0.000 C 
ATOM      6  O   UNL     1       6.561   4.699  19.376  0.00  0.00    +0.000 OA
ATOM      7  N   UNL     1       4.785   3.375  19.672  0.00  0.00    +0.000 N 
ATOM      8  C   UNL     1       3.388   3.223  19.724  0.00  0.00    +0.000 A 
ATOM      9  C   UNL     1       2.840   3.048  21.001  0.00  0.00    +0.000 A 
ATOM     10  C   UNL     1       1.457   3.091  21.186  0.00  0.00    +0.000 A 
ATOM     11  C   UNL     1       0.609   3.220  20.088  0.00  0.00    +0.000 A 
ATOM     12  C   UNL     1       1.144   3.285  18.803  0.00  0.00    +0.000 A 
ATOM     13  C   UNL     1       2.533   3.312  18.618  0.00  0.00    +0.000 A 
ATOM     14  H   UNL     1       4.329   4.303  15.987  0.00  0.00    +0.000 HD
ATOM     15  H   UNL     1       5.324   3.074  20.475  0.00  0.00    +0.000 HD
ENDROOT
BRANCH   4  16
ATOM     16  C   UNL     1       3.726   6.248  18.395  0.00  0.00    +0.000 A 
ATOM     17  C   UNL     1       3.216   6.234  19.705  0.00  0.00    +0.000 A 
ATOM     18  C   UNL     1       2.233   7.146  20.103  0.00  0.00    +0.000 A 
ATOM     19  C   UNL     1       1.777   8.118  19.217  0.00  0.00    +0.000 A 
ATOM     20  C   UNL     1       2.338   8.210  17.948  0.00  0.00    +0.000 A 
ATOM     21  C   UNL     1       3.312   7.292  17.546  0.00  0.00    +0.000 A 
ENDBRANCH   4  16
TORSDOF 1
ENDMDL
MODEL 3
REMARK VINA RESULT:      -7.6      0.121      1.110
REMARK  Name = 
REMARK  1 active torsions:
REMARK  status: ('A' for Active; 'I' for Inactive)
REMARK    1  A    between atoms: C_4  and  C_5
REMARK                            x       y       z     vdW  Elec       q    Type
REMARK                         _______ _______ _______ _____ _____    ______ ____
ROOT
ATOM      1  O   UNL     1       4.790   3.772  15.216  0.00  0.00    +0.000 OA
ATOM      2  C   UNL     1       4.852   4.165  16.371  0.00  0.00    +0.000 C 
ATOM      3  N   UNL     1       5.689   5.200  16.707  0.00  0.00    +0.000 N 
ATOM      4  C   UNL     1       5.685   5.932  17.968  0.00  0.00    +0.000 C 
ATOM      5  C   UNL     1       6.230   4.994  19.063  0.00  0.00    +0.000 C 
ATOM      6  O   UNL     1       7.043   5.391  19.908  0.00  0.00    +0.000 OA
ATOM      7  N   UNL     1       5.697   3.738  19.236  0.00  0.00    +0.000 N 
ATOM      8  C   UNL     1       4.453   3.327  18.727  0.00  0.00    +0.000 A 
ATOM      9  C   UNL     1       3.600   2.692  19.639  0.00  0.00    +0.000 A 
ATOM     10  C   UNL     1       2.273   2.428  19.295  0.00  0.00    +0.000 A 
ATOM     11  C   UNL     1       1.813   2.713  18.012  0.00  0.00    +0.000 A 
ATOM     12  C   UNL     1       2.687   3.245  17.065  0.00  0.00    +0.000 A 
ATOM     13  C   UNL     1       4.001   3.576  17.425  0.00  0.00    +0.000 A 
ATOM     14  H   UNL     1       6.192   5.597  15.927  0.00  0.00    +0.000 HD
ATOM     15  H   UNL     1       6.017   3.321  20.102  0.00  0.00    +0.000 HD
ENDROOT
BRANCH   4  16
ATOM     16  C   UNL     1       4.353   6.616  18.277  0.00  0.00    +0.000 A 
ATOM     17  C   UNL     1       3.625   6.329  19.444  0.00  0.00    +0.000 A 
ATOM     18  C   UNL     1       2.350   6.870  19.645  0.00  0.00    +0.000 A 
ATOM     19  C   UNL     1       1.800   7.741  18.710  0.00  0.00    +0.000 A 
ATOM     20  C   UNL     1       2.545   8.114  17.596  0.00  0.00    +0.000 A 
ATOM     21  C   UNL     1       3.813   7.566  17.389  0.00  0.00    +0.000 A 
ENDBRANCH   4  16
TORSDOF 1
ENDMDL
MODEL 4
REMARK VINA RESULT:      -7.6      1.290      1.553
REMARK  Name = 
REMARK  1 active torsions:
REMARK  status: ('A' for Active; 'I' for Inactive)
REMARK    1  A    between atoms: C_4  and  C_5
REMARK                            x       y       z     vdW  Elec       q    Type
REMARK                         _______ _______ _______ _____ _____    ______ ____
ROOT
ATOM      1  O   UNL     1       2.523   2.785  16.339  0.00  0.00    +0.000 OA
ATOM      2  C   UNL     1       3.025   3.408  17.262  0.00  0.00    +0.000 C 
ATOM      3  N   UNL     1       4.046   4.295  17.025  0.00  0.00    +0.000 N 
ATOM      4  C   UNL     1       4.565   5.279  17.968  0.00  0.00    +0.000 C 
ATOM      5  C   UNL     1       5.335   4.521  19.068  0.00  0.00    +0.000 C 
ATOM      6  O   UNL     1       6.431   4.921  19.482  0.00  0.00    +0.000 OA
ATOM      7  N   UNL     1       4.746   3.476  19.739  0.00  0.00    +0.000 N 
ATOM      8  C   UNL     1       3.363   3.227  19.765  0.00  0.00    +0.000 A 
ATOM      9  C   UNL     1       2.805   3.007  21.031  0.00  0.00    +0.000 A 
ATOM     10  C   UNL     1       1.419   2.954  21.191  0.00  0.00    +0.000 A 
ATOM     11  C   UNL     1       0.584   3.030  20.078  0.00  0.00    +0.000 A 
ATOM     12  C   UNL     1       1.137   3.140  18.803  0.00  0.00    +0.000 A 
ATOM     13  C   UNL     1       2.524   3.263  18.643  0.00  0.00    +0.000 A 
ATOM     14  H   UNL     1       4.294   4.392  16.051  0.00  0.00    +0.000 HD
ATOM     15  H   UNL     1       5.291   3.209  20.550  0.00  0.00    +0.000 HD
ENDROOT
BRANCH   4  16
ATOM     16  C   UNL     1       3.514   6.276  18.456  0.00  0.00    +0.000 A 
ATOM     17  C   UNL     1       2.991   7.273  17.615  0.00  0.00    +0.000 A 
ATOM     18  C   UNL     1       2.127   8.254  18.115  0.00  0.00    +0.000 A 
ATOM     19  C   UNL     1       1.734   8.229  19.450  0.00  0.00    +0.000 A 
ATOM     20  C   UNL     1       2.163   7.194  20.274  0.00  0.00    +0.000 A 
ATOM     21  C   UNL     1       3.035   6.222  19.779  0.00  0.00    +0.000 A 
ENDBRANCH   4  16
TORSDOF 1
ENDMDL
MODEL 5
REMARK VINA RESULT:      -7.5      2.340      4.060
REMARK  Name = 
REMARK  1 active torsions:
REMARK  status: ('A' for Active; 'I' for Inactive)
REMARK    1  A    between atoms: C_4  and  C_5
REMARK                            x       y       z     vdW  Elec       q    Type
REMARK                         _______ _______ _______ _____ _____    ______ ____
ROOT
ATOM      1  O   UNL     1       4.910   2.273  21.029  0.00  0.00    +0.000 OA
ATOM      2  C   UNL     1       4.037   2.614  20.246  0.00  0.00    +0.000 C 
ATOM      3  N   UNL     1       2.717   2.578  20.621  0.00  0.00    +0.000 N 
ATOM      4  C   UNL     1       1.602   3.181  19.899  0.00  0.00    +0.000 C 
ATOM      5  C   UNL     1       1.371   2.363  18.613  0.00  0.00    +0.000 C 
ATOM      6  O   UNL     1       0.231   2.055  18.240  0.00  0.00    +0.000 OA
ATOM      7  N   UNL     1       2.413   2.102  17.755  0.00  0.00    +0.000 N 
ATOM      8  C   UNL     1       3.633   2.799  17.752  0.00  0.00    +0.000 A 
ATOM      9  C   UNL     1       4.072   3.258  16.504  0.00  0.00    +0.000 A 
ATOM     10  C   UNL     1       5.159   4.129  16.416  0.00  0.00    +0.000 A 
ATOM     11  C   UNL     1       5.869   4.479  17.562  0.00  0.00    +0.000 A 
ATOM     12  C   UNL     1       5.505   3.939  18.794  0.00  0.00    +0.000 A 
ATOM     13  C   UNL     1       4.373   3.119  18.898  0.00  0.00    +0.000 A 
ATOM     14  H   UNL     1       2.565   2.286  21.575  0.00  0.00    +0.000 HD
ATOM     15  H   UNL     1       2.077   1.730  16.874  0.00  0.00    +0.000 HD
ENDROOT
BRANCH   4  16
ATOM     16  C   UNL     1       1.737   4.693  19.714  0.00  0.00    +0.000 A 
ATOM     17  C   UNL     1       1.916   5.272  18.446  0.00  0.00    +0.000 A 
ATOM     18  C   UNL     1       2.165   6.643  18.312  0.00  0.00    +0.000 A 
ATOM     19  C   UNL     1       2.192   7.465  19.434  0.00  0.00    +0.000 A 
ATOM     20  C   UNL     1       1.921   6.928  20.687  0.00  0.00    +0.000 A 
ATOM     21  C   UNL     1       1.684   5.557  20.824  0.00  0.00    +0.000 A 
ENDBRANCH   4  16
TORSDOF 1
ENDMDL
MODEL 6
REMARK VINA RESULT:      -7.1      2.297      4.138
REMARK  Name = 
REMARK  1 active torsions:
REMARK  status: ('A' for Active; 'I' for Inactive)
REMARK    1  A    between atoms: C_4  and  C_5
REMARK                            x       y       z     vdW  Elec       q    Type
REMARK                         _______ _______ _______ _____ _____    ______ ____
ROOT
ATOM      1  O   UNL     1       4.921   2.225  21.001  0.00  0.00    +0.000 OA
ATOM      2  C   UNL     1       4.069   2.632  20.226  0.00  0.00    +0.000 C 
ATOM      3  N   UNL     1       2.746   2.637  20.593  0.00  0.00    +0.000 N 
ATOM      4  C   UNL     1       1.663   3.313  19.888  0.00  0.00    +0.000 C 
ATOM      5  C   UNL     1       1.406   2.554  18.571  0.00  0.00    +0.000 C 
ATOM      6  O   UNL     1       0.257   2.308  18.180  0.00  0.00    +0.000 OA
ATOM      7  N   UNL     1       2.442   2.280  17.710  0.00  0.00    +0.000 N 
ATOM      8  C   UNL     1       3.691   2.925  17.740  0.00  0.00    +0.000 A 
ATOM      9  C   UNL     1       4.158   3.410  16.511  0.00  0.00    +0.000 A 
ATOM     10  C   UNL     1       5.281   4.238  16.462  0.00  0.00    +0.000 A 
ATOM     11  C   UNL     1       5.997   4.514  17.624  0.00  0.00    +0.000 A 
ATOM     12  C   UNL     1       5.601   3.946  18.833  0.00  0.00    +0.000 A 
ATOM     13  C   UNL     1       4.436   3.171  18.901  0.00  0.00    +0.000 A 
ATOM     14  H   UNL     1       2.575   2.317  21.534  0.00  0.00    +0.000 HD
ATOM     15  H   UNL     1       2.097   1.956  16.814  0.00  0.00    +0.000 HD
ENDROOT
BRANCH   4  16
ATOM     16  C   UNL     1       1.862   4.824  19.760  0.00  0.00    +0.000 A 
ATOM     17  C   UNL     1       1.799   5.678  20.874  0.00  0.00    +0.000 A 
ATOM     18  C   UNL     1       1.856   7.067  20.718  0.00  0.00    +0.000 A 
ATOM     19  C   UNL     1       2.026   7.626  19.454  0.00  0.00    +0.000 A 
ATOM     20  C   UNL     1       2.189   6.795  18.351  0.00  0.00    +0.000 A 
ATOM     21  C   UNL     1       2.119   5.407  18.505  0.00  0.00    +0.000 A 
ENDBRANCH   4  16
TORSDOF 1
ENDMDL
MODEL 7
REMARK VINA RESULT:      -7.0      1.965      3.726
REMARK  Name = 
REMARK  1 active torsions:
REMARK  status: ('A' for Active; 'I' for Inactive)
REMARK    1  A    between atoms: C_4  and  C_5
REMARK                            x       y       z     vdW  Elec       q    Type
REMARK                         _______ _______ _______ _____ _____    ______ ____
ROOT
ATOM      1  O   UNL     1       1.848   3.536  16.540  0.00  0.00    +0.000 OA
ATOM      2  C   UNL     1       2.616   3.660  17.481  0.00  0.00    +0.000 C 
ATOM      3  N   UNL     1       3.615   2.741  17.687  0.00  0.00    +0.000 N 
ATOM      4  C   UNL     1       4.743   2.889  18.600  0.00  0.00    +0.000 C 
ATOM      5  C   UNL     1       4.204   2.787  20.040  0.00  0.00    +0.000 C 
ATOM      6  O   UNL     1       4.793   2.122  20.904  0.00  0.00    +0.000 OA
ATOM      7  N   UNL     1       3.150   3.568  20.449  0.00  0.00    +0.000 N 
ATOM      8  C   UNL     1       2.710   4.722  19.778  0.00  0.00    +0.000 A 
ATOM      9  C   UNL     1       2.527   5.860  20.575  0.00  0.00    +0.000 A 
ATOM     10  C   UNL     1       2.290   7.103  19.985  0.00  0.00    +0.000 A 
ATOM     11  C   UNL     1       2.147   7.204  18.603  0.00  0.00    +0.000 A 
ATOM     12  C   UNL     1       2.220   6.058  17.813  0.00  0.00    +0.000 A 
ATOM     13  C   UNL     1       2.526   4.819  18.393  0.00  0.00    +0.000 A 
ATOM     14  H   UNL     1       3.659   2.013  16.990  0.00  0.00    +0.000 HD
ATOM     15  H   UNL     1       3.037   3.533  21.455  0.00  0.00    +0.000 HD
ENDROOT
BRANCH   4  16
ATOM     16  C   UNL     1       5.620   4.106  18.300  0.00  0.00    +0.000 A 
ATOM     17  C   UNL     1       5.912   4.504  16.984  0.00  0.00    +0.000 A 
ATOM     18  C   UNL     1       6.819   5.540  16.733  0.00  0.00    +0.000 A 
ATOM     19  C   UNL     1       7.411   6.227  17.788  0.00  0.00    +0.000 A 
ATOM     20  C   UNL     1       7.061   5.912  19.097  0.00  0.00    +0.000 A 
ATOM     21  C   UNL     1       6.166   4.870  19.349  0.00  0.00    +0.000 A 
ENDBRANCH   4  16
TORSDOF 1
ENDMDL
MODEL 8
REMARK VINA RESULT:      -6.9      0.898      4.308
REMARK  Name = 
REMARK  1 active torsions:
REMARK  status: ('A' for Active; 'I' for Inactive)
REMARK    1  A    between atoms: C_4  and  C_5
REMARK                            x       y       z     vdW  Elec       q    Type
REMARK                         _______ _______ _______ _____ _____    ______ ____
ROOT
ATOM      1  O   UNL     1       6.427   5.174  19.958  0.00  0.00    +0.000 OA
ATOM      2  C   UNL     1       5.741   5.015  18.960  0.00  0.00    +0.000 C 
ATOM      3  N   UNL     1       5.992   3.971  18.106  0.00  0.00    +0.000 N 
ATOM      4  C   UNL     1       5.119   3.511  17.032  0.00  0.00    +0.000 C 
ATOM      5  C   UNL     1       5.144   4.573  15.914  0.00  0.00    +0.000 C 
ATOM      6  O   UNL     1       5.230   4.252  14.721  0.00  0.00    +0.000 OA
ATOM      7  N   UNL     1       4.899   5.895  16.200  0.00  0.00    +0.000 N 
ATOM      8  C   UNL     1       4.283   6.351  17.378  0.00  0.00    +0.000 A 
ATOM      9  C   UNL     1       3.230   7.258  17.205  0.00  0.00    +0.000 A 
ATOM     10  C   UNL     1       2.423   7.615  18.287  0.00  0.00    +0.000 A 
ATOM     11  C   UNL     1       2.715   7.140  19.563  0.00  0.00    +0.000 A 
ATOM     12  C   UNL     1       3.827   6.323  19.761  0.00  0.00    +0.000 A 
ATOM     13  C   UNL     1       4.599   5.906  18.669  0.00  0.00    +0.000 A 
ATOM     14  H   UNL     1       6.744   3.365  18.401  0.00  0.00    +0.000 HD
ATOM     15  H   UNL     1       4.758   6.432  15.353  0.00  0.00    +0.000 HD
ENDROOT
BRANCH   4  16
ATOM     16  C   UNL     1       3.733   3.078  17.510  0.00  0.00    +0.000 A 
ATOM     17  C   UNL     1       2.562   3.721  17.072  0.00  0.00    +0.000 A 
ATOM     18  C   UNL     1       1.316   3.393  17.618  0.00  0.00    +0.000 A 
ATOM     19  C   UNL     1       1.211   2.387  18.574  0.00  0.00    +0.000 A 
ATOM     20  C   UNL     1       2.343   1.673  18.948  0.00  0.00    +0.000 A 
ATOM     21  C   UNL     1       3.590   2.007  18.413  0.00  0.00    +0.000 A 
ENDBRANCH   4  16
TORSDOF 1
ENDMDL
MODEL 9
REMARK VINA RESULT:      -6.9      1.995      4.008
REMARK  Name = 
REMARK  1 active torsions:
REMARK  status: ('A' for Active; 'I' for Inactive)
REMARK    1  A    between atoms: C_4  and  C_5
REMARK                            x       y       z     vdW  Elec       q    Type
REMARK                         _______ _______ _______ _____ _____    ______ ____
ROOT
ATOM      1  O   UNL     1       4.148   7.824  16.370  0.00  0.00    +0.000 OA
ATOM      2  C   UNL     1       4.629   6.872  16.966  0.00  0.00    +0.000 C 
ATOM      3  N   UNL     1       4.478   6.758  18.326  0.00  0.00    +0.000 N 
ATOM      4  C   UNL     1       4.770   5.574  19.125  0.00  0.00    +0.000 C 
ATOM      5  C   UNL     1       6.301   5.399  19.172  0.00  0.00    +0.000 C 
ATOM      6  O   UNL     1       6.887   5.112  20.225  0.00  0.00    +0.000 OA
ATOM      7  N   UNL     1       7.039   5.389  18.012  0.00  0.00    +0.000 N 
ATOM      8  C   UNL     1       6.500   5.183  16.731  0.00  0.00    +0.000 A 
ATOM      9  C   UNL     1       7.153   4.228  15.940  0.00  0.00    +0.000 A 
ATOM     10  C   UNL     1       6.585   3.801  14.738  0.00  0.00    +0.000 A 
ATOM     11  C   UNL     1       5.409   4.386  14.274  0.00  0.00    +0.000 A 
ATOM     12  C   UNL     1       4.812   5.414  15.003  0.00  0.00    +0.000 A 
ATOM     13  C   UNL     1       5.340   5.798  16.243  0.00  0.00    +0.000 A 
ATOM     14  H   UNL     1       3.926   7.492  18.745  0.00  0.00    +0.000 HD
ATOM     15  H   UNL     1       7.987   5.076  18.184  0.00  0.00    +0.000 HD
ENDROOT
BRANCH   4  16
ATOM     16  C   UNL     1       3.970   4.339  18.710  0.00  0.00    +0.000 A 
ATOM     17  C   UNL     1       4.501   3.042  18.811  0.00  0.00    +0.000 A 
ATOM     18  C   UNL     1       3.802   1.940  18.307  0.00  0.00    +0.000 A 
ATOM     19  C   UNL     1       2.543   2.105  17.739  0.00  0.00    +0.000 A 
ATOM     20  C   UNL     1       1.958   3.367  17.718  0.00  0.00    +0.000 A 
ATOM     21  C   UNL     1       2.660   4.471  18.210  0.00  0.00    +0.000 A 
ENDBRANCH   4  16
TORSDOF 1
ENDMDL
