MODEL 1
REMARK VINA RESULT:      -8.5      0.000      0.000
REMARK  Name = 
REMARK  9 active torsions:
REMARK  status: ('A' for Active; 'I' for Inactive)
REMARK    1  A    between atoms: C_1  and  C_2
REMARK    2  A    between atoms: C_2  and  C_3
REMARK    3  A    between atoms: C_2  and  N_4
REMARK    4  A    between atoms: C_6  and  N_7
REMARK    5  A    between atoms: C_13  and  C_14
REMARK    6  A    between atoms: C_14  and  C_15
REMARK    7  A    between atoms: C_15  and  C_16
REMARK    8  A    between atoms: C_21  and  C_22
REMARK    9  A    between atoms: C_22  and  C_23
REMARK                            x       y       z     vdW  Elec       q    Type
REMARK                         _______ _______ _______ _____ _____    ______ ____
ROOT
ATOM      1  N   UNL     1       5.560   5.978  18.505  0.00  0.00    +0.000 N 
ATOM      2  C   UNL     1       4.493   5.364  19.165  0.00  0.00    +0.000 A 
ATOM      3  N   UNL     1       4.411   4.027  19.236  0.00  0.00    +0.000 NA
ATOM      4  C   UNL     1       3.278   3.501  19.740  0.00  0.00    +0.000 A 
ATOM      5  C   UNL     1       2.218   4.258  20.169  0.00  0.00    +0.000 A 
ATOM      6 CL   UNL     1       0.804   3.484  20.762  0.00  0.00    +0.000 Cl
ATOM      7  C   UNL     1       2.382   5.632  20.072  0.00  0.00    +0.000 A 
ATOM      8  N   UNL     1       3.528   6.189  19.604  0.00  0.00    +0.000 NA
ATOM      9  H   UNL     1       5.404   6.977  18.553  0.00  0.00    +0.000 HD
ENDROOT
BRANCH   1  12
ATOM     10  N   UNL     1       6.821   4.666  15.528  0.00  0.00    +0.000 N 
ATOM     11  C   UNL     1       5.857   5.380  16.184  0.00  0.00    +0.000 A 
ATOM     12  C   UNL     1       6.275   5.451  17.490  0.00  0.00    +0.000 A 
ATOM     13  C   UNL     1       7.529   4.809  17.506  0.00  0.00    +0.000 A 
ATOM     14  N   UNL     1       7.865   4.326  16.309  0.00  0.00    +0.000 NA
BRANCH  10  16
ATOM     15  C   UNL     1       5.364   4.080  13.638  0.00  0.00    +0.000 C 
ATOM     16  C   UNL     1       6.798   4.242  14.133  0.00  0.00    +0.000 C 
ATOM     17  C   UNL     1       7.594   5.203  13.249  0.00  0.00    +0.000 C 
ENDBRANCH  10  16
ENDBRANCH   1  12
BRANCH   7  18
ATOM     18  C   UNL     1       1.297   6.580  20.525  0.00  0.00    +0.000 C 
BRANCH  18  19
ATOM     19  C   UNL     1       1.598   8.076  20.310  0.00  0.00    +0.000 C 
BRANCH  19  20
ATOM     20  C   UNL     1       0.736   9.040  21.125  0.00  0.00    +0.000 A 
ATOM     21  C   UNL     1       0.331   8.685  22.431  0.00  0.00    +0.000 A 
ATOM     22  C   UNL     1      -0.405   9.556  23.228  0.00  0.00    +0.000 A 
ATOM     23  C   UNL     1      -0.682  10.834  22.773  0.00  0.00    +0.000 A 
ATOM     24  C   UNL     1      -0.297  11.207  21.484  0.00  0.00    +0.000 A 
ATOM     25  C   UNL     1       0.344  10.309  20.605  0.00  0.00    +0.000 A 
BRANCH  25  26
ATOM     26  C   UNL     1       0.467  10.695  19.123  0.00  0.00    +0.000 C 
ATOM     27  C   UNL     1      -0.344   9.772  18.192  0.00  0.00    +0.000 C 
ATOM     28  C   UNL     1      -0.793  11.178  18.358  0.00  0.00    +0.000 C 
BRANCH  26  29
ATOM     29  C   UNL     1       1.685  11.472  18.695  0.00  0.00    +0.000 C 
ATOM     30  N   UNL     1       2.376  10.972  17.629  0.00  0.00    +0.000 N 
ATOM     31  O   UNL     1       2.006  12.520  19.239  0.00  0.00    +0.000 OA
ATOM     32  H   UNL     1       2.091  10.141  17.144  0.00  0.00    +0.000 HD
ATOM     33  H   UNL     1       3.136  11.541  17.264  0.00  0.00    +0.000 HD
ENDBRANCH  26  29
ENDBRANCH  25  26
ENDBRANCH  19  20
ENDBRANCH  18  19
ENDBRANCH   7  18
TORSDOF 7
ENDMDL
MODEL 2
REMARK VINA RESULT:      -8.4      1.183      1.559
REMARK  Name = 
REMARK  9 active torsions:
REMARK  status: ('A' for Active; 'I' for Inactive)
REMARK    1  A    between atoms: C_1  and  C_2
REMARK    2  A    between atoms: C_2  and  C_3
REMARK    3  A    between atoms: C_2  and  N_4
REMARK    4  A    between atoms: C_6  and  N_7
REMARK    5  A    between atoms: C_13  and  C_14
REMARK    6  A    between atoms: C_14  and  C_15
REMARK    7  A    between atoms: C_15  and  C_16
REMARK    8  A    between atoms: C_21  and  C_22
REMARK    9  A    between atoms: C_22  and  C_23
REMARK                            x       y       z     vdW  Elec       q    Type
REMARK                         _______ _______ _______ _____ _____    ______ ____
ROOT
ATOM      1  N   UNL     1       5.598   5.981  18.390  0.00  0.00    +0.000 N 
ATOM      2  C   UNL     1       4.494   5.363  18.982  0.00  0.00    +0.000 A 
ATOM      3  N   UNL     1       4.296   4.043  18.849  0.00  0.00    +0.000 NA
ATOM      4  C   UNL     1       3.132   3.541  19.302  0.00  0.00    +0.000 A 
ATOM      5  C   UNL     1       2.149   4.308  19.876  0.00  0.00    +0.000 A 
ATOM      6 CL   UNL     1       0.684   3.572  20.387  0.00  0.00    +0.000 Cl
ATOM      7  C   UNL     1       2.431   5.662  19.985  0.00  0.00    +0.000 A 
ATOM      8  N   UNL     1       3.613   6.187  19.572  0.00  0.00    +0.000 NA
ATOM      9  H   UNL     1       5.531   6.970  18.596  0.00  0.00    +0.000 HD
ENDROOT
BRANCH   1  12
ATOM     10  N   UNL     1       6.709   5.104  15.201  0.00  0.00    +0.000 N 
ATOM     11  C   UNL     1       5.852   5.815  15.994  0.00  0.00    +0.000 A 
ATOM     12  C   UNL     1       6.246   5.560  17.284  0.00  0.00    +0.000 A 
ATOM     13  C   UNL     1       7.384   4.739  17.162  0.00  0.00    +0.000 A 
ATOM     14  N   UNL     1       7.669   4.457  15.889  0.00  0.00    +0.000 NA
BRANCH  10  16
ATOM     15  C   UNL     1       8.010   5.280  13.123  0.00  0.00    +0.000 C 
ATOM     16  C   UNL     1       6.652   4.973  13.750  0.00  0.00    +0.000 C 
ATOM     17  C   UNL     1       6.141   3.592  13.337  0.00  0.00    +0.000 C 
ENDBRANCH  10  16
ENDBRANCH   1  12
BRANCH   7  18
ATOM     18  C   UNL     1       1.441   6.616  20.611  0.00  0.00    +0.000 C 
BRANCH  18  19
ATOM     19  C   UNL     1       1.621   8.097  20.227  0.00  0.00    +0.000 C 
BRANCH  19  20
ATOM     20  C   UNL     1       0.767   9.086  21.020  0.00  0.00    +0.000 A 
ATOM     21  C   UNL     1       0.395   8.783  22.348  0.00  0.00    +0.000 A 
ATOM     22  C   UNL     1      -0.332   9.680  23.125  0.00  0.00    +0.000 A 
ATOM     23  C   UNL     1      -0.634  10.935  22.622  0.00  0.00    +0.000 A 
ATOM     24  C   UNL     1      -0.282  11.256  21.310  0.00  0.00    +0.000 A 
ATOM     25  C   UNL     1       0.349  10.328  20.455  0.00  0.00    +0.000 A 
BRANCH  25  26
ATOM     26  C   UNL     1       0.435  10.652  18.956  0.00  0.00    +0.000 C 
ATOM     27  C   UNL     1       1.712  11.429  18.582  0.00  0.00    +0.000 C 
ATOM     28  C   UNL     1       1.575  10.028  18.110  0.00  0.00    +0.000 C 
BRANCH  26  29
ATOM     29  C   UNL     1      -0.849  10.704  18.170  0.00  0.00    +0.000 C 
ATOM     30  N   UNL     1      -1.175  11.912  17.626  0.00  0.00    +0.000 N 
ATOM     31  O   UNL     1      -1.535   9.707  17.988  0.00  0.00    +0.000 OA
ATOM     32  H   UNL     1      -0.593  12.724  17.728  0.00  0.00    +0.000 HD
ATOM     33  H   UNL     1      -1.981  11.937  17.006  0.00  0.00    +0.000 HD
ENDBRANCH  26  29
ENDBRANCH  25  26
ENDBRANCH  19  20
ENDBRANCH  18  19
ENDBRANCH   7  18
TORSDOF 7
ENDMDL
MODEL 3
REMARK VINA RESULT:      -8.3      3.196      9.064
REMARK  Name = 
REMARK  9 active torsions:
REMARK  status: ('A' for Active; 'I' for Inactive)
REMARK    1  A    between atoms: C_1  and  C_2
REMARK    2  A    between atoms: C_2  and  C_3
REMARK    3  A    between atoms: C_2  and  N_4
REMARK    4  A    between atoms: C_6  and  N_7
REMARK    5  A    between atoms: C_13  and  C_14
REMARK    6  A    between atoms: C_14  and  C_15
REMARK    7  A    between atoms: C_15  and  C_16
REMARK    8  A    between atoms: C_21  and  C_22
REMARK    9  A    between atoms: C_22  and  C_23
REMARK                            x       y       z     vdW  Elec       q    Type
REMARK                         _______ _______ _______ _____ _____    ______ ____
ROOT
ATOM      1  N   UNL     1       1.672  12.062  17.922  0.00  0.00    +0.000 N 
ATOM      2  C   UNL     1       1.475  10.861  18.607  0.00  0.00    +0.000 A 
ATOM      3  N   UNL     1       1.069  10.861  19.886  0.00  0.00    +0.000 NA
ATOM      4  C   UNL     1       1.058   9.681  20.533  0.00  0.00    +0.000 A 
ATOM      5  C   UNL     1       1.447   8.498  19.957  0.00  0.00    +0.000 A 
ATOM      6 CL   UNL     1       1.430   7.052  20.885  0.00  0.00    +0.000 Cl
ATOM      7  C   UNL     1       1.846   8.578  18.631  0.00  0.00    +0.000 A 
ATOM      8  N   UNL     1       1.829   9.749  17.944  0.00  0.00    +0.000 NA
ATOM      9  H   UNL     1       2.000  11.826  16.995  0.00  0.00    +0.000 HD
ENDROOT
BRANCH   1  12
ATOM     10  N   UNL     1       1.875  15.305  19.197  0.00  0.00    +0.000 N 
ATOM     11  C   UNL     1       1.111  14.250  18.781  0.00  0.00    +0.000 A 
ATOM     12  C   UNL     1       2.000  13.248  18.477  0.00  0.00    +0.000 A 
ATOM     13  C   UNL     1       3.266  13.773  18.804  0.00  0.00    +0.000 A 
ATOM     14  N   UNL     1       3.193  15.030  19.243  0.00  0.00    +0.000 NA
BRANCH  10  16
ATOM     15  C   UNL     1      -0.102  16.757  19.340  0.00  0.00    +0.000 C 
ATOM     16  C   UNL     1       1.405  16.639  19.550  0.00  0.00    +0.000 C 
ATOM     17  C   UNL     1       1.805  17.007  20.979  0.00  0.00    +0.000 C 
ENDBRANCH  10  16
ENDBRANCH   1  12
BRANCH   7  18
ATOM     18  C   UNL     1       2.284   7.347  17.873  0.00  0.00    +0.000 C 
BRANCH  18  19
ATOM     19  C   UNL     1       3.691   6.825  18.222  0.00  0.00    +0.000 C 
BRANCH  19  20
ATOM     20  C   UNL     1       4.340   5.937  17.161  0.00  0.00    +0.000 A 
ATOM     21  C   UNL     1       5.064   6.526  16.100  0.00  0.00    +0.000 A 
ATOM     22  C   UNL     1       5.719   5.754  15.146  0.00  0.00    +0.000 A 
ATOM     23  C   UNL     1       5.737   4.375  15.274  0.00  0.00    +0.000 A 
ATOM     24  C   UNL     1       5.025   3.769  16.310  0.00  0.00    +0.000 A 
ATOM     25  C   UNL     1       4.251   4.514  17.224  0.00  0.00    +0.000 A 
BRANCH  25  26
ATOM     26  C   UNL     1       3.273   3.764  18.141  0.00  0.00    +0.000 C 
ATOM     27  C   UNL     1       1.801   3.935  17.716  0.00  0.00    +0.000 C 
ATOM     28  C   UNL     1       2.430   2.600  17.559  0.00  0.00    +0.000 C 
BRANCH  26  29
ATOM     29  C   UNL     1       3.719   3.453  19.545  0.00  0.00    +0.000 C 
ATOM     30  N   UNL     1       4.907   2.792  19.670  0.00  0.00    +0.000 N 
ATOM     31  O   UNL     1       3.077   3.818  20.522  0.00  0.00    +0.000 OA
ATOM     32  H   UNL     1       5.465   2.534  18.876  0.00  0.00    +0.000 HD
ATOM     33  H   UNL     1       5.271   2.670  20.611  0.00  0.00    +0.000 HD
ENDBRANCH  26  29
ENDBRANCH  25  26
ENDBRANCH  19  20
ENDBRANCH  18  19
ENDBRANCH   7  18
TORSDOF 7
ENDMDL
MODEL 4
REMARK VINA RESULT:      -8.1      3.330      8.912
REMARK  Name = 
REMARK  9 active torsions:
REMARK  status: ('A' for Active; 'I' for Inactive)
REMARK    1  A    between atoms: C_1  and  C_2
REMARK    2  A    between atoms: C_2  and  C_3
REMARK    3  A    between atoms: C_2  and  N_4
REMARK    4  A    between atoms: C_6  and  N_7
REMARK    5  A    between atoms: C_13  and  C_14
REMARK    6  A    between atoms: C_14  and  C_15
REMARK    7  A    between atoms: C_15  and  C_16
REMARK    8  A    between atoms: C_21  and  C_22
REMARK    9  A    between atoms: C_22  and  C_23
REMARK                            x       y       z     vdW  Elec       q    Type
REMARK                         _______ _______ _______ _____ _____    ______ ____
ROOT
ATOM      1  N   UNL     1       1.679  12.672  17.976  0.00  0.00    +0.000 N 
ATOM      2  C   UNL     1       1.398  11.503  18.687  0.00  0.00    +0.000 A 
ATOM      3  N   UNL     1       1.067  11.554  19.986  0.00  0.00    +0.000 NA
ATOM      4  C   UNL     1       0.970  10.386  20.648  0.00  0.00    +0.000 A 
ATOM      5  C   UNL     1       1.200   9.165  20.066  0.00  0.00    +0.000 A 
ATOM      6 CL   UNL     1       1.085   7.736  21.012  0.00  0.00    +0.000 Cl
ATOM      7  C   UNL     1       1.529   9.193  18.719  0.00  0.00    +0.000 A 
ATOM      8  N   UNL     1       1.595  10.355  18.019  0.00  0.00    +0.000 NA
ATOM      9  H   UNL     1       1.927  12.396  17.035  0.00  0.00    +0.000 HD
ENDROOT
BRANCH   1  12
ATOM     10  N   UNL     1       2.293  15.885  19.192  0.00  0.00    +0.000 N 
ATOM     11  C   UNL     1       1.401  14.915  18.831  0.00  0.00    +0.000 A 
ATOM     12  C   UNL     1       2.161  13.821  18.496  0.00  0.00    +0.000 A 
ATOM     13  C   UNL     1       3.490  14.210  18.751  0.00  0.00    +0.000 A 
ATOM     14  N   UNL     1       3.575  15.471  19.175  0.00  0.00    +0.000 NA
BRANCH  10  16
ATOM     15  C   UNL     1       1.225  17.961  18.425  0.00  0.00    +0.000 C 
ATOM     16  C   UNL     1       1.987  17.265  19.549  0.00  0.00    +0.000 C 
ATOM     17  C   UNL     1       1.227  17.339  20.875  0.00  0.00    +0.000 C 
ENDBRANCH  10  16
ENDBRANCH   1  12
BRANCH   7  18
ATOM     18  C   UNL     1       1.792   7.918  17.954  0.00  0.00    +0.000 C 
BRANCH  18  19
ATOM     19  C   UNL     1       3.066   7.155  18.364  0.00  0.00    +0.000 C 
BRANCH  19  20
ATOM     20  C   UNL     1       3.056   5.656  18.061  0.00  0.00    +0.000 A 
ATOM     21  C   UNL     1       1.860   4.919  18.208  0.00  0.00    +0.000 A 
ATOM     22  C   UNL     1       1.792   3.567  17.888  0.00  0.00    +0.000 A 
ATOM     23  C   UNL     1       2.895   2.936  17.336  0.00  0.00    +0.000 A 
ATOM     24  C   UNL     1       4.090   3.642  17.186  0.00  0.00    +0.000 A 
ATOM     25  C   UNL     1       4.229   4.980  17.611  0.00  0.00    +0.000 A 
BRANCH  25  26
ATOM     26  C   UNL     1       5.639   5.585  17.683  0.00  0.00    +0.000 C 
ATOM     27  C   UNL     1       6.283   5.442  19.077  0.00  0.00    +0.000 C 
ATOM     28  C   UNL     1       6.850   4.654  17.953  0.00  0.00    +0.000 C 
BRANCH  26  29
ATOM     29  C   UNL     1       5.999   6.658  16.690  0.00  0.00    +0.000 C 
ATOM     30  N   UNL     1       5.511   6.498  15.425  0.00  0.00    +0.000 N 
ATOM     31  O   UNL     1       6.648   7.644  17.012  0.00  0.00    +0.000 OA
ATOM     32  H   UNL     1       4.935   5.718  15.164  0.00  0.00    +0.000 HD
ATOM     33  H   UNL     1       5.657   7.266  14.774  0.00  0.00    +0.000 HD
ENDBRANCH  26  29
ENDBRANCH  25  26
ENDBRANCH  19  20
ENDBRANCH  18  19
ENDBRANCH   7  18
TORSDOF 7
ENDMDL
MODEL 5
REMARK VINA RESULT:      -8.1      3.292      8.795
REMARK  Name = 
REMARK  9 active torsions:
REMARK  status: ('A' for Active; 'I' for Inactive)
REMARK    1  A    between atoms: C_1  and  C_2
REMARK    2  A    between atoms: C_2  and  C_3
REMARK    3  A    between atoms: C_2  and  N_4
REMARK    4  A    between atoms: C_6  and  N_7
REMARK    5  A    between atoms: C_13  and  C_14
REMARK    6  A    between atoms: C_14  and  C_15
REMARK    7  A    between atoms: C_15  and  C_16
REMARK    8  A    between atoms: C_21  and  C_22
REMARK    9  A    between atoms: C_22  and  C_23
REMARK                            x       y       z     vdW  Elec       q    Type
REMARK                         _______ _______ _______ _____ _____    ______ ____
ROOT
ATOM      1  N   UNL     1       1.788  12.265  17.932  0.00  0.00    +0.000 N 
ATOM      2  C   UNL     1       1.545  11.068  18.610  0.00  0.00    +0.000 A 
ATOM      3  N   UNL     1       1.154  11.075  19.893  0.00  0.00    +0.000 NA
ATOM      4  C   UNL     1       1.097   9.891  20.530  0.00  0.00    +0.000 A 
ATOM      5  C   UNL     1       1.424   8.696  19.940  0.00  0.00    +0.000 A 
ATOM      6 CL   UNL     1       1.351   7.245  20.856  0.00  0.00    +0.000 Cl
ATOM      7  C   UNL     1       1.810   8.770  18.610  0.00  0.00    +0.000 A 
ATOM      8  N   UNL     1       1.839   9.946  17.932  0.00  0.00    +0.000 NA
ATOM      9  H   UNL     1       2.093  12.021  16.998  0.00  0.00    +0.000 HD
ENDROOT
BRANCH   1  12
ATOM     10  N   UNL     1       3.429  15.065  19.213  0.00  0.00    +0.000 N 
ATOM     11  C   UNL     1       3.440  13.962  18.407  0.00  0.00    +0.000 A 
ATOM     12  C   UNL     1       2.177  13.429  18.492  0.00  0.00    +0.000 A 
ATOM     13  C   UNL     1       1.463  14.318  19.319  0.00  0.00    +0.000 A 
ATOM     14  N   UNL     1       2.225  15.318  19.763  0.00  0.00    +0.000 NA
BRANCH  10  16
ATOM     15  C   UNL     1       4.705  16.102  21.040  0.00  0.00    +0.000 C 
ATOM     16  C   UNL     1       4.560  15.928  19.531  0.00  0.00    +0.000 C 
ATOM     17  C   UNL     1       5.851  15.405  18.898  0.00  0.00    +0.000 C 
ENDBRANCH  10  16
ENDBRANCH   1  12
BRANCH   7  18
ATOM     18  C   UNL     1       2.181   7.527  17.837  0.00  0.00    +0.000 C 
BRANCH  18  19
ATOM     19  C   UNL     1       3.475   6.827  18.296  0.00  0.00    +0.000 C 
BRANCH  19  20
ATOM     20  C   UNL     1       4.189   6.003  17.225  0.00  0.00    +0.000 A 
ATOM     21  C   UNL     1       4.862   6.659  16.170  0.00  0.00    +0.000 A 
ATOM     22  C   UNL     1       5.573   5.950  15.206  0.00  0.00    +0.000 A 
ATOM     23  C   UNL     1       5.698   4.575  15.319  0.00  0.00    +0.000 A 
ATOM     24  C   UNL     1       5.038   3.904  16.350  0.00  0.00    +0.000 A 
ATOM     25  C   UNL     1       4.211   4.578  17.273  0.00  0.00    +0.000 A 
BRANCH  25  26
ATOM     26  C   UNL     1       3.296   3.744  18.183  0.00  0.00    +0.000 C 
ATOM     27  C   UNL     1       1.801   3.906  17.842  0.00  0.00    +0.000 C 
ATOM     28  C   UNL     1       2.450   2.600  17.564  0.00  0.00    +0.000 C 
BRANCH  26  29
ATOM     29  C   UNL     1       3.817   3.352  19.540  0.00  0.00    +0.000 C 
ATOM     30  N   UNL     1       5.162   3.135  19.631  0.00  0.00    +0.000 N 
ATOM     31  O   UNL     1       3.084   3.281  20.517  0.00  0.00    +0.000 OA
ATOM     32  H   UNL     1       5.778   3.240  18.845  0.00  0.00    +0.000 HD
ATOM     33  H   UNL     1       5.542   2.974  20.560  0.00  0.00    +0.000 HD
ENDBRANCH  26  29
ENDBRANCH  25  26
ENDBRANCH  19  20
ENDBRANCH  18  19
ENDBRANCH   7  18
TORSDOF 7
ENDMDL
MODEL 6
REMARK VINA RESULT:      -8.0      3.271      9.404
REMARK  Name = 
REMARK  9 active torsions:
REMARK  status: ('A' for Active; 'I' for Inactive)
REMARK    1  A    between atoms: C_1  and  C_2
REMARK    2  A    between atoms: C_2  and  C_3
REMARK    3  A    between atoms: C_2  and  N_4
REMARK    4  A    between atoms: C_6  and  N_7
REMARK    5  A    between atoms: C_13  and  C_14
REMARK    6  A    between atoms: C_14  and  C_15
REMARK    7  A    between atoms: C_15  and  C_16
REMARK    8  A    between atoms: C_21  and  C_22
REMARK    9  A    between atoms: C_22  and  C_23
REMARK                            x       y       z     vdW  Elec       q    Type
REMARK                         _______ _______ _______ _____ _____    ______ ____
ROOT
ATOM      1  N   UNL     1       0.809  11.636  19.671  0.00  0.00    +0.000 N 
ATOM      2  C   UNL     1       0.926  10.264  19.906  0.00  0.00    +0.000 A 
ATOM      3  N   UNL     1       0.620   9.746  21.105  0.00  0.00    +0.000 NA
ATOM      4  C   UNL     1       0.911   8.448  21.312  0.00  0.00    +0.000 A 
ATOM      5  C   UNL     1       1.504   7.645  20.371  0.00  0.00    +0.000 A 
ATOM      6 CL   UNL     1       1.865   6.010  20.752  0.00  0.00    +0.000 Cl
ATOM      7  C   UNL     1       1.781   8.250  19.154  0.00  0.00    +0.000 A 
ATOM      8  N   UNL     1       1.464   9.546  18.906  0.00  0.00    +0.000 NA
ATOM      9  H   UNL     1       1.114  11.802  18.720  0.00  0.00    +0.000 HD
ENDROOT
BRANCH   1  12
ATOM     10  N   UNL     1       0.387  14.142  22.063  0.00  0.00    +0.000 N 
ATOM     11  C   UNL     1      -0.126  13.086  21.362  0.00  0.00    +0.000 A 
ATOM     12  C   UNL     1       0.912  12.611  20.598  0.00  0.00    +0.000 A 
ATOM     13  C   UNL     1       2.020  13.404  20.956  0.00  0.00    +0.000 A 
ATOM     14  N   UNL     1       1.703  14.341  21.850  0.00  0.00    +0.000 NA
BRANCH  10  16
ATOM     15  C   UNL     1      -0.936  16.209  22.175  0.00  0.00    +0.000 C 
ATOM     16  C   UNL     1      -0.342  15.038  22.952  0.00  0.00    +0.000 C 
ATOM     17  C   UNL     1      -1.414  14.284  23.741  0.00  0.00    +0.000 C 
ENDBRANCH  10  16
ENDBRANCH   1  12
BRANCH   7  18
ATOM     18  C   UNL     1       2.420   7.475  18.026  0.00  0.00    +0.000 C 
BRANCH  18  19
ATOM     19  C   UNL     1       3.648   6.631  18.419  0.00  0.00    +0.000 C 
BRANCH  19  20
ATOM     20  C   UNL     1       4.280   5.828  17.283  0.00  0.00    +0.000 A 
ATOM     21  C   UNL     1       4.921   6.503  16.220  0.00  0.00    +0.000 A 
ATOM     22  C   UNL     1       5.559   5.811  15.195  0.00  0.00    +0.000 A 
ATOM     23  C   UNL     1       5.646   4.430  15.251  0.00  0.00    +0.000 A 
ATOM     24  C   UNL     1       5.017   3.740  16.288  0.00  0.00    +0.000 A 
ATOM     25  C   UNL     1       4.259   4.402  17.277  0.00  0.00    +0.000 A 
BRANCH  25  26
ATOM     26  C   UNL     1       3.364   3.561  18.201  0.00  0.00    +0.000 C 
ATOM     27  C   UNL     1       1.861   3.749  17.914  0.00  0.00    +0.000 C 
ATOM     28  C   UNL     1       2.484   2.441  17.589  0.00  0.00    +0.000 C 
BRANCH  26  29
ATOM     29  C   UNL     1       3.926   3.136  19.532  0.00  0.00    +0.000 C 
ATOM     30  N   UNL     1       3.015   2.843  20.506  0.00  0.00    +0.000 N 
ATOM     31  O   UNL     1       5.129   3.010  19.714  0.00  0.00    +0.000 OA
ATOM     32  H   UNL     1       2.025   2.895  20.350  0.00  0.00    +0.000 HD
ATOM     33  H   UNL     1       3.376   2.454  21.373  0.00  0.00    +0.000 HD
ENDBRANCH  26  29
ENDBRANCH  25  26
ENDBRANCH  19  20
ENDBRANCH  18  19
ENDBRANCH   7  18
TORSDOF 7
ENDMDL
MODEL 7
REMARK VINA RESULT:      -8.0      3.300      8.803
REMARK  Name = 
REMARK  9 active torsions:
REMARK  status: ('A' for Active; 'I' for Inactive)
REMARK    1  A    between atoms: C_1  and  C_2
REMARK    2  A    between atoms: C_2  and  C_3
REMARK    3  A    between atoms: C_2  and  N_4
REMARK    4  A    between atoms: C_6  and  N_7
REMARK    5  A    between atoms: C_13  and  C_14
REMARK    6  A    between atoms: C_14  and  C_15
REMARK    7  A    between atoms: C_15  and  C_16
REMARK    8  A    between atoms: C_21  and  C_22
REMARK    9  A    between atoms: C_22  and  C_23
REMARK                            x       y       z     vdW  Elec       q    Type
REMARK                         _______ _______ _______ _____ _____    ______ ____
ROOT
ATOM      1  N   UNL     1       2.162  12.252  17.642  0.00  0.00    +0.000 N 
ATOM      2  C   UNL     1       1.780  11.099  18.332  0.00  0.00    +0.000 A 
ATOM      3  N   UNL     1       1.242  11.183  19.558  0.00  0.00    +0.000 NA
ATOM      4  C   UNL     1       1.050  10.032  20.231  0.00  0.00    +0.000 A 
ATOM      5  C   UNL     1       1.382   8.798  19.731  0.00  0.00    +0.000 A 
ATOM      6 CL   UNL     1       1.128   7.395  20.688  0.00  0.00    +0.000 Cl
ATOM      7  C   UNL     1       1.924   8.794  18.455  0.00  0.00    +0.000 A 
ATOM      8  N   UNL     1       2.093   9.935  17.740  0.00  0.00    +0.000 NA
ATOM      9  H   UNL     1       2.562  11.952  16.761  0.00  0.00    +0.000 HD
ENDROOT
BRANCH   1  12
ATOM     10  N   UNL     1       3.776  14.999  19.065  0.00  0.00    +0.000 N 
ATOM     11  C   UNL     1       3.843  13.836  18.349  0.00  0.00    +0.000 A 
ATOM     12  C   UNL     1       2.542  13.421  18.197  0.00  0.00    +0.000 A 
ATOM     13  C   UNL     1       1.765  14.432  18.797  0.00  0.00    +0.000 A 
ATOM     14  N   UNL     1       2.516  15.397  19.330  0.00  0.00    +0.000 NA
BRANCH  10  16
ATOM     15  C   UNL     1       6.088  15.695  18.610  0.00  0.00    +0.000 C 
ATOM     16  C   UNL     1       4.898  15.786  19.561  0.00  0.00    +0.000 C 
ATOM     17  C   UNL     1       4.488  17.239  19.812  0.00  0.00    +0.000 C 
ENDBRANCH  10  16
ENDBRANCH   1  12
BRANCH   7  18
ATOM     18  C   UNL     1       2.320   7.501  17.781  0.00  0.00    +0.000 C 
BRANCH  18  19
ATOM     19  C   UNL     1       3.690   6.933  18.198  0.00  0.00    +0.000 C 
BRANCH  19  20
ATOM     20  C   UNL     1       4.343   5.992  17.186  0.00  0.00    +0.000 A 
ATOM     21  C   UNL     1       4.994   6.526  16.051  0.00  0.00    +0.000 A 
ATOM     22  C   UNL     1       5.650   5.709  15.136  0.00  0.00    +0.000 A 
ATOM     23  C   UNL     1       5.745   4.348  15.375  0.00  0.00    +0.000 A 
ATOM     24  C   UNL     1       5.107   3.797  16.487  0.00  0.00    +0.000 A 
ATOM     25  C   UNL     1       4.331   4.577  17.369  0.00  0.00    +0.000 A 
BRANCH  25  26
ATOM     26  C   UNL     1       3.429   3.859  18.385  0.00  0.00    +0.000 C 
ATOM     27  C   UNL     1       4.219   3.228  19.548  0.00  0.00    +0.000 C 
ATOM     28  C   UNL     1       3.348   4.395  19.838  0.00  0.00    +0.000 C 
BRANCH  26  29
ATOM     29  C   UNL     1       2.082   3.376  17.915  0.00  0.00    +0.000 C 
ATOM     30  N   UNL     1       1.828   2.045  18.078  0.00  0.00    +0.000 N 
ATOM     31  O   UNL     1       1.244   4.144  17.461  0.00  0.00    +0.000 OA
ATOM     32  H   UNL     1       2.490   1.417  18.496  0.00  0.00    +0.000 HD
ATOM     33  H   UNL     1       0.886   1.726  17.864  0.00  0.00    +0.000 HD
ENDBRANCH  26  29
ENDBRANCH  25  26
ENDBRANCH  19  20
ENDBRANCH  18  19
ENDBRANCH   7  18
TORSDOF 7
ENDMDL
MODEL 8
REMARK VINA RESULT:      -8.0      1.031      1.118
REMARK  Name = 
REMARK  9 active torsions:
REMARK  status: ('A' for Active; 'I' for Inactive)
REMARK    1  A    between atoms: C_1  and  C_2
REMARK    2  A    between atoms: C_2  and  C_3
REMARK    3  A    between atoms: C_2  and  N_4
REMARK    4  A    between atoms: C_6  and  N_7
REMARK    5  A    between atoms: C_13  and  C_14
REMARK    6  A    between atoms: C_14  and  C_15
REMARK    7  A    between atoms: C_15  and  C_16
REMARK    8  A    between atoms: C_21  and  C_22
REMARK    9  A    between atoms: C_22  and  C_23
REMARK                            x       y       z     vdW  Elec       q    Type
REMARK                         _______ _______ _______ _____ _____    ______ ____
ROOT
ATOM      1  N   UNL     1       5.237   6.604  16.924  0.00  0.00    +0.000 N 
ATOM      2  C   UNL     1       4.590   6.104  18.056  0.00  0.00    +0.000 A 
ATOM      3  N   UNL     1       4.985   4.950  18.616  0.00  0.00    +0.000 NA
ATOM      4  C   UNL     1       4.218   4.445  19.601  0.00  0.00    +0.000 A 
ATOM      5  C   UNL     1       3.065   5.041  20.044  0.00  0.00    +0.000 A 
ATOM      6 CL   UNL     1       2.141   4.292  21.283  0.00  0.00    +0.000 Cl
ATOM      7  C   UNL     1       2.728   6.234  19.423  0.00  0.00    +0.000 A 
ATOM      8  N   UNL     1       3.504   6.786  18.454  0.00  0.00    +0.000 NA
ATOM      9  H   UNL     1       4.761   7.458  16.663  0.00  0.00    +0.000 HD
ENDROOT
BRANCH   1  12
ATOM     10  N   UNL     1       6.274   4.536  14.311  0.00  0.00    +0.000 N 
ATOM     11  C   UNL     1       5.287   5.265  14.913  0.00  0.00    +0.000 A 
ATOM     12  C   UNL     1       5.883   5.874  15.991  0.00  0.00    +0.000 A 
ATOM     13  C   UNL     1       7.240   5.503  15.913  0.00  0.00    +0.000 A 
ATOM     14  N   UNL     1       7.482   4.684  14.889  0.00  0.00    +0.000 NA
BRANCH  10  16
ATOM     15  C   UNL     1       4.699   3.673  12.634  0.00  0.00    +0.000 C 
ATOM     16  C   UNL     1       6.127   3.639  13.171  0.00  0.00    +0.000 C 
ATOM     17  C   UNL     1       7.147   3.960  12.078  0.00  0.00    +0.000 C 
ENDBRANCH  10  16
ENDBRANCH   1  12
BRANCH   7  18
ATOM     18  C   UNL     1       1.491   7.001  19.826  0.00  0.00    +0.000 C 
BRANCH  18  19
ATOM     19  C   UNL     1       1.650   8.533  19.865  0.00  0.00    +0.000 C 
BRANCH  19  20
ATOM     20  C   UNL     1       0.736   9.260  20.852  0.00  0.00    +0.000 A 
ATOM     21  C   UNL     1       0.475   8.689  22.117  0.00  0.00    +0.000 A 
ATOM     22  C   UNL     1      -0.303   9.344  23.067  0.00  0.00    +0.000 A 
ATOM     23  C   UNL     1      -0.772  10.621  22.807  0.00  0.00    +0.000 A 
ATOM     24  C   UNL     1      -0.531  11.204  21.562  0.00  0.00    +0.000 A 
ATOM     25  C   UNL     1       0.151  10.521  20.533  0.00  0.00    +0.000 A 
BRANCH  25  26
ATOM     26  C   UNL     1       0.116  11.108  19.114  0.00  0.00    +0.000 C 
ATOM     27  C   UNL     1      -0.711  10.255  18.132  0.00  0.00    +0.000 C 
ATOM     28  C   UNL     1      -1.237  11.587  18.525  0.00  0.00    +0.000 C 
BRANCH  26  29
ATOM     29  C   UNL     1       1.235  12.027  18.702  0.00  0.00    +0.000 C 
ATOM     30  N   UNL     1       2.131  11.523  17.804  0.00  0.00    +0.000 N 
ATOM     31  O   UNL     1       1.309  13.178  19.112  0.00  0.00    +0.000 OA
ATOM     32  H   UNL     1       2.050  10.598  17.424  0.00  0.00    +0.000 HD
ATOM     33  H   UNL     1       2.828  12.167  17.437  0.00  0.00    +0.000 HD
ENDBRANCH  26  29
ENDBRANCH  25  26
ENDBRANCH  19  20
ENDBRANCH  18  19
ENDBRANCH   7  18
TORSDOF 7
ENDMDL
MODEL 9
REMARK VINA RESULT:      -8.0      3.339      8.974
REMARK  Name = 
REMARK  9 active torsions:
REMARK  status: ('A' for Active; 'I' for Inactive)
REMARK    1  A    between atoms: C_1  and  C_2
REMARK    2  A    between atoms: C_2  and  C_3
REMARK    3  A    between atoms: C_2  and  N_4
REMARK    4  A    between atoms: C_6  and  N_7
REMARK    5  A    between atoms: C_13  and  C_14
REMARK    6  A    between atoms: C_14  and  C_15
REMARK    7  A    between atoms: C_15  and  C_16
REMARK    8  A    between atoms: C_21  and  C_22
REMARK    9  A    between atoms: C_22  and  C_23
REMARK                            x       y       z     vdW  Elec       q    Type
REMARK                         _______ _______ _______ _____ _____    ______ ____
ROOT
ATOM      1  N   UNL     1       1.203  12.150  18.169  0.00  0.00    +0.000 N 
ATOM      2  C   UNL     1       1.159  10.900  18.791  0.00  0.00    +0.000 A 
ATOM      3  N   UNL     1       0.843  10.792  20.090  0.00  0.00    +0.000 NA
ATOM      4  C   UNL     1       0.980   9.582  20.663  0.00  0.00    +0.000 A 
ATOM      5  C   UNL     1       1.429   8.472  19.993  0.00  0.00    +0.000 A 
ATOM      6 CL   UNL     1       1.601   6.983  20.830  0.00  0.00    +0.000 Cl
ATOM      7  C   UNL     1       1.727   8.661  18.652  0.00  0.00    +0.000 A 
ATOM      8  N   UNL     1       1.561   9.862  18.039  0.00  0.00    +0.000 NA
ATOM      9  H   UNL     1       1.485  11.995  17.210  0.00  0.00    +0.000 HD
ENDROOT
BRANCH   1  12
ATOM     10  N   UNL     1       2.499  14.921  19.849  0.00  0.00    +0.000 N 
ATOM     11  C   UNL     1       2.708  13.746  19.180  0.00  0.00    +0.000 A 
ATOM     12  C   UNL     1       1.465  13.328  18.772  0.00  0.00    +0.000 A 
ATOM     13  C   UNL     1       0.585  14.348  19.184  0.00  0.00    +0.000 A 
ATOM     14  N   UNL     1       1.213  15.322  19.844  0.00  0.00    +0.000 NA
BRANCH  10  16
ATOM     15  C   UNL     1       4.899  15.153  20.324  0.00  0.00    +0.000 C 
ATOM     16  C   UNL     1       3.499  15.716  20.551  0.00  0.00    +0.000 C 
ATOM     17  C   UNL     1       3.413  17.190  20.152  0.00  0.00    +0.000 C 
ENDBRANCH  10  16
ENDBRANCH   1  12
BRANCH   7  18
ATOM     18  C   UNL     1       2.216   7.519  17.793  0.00  0.00    +0.000 C 
BRANCH  18  19
ATOM     19  C   UNL     1       3.489   6.813  18.299  0.00  0.00    +0.000 C 
BRANCH  19  20
ATOM     20  C   UNL     1       4.212   5.948  17.267  0.00  0.00    +0.000 A 
ATOM     21  C   UNL     1       4.930   6.563  16.217  0.00  0.00    +0.000 A 
ATOM     22  C   UNL     1       5.649   5.815  15.290  0.00  0.00    +0.000 A 
ATOM     23  C   UNL     1       5.737   4.440  15.437  0.00  0.00    +0.000 A 
ATOM     24  C   UNL     1       5.032   3.810  16.463  0.00  0.00    +0.000 A 
ATOM     25  C   UNL     1       4.197   4.524  17.348  0.00  0.00    +0.000 A 
BRANCH  25  26
ATOM     26  C   UNL     1       3.236   3.734  18.250  0.00  0.00    +0.000 C 
ATOM     27  C   UNL     1       1.754   3.957  17.890  0.00  0.00    +0.000 C 
ATOM     28  C   UNL     1       2.352   2.623  17.626  0.00  0.00    +0.000 C 
BRANCH  26  29
ATOM     29  C   UNL     1       3.724   3.327  19.615  0.00  0.00    +0.000 C 
ATOM     30  N   UNL     1       2.880   3.578  20.658  0.00  0.00    +0.000 N 
ATOM     31  O   UNL     1       4.795   2.756  19.774  0.00  0.00    +0.000 OA
ATOM     32  H   UNL     1       1.978   4.000  20.531  0.00  0.00    +0.000 HD
ATOM     33  H   UNL     1       3.150   3.214  21.568  0.00  0.00    +0.000 HD
ENDBRANCH  26  29
ENDBRANCH  25  26
ENDBRANCH  19  20
ENDBRANCH  18  19
ENDBRANCH   7  18
TORSDOF 7
ENDMDL
