MODEL 1
REMARK VINA RESULT:      -9.0      0.000      0.000
REMARK  Name = 
REMARK  7 active torsions:
REMARK  status: ('A' for Active; 'I' for Inactive)
REMARK    1  A    between atoms: C_1  and  C_2
REMARK    2  A    between atoms: C_2  and  C_3
REMARK    3  A    between atoms: N_7  and  C_8
REMARK    4  A    between atoms: C_8  and  C_9
REMARK    5  A    between atoms: C_9  and  C_10
REMARK    6  A    between atoms: C_10  and  C_11
REMARK    7  A    between atoms: C_11  and  N_12
REMARK                            x       y       z     vdW  Elec       q    Type
REMARK                         _______ _______ _______ _____ _____    ______ ____
ROOT
ATOM      1  N   UNL     1       2.946   2.382  19.704  0.00  0.00    +0.000 NA
ATOM      2  C   UNL     1       2.495   2.552  18.302  0.00  0.00    +0.000 C 
ATOM      3  C   UNL     1       3.006   3.810  17.565  0.00  0.00    +0.000 C 
ATOM      4  N   UNL     1       4.432   4.065  17.794  0.00  0.00    +0.000 N 
ATOM      5  C   UNL     1       5.251   4.373  16.728  0.00  0.00    +0.000 A 
ATOM      6  C   UNL     1       6.347   5.217  16.894  0.00  0.00    +0.000 A 
ATOM      7  C   UNL     1       7.178   5.500  15.814  0.00  0.00    +0.000 A 
ATOM      8  C   UNL     1       6.908   4.919  14.574  0.00  0.00    +0.000 A 
ATOM      9  C   UNL     1       7.726   5.149  13.454  0.00  0.00    +0.000 A 
ATOM     10  C   UNL     1       7.428   4.544  12.237  0.00  0.00    +0.000 A 
ATOM     11  C   UNL     1       6.317   3.715  12.135  0.00  0.00    +0.000 A 
ATOM     12  C   UNL     1       5.504   3.498  13.251  0.00  0.00    +0.000 A 
ATOM     13  C   UNL     1       5.775   4.089  14.474  0.00  0.00    +0.000 A 
ATOM     14  N   UNL     1       4.967   3.844  15.520  0.00  0.00    +0.000 NA
ATOM     15  C   UNL     1       5.007   3.766  19.105  0.00  0.00    +0.000 C 
ATOM     16  C   UNL     1       4.427   2.458  19.692  0.00  0.00    +0.000 C 
ENDROOT
BRANCH   1  17
ATOM     17  C   UNL     1       2.394   3.373  20.640  0.00  0.00    +0.000 C 
BRANCH  17  18
ATOM     18  C   UNL     1       1.388   4.363  20.043  0.00  0.00    +0.000 C 
BRANCH  18  19
ATOM     19  C   UNL     1       1.347   5.698  20.777  0.00  0.00    +0.000 C 
BRANCH  19  20
ATOM     20  C   UNL     1       2.318   6.696  20.137  0.00  0.00    +0.000 C 
BRANCH  20  27
ATOM     21  C   UNL     1       1.412  11.538  19.218  0.00  0.00    +0.000 C 
ATOM     22  C   UNL     1       0.420  10.402  18.914  0.00  0.00    +0.000 C 
ATOM     23  C   UNL     1      -0.864  11.002  18.317  0.00  0.00    +0.000 C 
ATOM     24  C   UNL     1       1.021   9.426  17.895  0.00  0.00    +0.000 C 
ATOM     25  C   UNL     1       2.005   8.442  18.486  0.00  0.00    +0.000 C 
ATOM     26  O   UNL     1       3.024   8.122  17.876  0.00  0.00    +0.000 OA
ATOM     27  N   UNL     1       1.620   7.894  19.697  0.00  0.00    +0.000 N 
ATOM     28  C   UNL     1       1.160   8.758  20.676  0.00  0.00    +0.000 C 
ATOM     29  O   UNL     1       1.553   8.772  21.839  0.00  0.00    +0.000 OA
ATOM     30  C   UNL     1       0.054   9.665  20.205  0.00  0.00    +0.000 C 
ENDBRANCH  20  27
ENDBRANCH  19  20
ENDBRANCH  18  19
ENDBRANCH  17  18
ENDBRANCH   1  17
TORSDOF 5
ENDMDL
MODEL 2
REMARK VINA RESULT:      -8.0      0.618      1.659
REMARK  Name = 
REMARK  7 active torsions:
REMARK  status: ('A' for Active; 'I' for Inactive)
REMARK    1  A    between atoms: C_1  and  C_2
REMARK    2  A    between atoms: C_2  and  C_3
REMARK    3  A    between atoms: N_7  and  C_8
REMARK    4  A    between atoms: C_8  and  C_9
REMARK    5  A    between atoms: C_9  and  C_10
REMARK    6  A    between atoms: C_10  and  C_11
REMARK    7  A    between atoms: C_11  and  N_12
REMARK                            x       y       z     vdW  Elec       q    Type
REMARK                         _______ _______ _______ _____ _____    ______ ____
ROOT
ATOM      1  N   UNL     1       3.133   2.880  19.819  0.00  0.00    +0.000 NA
ATOM      2  C   UNL     1       2.609   3.060  18.445  0.00  0.00    +0.000 C 
ATOM      3  C   UNL     1       3.197   4.237  17.634  0.00  0.00    +0.000 C 
ATOM      4  N   UNL     1       4.654   4.344  17.761  0.00  0.00    +0.000 N 
ATOM      5  C   UNL     1       5.426   4.534  16.635  0.00  0.00    +0.000 A 
ATOM      6  C   UNL     1       6.614   5.260  16.701  0.00  0.00    +0.000 A 
ATOM      7  C   UNL     1       7.394   5.424  15.561  0.00  0.00    +0.000 A 
ATOM      8  C   UNL     1       6.980   4.843  14.360  0.00  0.00    +0.000 A 
ATOM      9  C   UNL     1       7.739   4.956  13.182  0.00  0.00    +0.000 A 
ATOM     10  C   UNL     1       7.297   4.354  12.008  0.00  0.00    +0.000 A 
ATOM     11  C   UNL     1       6.101   3.646  12.007  0.00  0.00    +0.000 A 
ATOM     12  C   UNL     1       5.347   3.546  13.179  0.00  0.00    +0.000 A 
ATOM     13  C   UNL     1       5.762   4.137  14.362  0.00  0.00    +0.000 A 
ATOM     14  N   UNL     1       5.006   4.007  15.466  0.00  0.00    +0.000 NA
ATOM     15  C   UNL     1       5.283   4.019  19.042  0.00  0.00    +0.000 C 
ATOM     16  C   UNL     1       4.610   2.796  19.708  0.00  0.00    +0.000 C 
ENDROOT
BRANCH   1  17
ATOM     17  C   UNL     1       2.754   3.948  20.756  0.00  0.00    +0.000 C 
BRANCH  17  18
ATOM     18  C   UNL     1       1.282   4.373  20.719  0.00  0.00    +0.000 C 
BRANCH  18  19
ATOM     19  C   UNL     1       1.055   5.703  20.011  0.00  0.00    +0.000 C 
BRANCH  19  20
ATOM     20  C   UNL     1       2.155   6.705  20.378  0.00  0.00    +0.000 C 
BRANCH  20  27
ATOM     21  C   UNL     1      -0.431  10.435  18.255  0.00  0.00    +0.000 C 
ATOM     22  C   UNL     1       0.907  10.623  18.989  0.00  0.00    +0.000 C 
ATOM     23  C   UNL     1       1.305  12.107  18.938  0.00  0.00    +0.000 C 
ATOM     24  C   UNL     1       0.774  10.204  20.459  0.00  0.00    +0.000 C 
ATOM     25  C   UNL     1       0.831   8.710  20.686  0.00  0.00    +0.000 C 
ATOM     26  O   UNL     1       0.105   8.169  21.518  0.00  0.00    +0.000 OA
ATOM     27  N   UNL     1       1.800   8.050  19.952  0.00  0.00    +0.000 N 
ATOM     28  C   UNL     1       1.888   8.333  18.600  0.00  0.00    +0.000 C 
ATOM     29  O   UNL     1       1.929   7.489  17.709  0.00  0.00    +0.000 OA
ATOM     30  C   UNL     1       2.003   9.804  18.301  0.00  0.00    +0.000 C 
ENDBRANCH  20  27
ENDBRANCH  19  20
ENDBRANCH  18  19
ENDBRANCH  17  18
ENDBRANCH   1  17
TORSDOF 5
ENDMDL
MODEL 3
REMARK VINA RESULT:      -7.9      1.441      1.673
REMARK  Name = 
REMARK  7 active torsions:
REMARK  status: ('A' for Active; 'I' for Inactive)
REMARK    1  A    between atoms: C_1  and  C_2
REMARK    2  A    between atoms: C_2  and  C_3
REMARK    3  A    between atoms: N_7  and  C_8
REMARK    4  A    between atoms: C_8  and  C_9
REMARK    5  A    between atoms: C_9  and  C_10
REMARK    6  A    between atoms: C_10  and  C_11
REMARK    7  A    between atoms: C_11  and  N_12
REMARK                            x       y       z     vdW  Elec       q    Type
REMARK                         _______ _______ _______ _____ _____    ______ ____
ROOT
ATOM      1  N   UNL     1       2.664   3.423  19.892  0.00  0.00    +0.000 NA
ATOM      2  C   UNL     1       2.210   3.594  18.492  0.00  0.00    +0.000 C 
ATOM      3  C   UNL     1       2.925   4.688  17.667  0.00  0.00    +0.000 C 
ATOM      4  N   UNL     1       4.380   4.680  17.852  0.00  0.00    +0.000 N 
ATOM      5  C   UNL     1       5.208   4.765  16.753  0.00  0.00    +0.000 A 
ATOM      6  C   UNL     1       6.449   5.394  16.844  0.00  0.00    +0.000 A 
ATOM      7  C   UNL     1       7.285   5.451  15.733  0.00  0.00    +0.000 A 
ATOM      8  C   UNL     1       6.871   4.861  14.537  0.00  0.00    +0.000 A 
ATOM      9  C   UNL     1       7.683   4.868  13.389  0.00  0.00    +0.000 A 
ATOM     10  C   UNL     1       7.239   4.261  12.218  0.00  0.00    +0.000 A 
ATOM     11  C   UNL     1       5.989   3.653  12.191  0.00  0.00    +0.000 A 
ATOM     12  C   UNL     1       5.184   3.659  13.333  0.00  0.00    +0.000 A 
ATOM     13  C   UNL     1       5.600   4.258  14.512  0.00  0.00    +0.000 A 
ATOM     14  N   UNL     1       4.793   4.231  15.587  0.00  0.00    +0.000 NA
ATOM     15  C   UNL     1       4.928   4.354  19.168  0.00  0.00    +0.000 C 
ATOM     16  C   UNL     1       4.131   3.215  19.846  0.00  0.00    +0.000 C 
ENDROOT
BRANCH   1  17
ATOM     17  C   UNL     1       2.337   4.553  20.775  0.00  0.00    +0.000 C 
BRANCH  17  18
ATOM     18  C   UNL     1       1.578   5.711  20.120  0.00  0.00    +0.000 C 
BRANCH  18  19
ATOM     19  C   UNL     1       1.393   6.910  21.041  0.00  0.00    +0.000 C 
BRANCH  19  20
ATOM     20  C   UNL     1       1.755   8.210  20.314  0.00  0.00    +0.000 C 
BRANCH  20  27
ATOM     21  C   UNL     1       0.108  12.790  21.509  0.00  0.00    +0.000 C 
ATOM     22  C   UNL     1      -0.796  11.550  21.398  0.00  0.00    +0.000 C 
ATOM     23  C   UNL     1      -2.243  11.952  21.729  0.00  0.00    +0.000 C 
ATOM     24  C   UNL     1      -0.760  10.988  19.971  0.00  0.00    +0.000 C 
ATOM     25  C   UNL     1       0.464  10.155  19.664  0.00  0.00    +0.000 C 
ATOM     26  O   UNL     1       1.017  10.223  18.568  0.00  0.00    +0.000 OA
ATOM     27  N   UNL     1       0.836   9.280  20.670  0.00  0.00    +0.000 N 
ATOM     28  C   UNL     1       0.906   9.776  21.960  0.00  0.00    +0.000 C 
ATOM     29  O   UNL     1       1.860   9.625  22.718  0.00  0.00    +0.000 OA
ATOM     30  C   UNL     1      -0.349  10.483  22.401  0.00  0.00    +0.000 C 
ENDBRANCH  20  27
ENDBRANCH  19  20
ENDBRANCH  18  19
ENDBRANCH  17  18
ENDBRANCH   1  17
TORSDOF 5
ENDMDL
MODEL 4
REMARK VINA RESULT:      -7.8      2.583      8.254
REMARK  Name = 
REMARK  7 active torsions:
REMARK  status: ('A' for Active; 'I' for Inactive)
REMARK    1  A    between atoms: C_1  and  C_2
REMARK    2  A    between atoms: C_2  and  C_3
REMARK    3  A    between atoms: N_7  and  C_8
REMARK    4  A    between atoms: C_8  and  C_9
REMARK    5  A    between atoms: C_9  and  C_10
REMARK    6  A    between atoms: C_10  and  C_11
REMARK    7  A    between atoms: C_11  and  N_12
REMARK                            x       y       z     vdW  Elec       q    Type
REMARK                         _______ _______ _______ _____ _____    ______ ____
ROOT
ATOM      1  N   UNL     1       2.572   6.957  19.169  0.00  0.00    +0.000 NA
ATOM      2  C   UNL     1       3.082   7.909  18.154  0.00  0.00    +0.000 C 
ATOM      3  C   UNL     1       2.091   8.990  17.667  0.00  0.00    +0.000 C 
ATOM      4  N   UNL     1       1.331   9.599  18.763  0.00  0.00    +0.000 N 
ATOM      5  C   UNL     1       1.193  10.970  18.819  0.00  0.00    +0.000 A 
ATOM      6  C   UNL     1       0.045  11.548  19.358  0.00  0.00    +0.000 A 
ATOM      7  C   UNL     1      -0.070  12.933  19.429  0.00  0.00    +0.000 A 
ATOM      8  C   UNL     1       0.980  13.730  18.969  0.00  0.00    +0.000 A 
ATOM      9  C   UNL     1       0.930  15.134  19.036  0.00  0.00    +0.000 A 
ATOM     10  C   UNL     1       2.001  15.892  18.575  0.00  0.00    +0.000 A 
ATOM     11  C   UNL     1       3.117  15.255  18.044  0.00  0.00    +0.000 A 
ATOM     12  C   UNL     1       3.155  13.860  17.971  0.00  0.00    +0.000 A 
ATOM     13  C   UNL     1       2.102  13.080  18.421  0.00  0.00    +0.000 A 
ATOM     14  N   UNL     1       2.190  11.741  18.337  0.00  0.00    +0.000 NA
ATOM     15  C   UNL     1       0.927   8.769  19.897  0.00  0.00    +0.000 C 
ATOM     16  C   UNL     1       2.039   7.768  20.290  0.00  0.00    +0.000 C 
ENDROOT
BRANCH   1  17
ATOM     17  C   UNL     1       1.538   6.038  18.670  0.00  0.00    +0.000 C 
BRANCH  17  18
ATOM     18  C   UNL     1       1.819   4.546  18.878  0.00  0.00    +0.000 C 
BRANCH  18  19
ATOM     19  C   UNL     1       1.976   3.774  17.573  0.00  0.00    +0.000 C 
BRANCH  19  20
ATOM     20  C   UNL     1       3.311   3.020  17.550  0.00  0.00    +0.000 C 
BRANCH  20  27
ATOM     21  C   UNL     1       8.036   4.655  17.878  0.00  0.00    +0.000 C 
ATOM     22  C   UNL     1       6.803   5.575  17.887  0.00  0.00    +0.000 C 
ATOM     23  C   UNL     1       7.265   7.034  18.032  0.00  0.00    +0.000 C 
ATOM     24  C   UNL     1       6.023   5.438  16.573  0.00  0.00    +0.000 C 
ATOM     25  C   UNL     1       5.140   4.212  16.502  0.00  0.00    +0.000 C 
ATOM     26  O   UNL     1       5.030   3.573  15.457  0.00  0.00    +0.000 OA
ATOM     27  N   UNL     1       4.432   3.940  17.658  0.00  0.00    +0.000 N 
ATOM     28  C   UNL     1       5.124   3.963  18.857  0.00  0.00    +0.000 C 
ATOM     29  O   UNL     1       5.085   3.075  19.705  0.00  0.00    +0.000 OA
ATOM     30  C   UNL     1       5.902   5.233  19.077  0.00  0.00    +0.000 C 
ENDBRANCH  20  27
ENDBRANCH  19  20
ENDBRANCH  18  19
ENDBRANCH  17  18
ENDBRANCH   1  17
TORSDOF 5
ENDMDL
MODEL 5
REMARK VINA RESULT:      -7.8      7.440     10.910
REMARK  Name = 
REMARK  7 active torsions:
REMARK  status: ('A' for Active; 'I' for Inactive)
REMARK    1  A    between atoms: C_1  and  C_2
REMARK    2  A    between atoms: C_2  and  C_3
REMARK    3  A    between atoms: N_7  and  C_8
REMARK    4  A    between atoms: C_8  and  C_9
REMARK    5  A    between atoms: C_9  and  C_10
REMARK    6  A    between atoms: C_10  and  C_11
REMARK    7  A    between atoms: C_11  and  N_12
REMARK                            x       y       z     vdW  Elec       q    Type
REMARK                         _______ _______ _______ _____ _____    ______ ____
ROOT
ATOM      1  N   UNL     1       9.708  10.847  18.285  0.00  0.00    +0.000 NA
ATOM      2  C   UNL     1       9.731  12.284  17.923  0.00  0.00    +0.000 C 
ATOM      3  C   UNL     1       8.939  13.237  18.846  0.00  0.00    +0.000 C 
ATOM      4  N   UNL     1       9.145  12.952  20.270  0.00  0.00    +0.000 N 
ATOM      5  C   UNL     1       9.400  13.987  21.144  0.00  0.00    +0.000 A 
ATOM      6  C   UNL     1       8.972  13.922  22.468  0.00  0.00    +0.000 A 
ATOM      7  C   UNL     1       9.258  14.964  23.345  0.00  0.00    +0.000 A 
ATOM      8  C   UNL     1       9.987  16.063  22.885  0.00  0.00    +0.000 A 
ATOM      9  C   UNL     1      10.325  17.134  23.731  0.00  0.00    +0.000 A 
ATOM     10  C   UNL     1      11.060  18.206  23.237  0.00  0.00    +0.000 A 
ATOM     11  C   UNL     1      11.455  18.213  21.904  0.00  0.00    +0.000 A 
ATOM     12  C   UNL     1      11.107  17.150  21.067  0.00  0.00    +0.000 A 
ATOM     13  C   UNL     1      10.373  16.070  21.532  0.00  0.00    +0.000 A 
ATOM     14  N   UNL     1      10.070  15.067  20.690  0.00  0.00    +0.000 NA
ATOM     15  C   UNL     1       9.303  11.563  20.702  0.00  0.00    +0.000 C 
ATOM     16  C   UNL     1      10.152  10.751  19.696  0.00  0.00    +0.000 C 
ENDROOT
BRANCH   1  17
ATOM     17  C   UNL     1       8.396  10.203  18.120  0.00  0.00    +0.000 C 
BRANCH  17  18
ATOM     18  C   UNL     1       8.373   8.683  18.304  0.00  0.00    +0.000 C 
BRANCH  18  19
ATOM     19  C   UNL     1       7.366   7.979  17.403  0.00  0.00    +0.000 C 
BRANCH  19  20
ATOM     20  C   UNL     1       7.492   6.458  17.536  0.00  0.00    +0.000 C 
BRANCH  20  27
ATOM     21  C   UNL     1       4.035   2.910  18.296  0.00  0.00    +0.000 C 
ATOM     22  C   UNL     1       3.730   4.417  18.255  0.00  0.00    +0.000 C 
ATOM     23  C   UNL     1       2.221   4.631  18.461  0.00  0.00    +0.000 C 
ATOM     24  C   UNL     1       4.482   5.146  19.376  0.00  0.00    +0.000 C 
ATOM     25  C   UNL     1       5.941   5.408  19.073  0.00  0.00    +0.000 C 
ATOM     26  O   UNL     1       6.797   5.299  19.948  0.00  0.00    +0.000 OA
ATOM     27  N   UNL     1       6.196   5.847  17.786  0.00  0.00    +0.000 N 
ATOM     28  C   UNL     1       5.607   5.154  16.742  0.00  0.00    +0.000 C 
ATOM     29  O   UNL     1       6.203   4.744  15.749  0.00  0.00    +0.000 OA
ATOM     30  C   UNL     1       4.117   4.995  16.891  0.00  0.00    +0.000 C 
ENDBRANCH  20  27
ENDBRANCH  19  20
ENDBRANCH  18  19
ENDBRANCH  17  18
ENDBRANCH   1  17
TORSDOF 5
ENDMDL
MODEL 6
REMARK VINA RESULT:      -7.7      2.376      8.170
REMARK  Name = 
REMARK  7 active torsions:
REMARK  status: ('A' for Active; 'I' for Inactive)
REMARK    1  A    between atoms: C_1  and  C_2
REMARK    2  A    between atoms: C_2  and  C_3
REMARK    3  A    between atoms: N_7  and  C_8
REMARK    4  A    between atoms: C_8  and  C_9
REMARK    5  A    between atoms: C_9  and  C_10
REMARK    6  A    between atoms: C_10  and  C_11
REMARK    7  A    between atoms: C_11  and  N_12
REMARK                            x       y       z     vdW  Elec       q    Type
REMARK                         _______ _______ _______ _____ _____    ______ ____
ROOT
ATOM      1  N   UNL     1       2.444   6.802  19.669  0.00  0.00    +0.000 NA
ATOM      2  C   UNL     1       2.881   7.725  18.596  0.00  0.00    +0.000 C 
ATOM      3  C   UNL     1       1.828   8.735  18.088  0.00  0.00    +0.000 C 
ATOM      4  N   UNL     1       1.069   9.362  19.175  0.00  0.00    +0.000 N 
ATOM      5  C   UNL     1       0.869  10.726  19.171  0.00  0.00    +0.000 A 
ATOM      6  C   UNL     1      -0.289  11.277  19.715  0.00  0.00    +0.000 A 
ATOM      7  C   UNL     1      -0.467  12.657  19.725  0.00  0.00    +0.000 A 
ATOM      8  C   UNL     1       0.532  13.478  19.197  0.00  0.00    +0.000 A 
ATOM      9  C   UNL     1       0.418  14.879  19.200  0.00  0.00    +0.000 A 
ATOM     10  C   UNL     1       1.440  15.662  18.673  0.00  0.00    +0.000 A 
ATOM     11  C   UNL     1       2.569  15.052  18.141  0.00  0.00    +0.000 A 
ATOM     12  C   UNL     1       2.671  13.658  18.132  0.00  0.00    +0.000 A 
ATOM     13  C   UNL     1       1.668  12.853  18.648  0.00  0.00    +0.000 A 
ATOM     14  N   UNL     1       1.816  11.517  18.625  0.00  0.00    +0.000 NA
ATOM     15  C   UNL     1       0.735   8.570  20.359  0.00  0.00    +0.000 C 
ATOM     16  C   UNL     1       1.903   7.641  20.766  0.00  0.00    +0.000 C 
ENDROOT
BRANCH   1  17
ATOM     17  C   UNL     1       1.441   5.813  19.244  0.00  0.00    +0.000 C 
BRANCH  17  18
ATOM     18  C   UNL     1       1.521   4.447  19.932  0.00  0.00    +0.000 C 
BRANCH  18  19
ATOM     19  C   UNL     1       2.785   4.261  20.762  0.00  0.00    +0.000 C 
BRANCH  19  20
ATOM     20  C   UNL     1       3.774   3.339  20.041  0.00  0.00    +0.000 C 
BRANCH  20  27
ATOM     21  C   UNL     1       6.776   4.269  16.138  0.00  0.00    +0.000 C 
ATOM     22  C   UNL     1       5.502   5.070  16.456  0.00  0.00    +0.000 C 
ATOM     23  C   UNL     1       5.333   6.183  15.408  0.00  0.00    +0.000 C 
ATOM     24  C   UNL     1       4.269   4.158  16.401  0.00  0.00    +0.000 C 
ATOM     25  C   UNL     1       4.073   3.308  17.637  0.00  0.00    +0.000 C 
ATOM     26  O   UNL     1       3.683   2.145  17.548  0.00  0.00    +0.000 OA
ATOM     27  N   UNL     1       4.288   3.967  18.834  0.00  0.00    +0.000 N 
ATOM     28  C   UNL     1       5.440   4.726  18.953  0.00  0.00    +0.000 C 
ATOM     29  O   UNL     1       6.228   4.660  19.892  0.00  0.00    +0.000 OA
ATOM     30  C   UNL     1       5.622   5.720  17.836  0.00  0.00    +0.000 C 
ENDBRANCH  20  27
ENDBRANCH  19  20
ENDBRANCH  18  19
ENDBRANCH  17  18
ENDBRANCH   1  17
TORSDOF 5
ENDMDL
MODEL 7
REMARK VINA RESULT:      -7.7      3.624     10.521
REMARK  Name = 
REMARK  7 active torsions:
REMARK  status: ('A' for Active; 'I' for Inactive)
REMARK    1  A    between atoms: C_1  and  C_2
REMARK    2  A    between atoms: C_2  and  C_3
REMARK    3  A    between atoms: N_7  and  C_8
REMARK    4  A    between atoms: C_8  and  C_9
REMARK    5  A    between atoms: C_9  and  C_10
REMARK    6  A    between atoms: C_10  and  C_11
REMARK    7  A    between atoms: C_11  and  N_12
REMARK                            x       y       z     vdW  Elec       q    Type
REMARK                         _______ _______ _______ _____ _____    ______ ____
ROOT
ATOM      1  N   UNL     1       1.102  10.229  18.206  0.00  0.00    +0.000 NA
ATOM      2  C   UNL     1      -0.368  10.357  18.070  0.00  0.00    +0.000 C 
ATOM      3  C   UNL     1      -1.190  10.244  19.374  0.00  0.00    +0.000 C 
ATOM      4  N   UNL     1      -0.601  10.997  20.486  0.00  0.00    +0.000 N 
ATOM      5  C   UNL     1      -1.404  11.798  21.269  0.00  0.00    +0.000 A 
ATOM      6  C   UNL     1      -1.115  11.991  22.619  0.00  0.00    +0.000 A 
ATOM      7  C   UNL     1      -1.921  12.821  23.393  0.00  0.00    +0.000 A 
ATOM      8  C   UNL     1      -3.009  13.465  22.797  0.00  0.00    +0.000 A 
ATOM      9  C   UNL     1      -3.844  14.332  23.523  0.00  0.00    +0.000 A 
ATOM     10  C   UNL     1      -4.912  14.962  22.891  0.00  0.00    +0.000 A 
ATOM     11  C   UNL     1      -5.149  14.724  21.542  0.00  0.00    +0.000 A 
ATOM     12  C   UNL     1      -4.320  13.853  20.830  0.00  0.00    +0.000 A 
ATOM     13  C   UNL     1      -3.251  13.211  21.434  0.00  0.00    +0.000 A 
ATOM     14  N   UNL     1      -2.478  12.388  20.705  0.00  0.00    +0.000 NA
ATOM     15  C   UNL     1       0.855  11.068  20.605  0.00  0.00    +0.000 C 
ATOM     16  C   UNL     1       1.529  11.221  19.222  0.00  0.00    +0.000 C 
ENDROOT
BRANCH   1  17
ATOM     17  C   UNL     1       1.558   8.883  18.587  0.00  0.00    +0.000 C 
BRANCH  17  18
ATOM     18  C   UNL     1       2.421   8.156  17.551  0.00  0.00    +0.000 C 
BRANCH  18  19
ATOM     19  C   UNL     1       3.549   7.339  18.170  0.00  0.00    +0.000 C 
BRANCH  19  20
ATOM     20  C   UNL     1       3.576   5.924  17.583  0.00  0.00    +0.000 C 
BRANCH  20  27
ATOM     21  C   UNL     1       1.972   1.554  19.438  0.00  0.00    +0.000 C 
ATOM     22  C   UNL     1       1.998   2.871  20.233  0.00  0.00    +0.000 C 
ATOM     23  C   UNL     1       1.441   2.618  21.644  0.00  0.00    +0.000 C 
ATOM     24  C   UNL     1       3.436   3.390  20.362  0.00  0.00    +0.000 C 
ATOM     25  C   UNL     1       3.952   4.096  19.128  0.00  0.00    +0.000 C 
ATOM     26  O   UNL     1       5.114   3.947  18.755  0.00  0.00    +0.000 OA
ATOM     27  N   UNL     1       3.047   4.956  18.531  0.00  0.00    +0.000 N 
ATOM     28  C   UNL     1       1.763   4.488  18.313  0.00  0.00    +0.000 C 
ATOM     29  O   UNL     1       1.160   4.567  17.246  0.00  0.00    +0.000 OA
ATOM     30  C   UNL     1       1.115   3.915  19.546  0.00  0.00    +0.000 C 
ENDBRANCH  20  27
ENDBRANCH  19  20
ENDBRANCH  18  19
ENDBRANCH  17  18
ENDBRANCH   1  17
TORSDOF 5
ENDMDL
MODEL 8
REMARK VINA RESULT:      -7.7      1.827      7.554
REMARK  Name = 
REMARK  7 active torsions:
REMARK  status: ('A' for Active; 'I' for Inactive)
REMARK    1  A    between atoms: C_1  and  C_2
REMARK    2  A    between atoms: C_2  and  C_3
REMARK    3  A    between atoms: N_7  and  C_8
REMARK    4  A    between atoms: C_8  and  C_9
REMARK    5  A    between atoms: C_9  and  C_10
REMARK    6  A    between atoms: C_10  and  C_11
REMARK    7  A    between atoms: C_11  and  N_12
REMARK                            x       y       z     vdW  Elec       q    Type
REMARK                         _______ _______ _______ _____ _____    ______ ____
ROOT
ATOM      1  N   UNL     1       2.145   3.279  19.670  0.00  0.00    +0.000 NA
ATOM      2  C   UNL     1       2.032   4.236  20.795  0.00  0.00    +0.000 C 
ATOM      3  C   UNL     1       2.686   5.621  20.588  0.00  0.00    +0.000 C 
ATOM      4  N   UNL     1       2.412   6.186  19.262  0.00  0.00    +0.000 N 
ATOM      5  C   UNL     1       2.021   7.503  19.149  0.00  0.00    +0.000 A 
ATOM      6  C   UNL     1       2.367   8.254  18.028  0.00  0.00    +0.000 A 
ATOM      7  C   UNL     1       1.945   9.576  17.917  0.00  0.00    +0.000 A 
ATOM      8  C   UNL     1       1.162  10.130  18.932  0.00  0.00    +0.000 A 
ATOM      9  C   UNL     1       0.688  11.452  18.863  0.00  0.00    +0.000 A 
ATOM     10  C   UNL     1      -0.097  11.965  19.891  0.00  0.00    +0.000 A 
ATOM     11  C   UNL     1      -0.405  11.165  20.986  0.00  0.00    +0.000 A 
ATOM     12  C   UNL     1       0.079   9.856  21.051  0.00  0.00    +0.000 A 
ATOM     13  C   UNL     1       0.864   9.319  20.043  0.00  0.00    +0.000 A 
ATOM     14  N   UNL     1       1.299   8.051  20.148  0.00  0.00    +0.000 NA
ATOM     15  C   UNL     1       2.336   5.290  18.108  0.00  0.00    +0.000 C 
ATOM     16  C   UNL     1       1.620   3.967  18.466  0.00  0.00    +0.000 C 
ENDROOT
BRANCH   1  17
ATOM     17  C   UNL     1       3.511   2.795  19.423  0.00  0.00    +0.000 C 
BRANCH  17  18
ATOM     18  C   UNL     1       4.384   3.689  18.537  0.00  0.00    +0.000 C 
BRANCH  18  19
ATOM     19  C   UNL     1       5.449   4.454  19.313  0.00  0.00    +0.000 C 
BRANCH  19  20
ATOM     20  C   UNL     1       6.035   5.583  18.457  0.00  0.00    +0.000 C 
BRANCH  20  27
ATOM     21  C   UNL     1       7.514   5.506  13.670  0.00  0.00    +0.000 C 
ATOM     22  C   UNL     1       6.419   4.594  14.249  0.00  0.00    +0.000 C 
ATOM     23  C   UNL     1       5.863   3.700  13.127  0.00  0.00    +0.000 C 
ATOM     24  C   UNL     1       6.998   3.694  15.348  0.00  0.00    +0.000 C 
ATOM     25  C   UNL     1       7.168   4.380  16.685  0.00  0.00    +0.000 C 
ATOM     26  O   UNL     1       8.149   4.156  17.390  0.00  0.00    +0.000 OA
ATOM     27  N   UNL     1       6.111   5.191  17.058  0.00  0.00    +0.000 N 
ATOM     28  C   UNL     1       5.622   6.084  16.121  0.00  0.00    +0.000 C 
ATOM     29  O   UNL     1       5.428   7.279  16.325  0.00  0.00    +0.000 OA
ATOM     30  C   UNL     1       5.271   5.441  14.805  0.00  0.00    +0.000 C 
ENDBRANCH  20  27
ENDBRANCH  19  20
ENDBRANCH  18  19
ENDBRANCH  17  18
ENDBRANCH   1  17
TORSDOF 5
ENDMDL
MODEL 9
REMARK VINA RESULT:      -7.7      2.646      8.828
REMARK  Name = 
REMARK  7 active torsions:
REMARK  status: ('A' for Active; 'I' for Inactive)
REMARK    1  A    between atoms: C_1  and  C_2
REMARK    2  A    between atoms: C_2  and  C_3
REMARK    3  A    between atoms: N_7  and  C_8
REMARK    4  A    between atoms: C_8  and  C_9
REMARK    5  A    between atoms: C_9  and  C_10
REMARK    6  A    between atoms: C_10  and  C_11
REMARK    7  A    between atoms: C_11  and  N_12
REMARK                            x       y       z     vdW  Elec       q    Type
REMARK                         _______ _______ _______ _____ _____    ______ ____
ROOT
ATOM      1  N   UNL     1       2.788   7.077  18.491  0.00  0.00    +0.000 NA
ATOM      2  C   UNL     1       2.688   8.445  17.931  0.00  0.00    +0.000 C 
ATOM      3  C   UNL     1       1.391   9.223  18.248  0.00  0.00    +0.000 C 
ATOM      4  N   UNL     1       0.978   9.094  19.649  0.00  0.00    +0.000 N 
ATOM      5  C   UNL     1       0.596  10.214  20.356  0.00  0.00    +0.000 A 
ATOM      6  C   UNL     1      -0.366  10.129  21.360  0.00  0.00    +0.000 A 
ATOM      7  C   UNL     1      -0.724  11.265  22.081  0.00  0.00    +0.000 A 
ATOM      8  C   UNL     1      -0.100  12.480  21.794  0.00  0.00    +0.000 A 
ATOM      9  C   UNL     1      -0.404  13.655  22.504  0.00  0.00    +0.000 A 
ATOM     10  C   UNL     1       0.247  14.845  22.194  0.00  0.00    +0.000 A 
ATOM     11  C   UNL     1       1.195  14.865  21.177  0.00  0.00    +0.000 A 
ATOM     12  C   UNL     1       1.485  13.696  20.470  0.00  0.00    +0.000 A 
ATOM     13  C   UNL     1       0.850  12.497  20.755  0.00  0.00    +0.000 A 
ATOM     14  N   UNL     1       1.170  11.397  20.052  0.00  0.00    +0.000 NA
ATOM     15  C   UNL     1       1.193   7.822  20.340  0.00  0.00    +0.000 C 
ATOM     16  C   UNL     1       2.550   7.190  19.950  0.00  0.00    +0.000 C 
ENDROOT
BRANCH   1  17
ATOM     17  C   UNL     1       1.851   6.111  17.896  0.00  0.00    +0.000 C 
BRANCH  17  18
ATOM     18  C   UNL     1       1.914   4.689  18.463  0.00  0.00    +0.000 C 
BRANCH  18  19
ATOM     19  C   UNL     1       2.141   3.623  17.398  0.00  0.00    +0.000 C 
BRANCH  19  20
ATOM     20  C   UNL     1       3.472   2.901  17.633  0.00  0.00    +0.000 C 
BRANCH  20  27
ATOM     21  C   UNL     1       8.151   4.649  18.035  0.00  0.00    +0.000 C 
ATOM     22  C   UNL     1       6.902   5.542  17.931  0.00  0.00    +0.000 C 
ATOM     23  C   UNL     1       7.333   7.017  17.992  0.00  0.00    +0.000 C 
ATOM     24  C   UNL     1       6.181   5.299  16.599  0.00  0.00    +0.000 C 
ATOM     25  C   UNL     1       5.323   4.054  16.578  0.00  0.00    +0.000 C 
ATOM     26  O   UNL     1       5.267   3.342  15.577  0.00  0.00    +0.000 OA
ATOM     27  N   UNL     1       4.572   3.849  17.721  0.00  0.00    +0.000 N 
ATOM     28  C   UNL     1       5.213   3.967  18.942  0.00  0.00    +0.000 C 
ATOM     29  O   UNL     1       5.154   3.140  19.848  0.00  0.00    +0.000 OA
ATOM     30  C   UNL     1       5.960   5.265  19.105  0.00  0.00    +0.000 C 
ENDBRANCH  20  27
ENDBRANCH  19  20
ENDBRANCH  18  19
ENDBRANCH  17  18
ENDBRANCH   1  17
TORSDOF 5
ENDMDL
