MODEL 1
REMARK VINA RESULT:      -7.1      0.000      0.000
REMARK  Name = 
REMARK  9 active torsions:
REMARK  status: ('A' for Active; 'I' for Inactive)
REMARK    1  A    between atoms: C_1  and  O_2
REMARK    2  A    between atoms: O_2  and  C_3
REMARK    3  A    between atoms: C_3  and  C_5
REMARK    4  A    between atoms: C_8  and  C_9
REMARK    5  A    between atoms: C_9  and  N_10
REMARK    6  A    between atoms: N_10  and  S_20
REMARK    7  A    between atoms: N_16  and  C_17
REMARK    8  A    between atoms: S_20  and  C_23
REMARK    9  A    between atoms: C_26  and  C_27
REMARK                            x       y       z     vdW  Elec       q    Type
REMARK                         _______ _______ _______ _____ _____    ______ ____
ROOT
ATOM      1  N   UNL     1       1.354  10.279  19.293  0.00  0.00    +0.000 N 
ATOM      2  C   UNL     1       1.966  11.398  18.624  0.00  0.00    +0.000 C 
ATOM      3  O   UNL     1       2.559  11.168  17.571  0.00  0.00    +0.000 OA
ATOM      4  N   UNL     1       1.891  12.747  19.010  0.00  0.00    +0.000 N 
ATOM      5  C   UNL     1       2.813  13.685  18.326  0.00  0.00    +0.000 C 
ATOM      6  C   UNL     1       2.358  15.162  18.387  0.00  0.00    +0.000 C 
ATOM      7  N   UNL     1       1.941  15.640  19.719  0.00  0.00    +0.000 NA
ATOM      8  C   UNL     1       3.062  15.722  20.655  0.00  0.00    +0.000 C 
ATOM      9  C   UNL     1       0.906  14.731  20.219  0.00  0.00    +0.000 C 
ATOM     10  C   UNL     1       1.328  13.259  20.240  0.00  0.00    +0.000 C 
ENDROOT
BRANCH   1  11
ATOM     11  S   UNL     1       0.553  10.181  20.788  0.00  0.00    +0.000 S 
ATOM     12  O   UNL     1       0.111   8.821  21.019  0.00  0.00    +0.000 OA
ATOM     13  O   UNL     1       1.342  10.829  21.814  0.00  0.00    +0.000 OA
BRANCH  11  14
ATOM     14  C   UNL     1      -0.964  11.134  20.589  0.00  0.00    +0.000 A 
ATOM     15  C   UNL     1      -1.598  11.293  19.353  0.00  0.00    +0.000 A 
ATOM     16  C   UNL     1      -2.753  12.083  19.256  0.00  0.00    +0.000 A 
ATOM     17  C   UNL     1      -3.275  12.728  20.386  0.00  0.00    +0.000 A 
ATOM     18  C   UNL     1      -4.517  13.570  20.298  0.00  0.00    +0.000 C 
ATOM     19  C   UNL     1      -2.618  12.583  21.614  0.00  0.00    +0.000 A 
ATOM     20  C   UNL     1      -1.467  11.796  21.717  0.00  0.00    +0.000 A 
ENDBRANCH  11  14
ENDBRANCH   1  11
BRANCH   1  21
ATOM     21  C   UNL     1       1.151   9.025  18.482  0.00  0.00    +0.000 C 
BRANCH  21  25
ATOM     22  C   UNL     1       4.089   5.852  18.511  0.00  0.00    +0.000 A 
ATOM     23  C   UNL     1       3.193   5.975  19.584  0.00  0.00    +0.000 A 
ATOM     24  C   UNL     1       2.265   7.028  19.614  0.00  0.00    +0.000 A 
ATOM     25  C   UNL     1       2.221   7.959  18.567  0.00  0.00    +0.000 A 
ATOM     26  C   UNL     1       3.151   7.850  17.524  0.00  0.00    +0.000 A 
ATOM     27  C   UNL     1       4.077   6.810  17.495  0.00  0.00    +0.000 A 
BRANCH  22  28
ATOM     28  C   UNL     1       5.009   4.681  18.458  0.00  0.00    +0.000 C 
ATOM     29  O   UNL     1       5.885   4.457  19.277  0.00  0.00    +0.000 OA
BRANCH  28  31
ATOM     30  C   UNL     1       3.671   2.934  17.626  0.00  0.00    +0.000 C 
ATOM     31  O   UNL     1       4.694   3.901  17.392  0.00  0.00    +0.000 OA
ENDBRANCH  28  31
ENDBRANCH  22  28
ENDBRANCH  21  25
ENDBRANCH   1  21
TORSDOF 6
ENDMDL
MODEL 2
REMARK VINA RESULT:      -7.0      1.103      1.356
REMARK  Name = 
REMARK  9 active torsions:
REMARK  status: ('A' for Active; 'I' for Inactive)
REMARK    1  A    between atoms: C_1  and  O_2
REMARK    2  A    between atoms: O_2  and  C_3
REMARK    3  A    between atoms: C_3  and  C_5
REMARK    4  A    between atoms: C_8  and  C_9
REMARK    5  A    between atoms: C_9  and  N_10
REMARK    6  A    between atoms: N_10  and  S_20
REMARK    7  A    between atoms: N_16  and  C_17
REMARK    8  A    between atoms: S_20  and  C_23
REMARK    9  A    between atoms: C_26  and  C_27
REMARK                            x       y       z     vdW  Elec       q    Type
REMARK                         _______ _______ _______ _____ _____    ______ ____
ROOT
ATOM      1  N   UNL     1       1.293  10.360  18.834  0.00  0.00    +0.000 N 
ATOM      2  C   UNL     1       2.118  11.432  18.338  0.00  0.00    +0.000 C 
ATOM      3  O   UNL     1       2.964  11.144  17.493  0.00  0.00    +0.000 OA
ATOM      4  N   UNL     1       2.005  12.795  18.663  0.00  0.00    +0.000 N 
ATOM      5  C   UNL     1       3.123  13.672  18.241  0.00  0.00    +0.000 C 
ATOM      6  C   UNL     1       2.742  15.167  18.146  0.00  0.00    +0.000 C 
ATOM      7  N   UNL     1       1.999  15.704  19.303  0.00  0.00    +0.000 NA
ATOM      8  C   UNL     1       2.825  15.769  20.510  0.00  0.00    +0.000 C 
ATOM      9  C   UNL     1       0.825  14.854  19.517  0.00  0.00    +0.000 C 
ATOM     10  C   UNL     1       1.153  13.368  19.681  0.00  0.00    +0.000 C 
ENDROOT
BRANCH   1  11
ATOM     11  S   UNL     1       0.110  10.343  20.053  0.00  0.00    +0.000 S 
ATOM     12  O   UNL     1      -0.064   8.993  20.548  0.00  0.00    +0.000 OA
ATOM     13  O   UNL     1       0.373  11.396  21.011  0.00  0.00    +0.000 OA
BRANCH  11  14
ATOM     14  C   UNL     1      -1.443  10.737  19.228  0.00  0.00    +0.000 A 
ATOM     15  C   UNL     1      -1.878  10.069  18.081  0.00  0.00    +0.000 A 
ATOM     16  C   UNL     1      -3.077  10.452  17.460  0.00  0.00    +0.000 A 
ATOM     17  C   UNL     1      -3.841  11.510  17.972  0.00  0.00    +0.000 A 
ATOM     18  C   UNL     1      -5.131  11.924  17.321  0.00  0.00    +0.000 C 
ATOM     19  C   UNL     1      -3.383  12.190  19.106  0.00  0.00    +0.000 A 
ATOM     20  C   UNL     1      -2.190  11.812  19.730  0.00  0.00    +0.000 A 
ENDBRANCH  11  14
ENDBRANCH   1  11
BRANCH   1  21
ATOM     21  C   UNL     1       1.258   9.091  18.023  0.00  0.00    +0.000 C 
BRANCH  21  25
ATOM     22  C   UNL     1       4.015   5.856  18.821  0.00  0.00    +0.000 A 
ATOM     23  C   UNL     1       3.004   6.149  19.749  0.00  0.00    +0.000 A 
ATOM     24  C   UNL     1       2.132   7.226  19.529  0.00  0.00    +0.000 A 
ATOM     25  C   UNL     1       2.258   8.012  18.375  0.00  0.00    +0.000 A 
ATOM     26  C   UNL     1       3.300   7.736  17.479  0.00  0.00    +0.000 A 
ATOM     27  C   UNL     1       4.171   6.672  17.699  0.00  0.00    +0.000 A 
BRANCH  22  28
ATOM     28  C   UNL     1       4.877   4.659  19.032  0.00  0.00    +0.000 C 
ATOM     29  O   UNL     1       6.063   4.708  19.318  0.00  0.00    +0.000 OA
BRANCH  28  31
ATOM     30  C   UNL     1       4.377   2.518  19.870  0.00  0.00    +0.000 C 
ATOM     31  O   UNL     1       4.134   3.532  18.895  0.00  0.00    +0.000 OA
ENDBRANCH  28  31
ENDBRANCH  22  28
ENDBRANCH  21  25
ENDBRANCH   1  21
TORSDOF 6
ENDMDL
MODEL 3
REMARK VINA RESULT:      -6.9      0.696      1.369
REMARK  Name = 
REMARK  9 active torsions:
REMARK  status: ('A' for Active; 'I' for Inactive)
REMARK    1  A    between atoms: C_1  and  O_2
REMARK    2  A    between atoms: O_2  and  C_3
REMARK    3  A    between atoms: C_3  and  C_5
REMARK    4  A    between atoms: C_8  and  C_9
REMARK    5  A    between atoms: C_9  and  N_10
REMARK    6  A    between atoms: N_10  and  S_20
REMARK    7  A    between atoms: N_16  and  C_17
REMARK    8  A    between atoms: S_20  and  C_23
REMARK    9  A    between atoms: C_26  and  C_27
REMARK                            x       y       z     vdW  Elec       q    Type
REMARK                         _______ _______ _______ _____ _____    ______ ____
ROOT
ATOM      1  N   UNL     1       1.379  10.167  19.294  0.00  0.00    +0.000 N 
ATOM      2  C   UNL     1       2.004  11.276  18.618  0.00  0.00    +0.000 C 
ATOM      3  O   UNL     1       2.552  11.042  17.542  0.00  0.00    +0.000 OA
ATOM      4  N   UNL     1       1.988  12.621  19.024  0.00  0.00    +0.000 N 
ATOM      5  C   UNL     1       2.915  13.539  18.321  0.00  0.00    +0.000 C 
ATOM      6  C   UNL     1       2.512  15.028  18.417  0.00  0.00    +0.000 C 
ATOM      7  N   UNL     1       2.157  15.500  19.769  0.00  0.00    +0.000 NA
ATOM      8  C   UNL     1       3.314  15.532  20.667  0.00  0.00    +0.000 C 
ATOM      9  C   UNL     1       1.112  14.618  20.294  0.00  0.00    +0.000 C 
ATOM     10  C   UNL     1       1.485  13.133  20.280  0.00  0.00    +0.000 C 
ENDROOT
BRANCH   1  11
ATOM     11  S   UNL     1       0.629  10.074  20.815  0.00  0.00    +0.000 S 
ATOM     12  O   UNL     1       0.151   8.727  21.044  0.00  0.00    +0.000 OA
ATOM     13  O   UNL     1       1.474  10.682  21.820  0.00  0.00    +0.000 OA
BRANCH  11  14
ATOM     14  C   UNL     1      -0.862  11.078  20.682  0.00  0.00    +0.000 A 
ATOM     15  C   UNL     1      -1.507  11.314  19.464  0.00  0.00    +0.000 A 
ATOM     16  C   UNL     1      -2.639  12.140  19.421  0.00  0.00    +0.000 A 
ATOM     17  C   UNL     1      -3.129  12.745  20.587  0.00  0.00    +0.000 A 
ATOM     18  C   UNL     1      -4.347  13.625  20.556  0.00  0.00    +0.000 C 
ATOM     19  C   UNL     1      -2.461  12.523  21.797  0.00  0.00    +0.000 A 
ATOM     20  C   UNL     1      -1.332  11.700  21.847  0.00  0.00    +0.000 A 
ENDBRANCH  11  14
ENDBRANCH   1  11
BRANCH   1  21
ATOM     21  C   UNL     1       1.107   8.933  18.474  0.00  0.00    +0.000 C 
BRANCH  21  25
ATOM     22  C   UNL     1       4.270   5.988  18.637  0.00  0.00    +0.000 A 
ATOM     23  C   UNL     1       4.223   6.896  17.568  0.00  0.00    +0.000 A 
ATOM     24  C   UNL     1       3.177   7.826  17.474  0.00  0.00    +0.000 A 
ATOM     25  C   UNL     1       2.174   7.861  18.453  0.00  0.00    +0.000 A 
ATOM     26  C   UNL     1       2.209   6.920  19.491  0.00  0.00    +0.000 A 
ATOM     27  C   UNL     1       3.243   5.992  19.583  0.00  0.00    +0.000 A 
BRANCH  22  28
ATOM     28  C   UNL     1       5.433   5.065  18.762  0.00  0.00    +0.000 C 
ATOM     29  O   UNL     1       5.390   3.977  19.313  0.00  0.00    +0.000 OA
BRANCH  28  31
ATOM     30  C   UNL     1       7.640   5.850  18.985  0.00  0.00    +0.000 C 
ATOM     31  O   UNL     1       6.514   5.606  18.144  0.00  0.00    +0.000 OA
ENDBRANCH  28  31
ENDBRANCH  22  28
ENDBRANCH  21  25
ENDBRANCH   1  21
TORSDOF 6
ENDMDL
MODEL 4
REMARK VINA RESULT:      -6.9      0.492      1.345
REMARK  Name = 
REMARK  9 active torsions:
REMARK  status: ('A' for Active; 'I' for Inactive)
REMARK    1  A    between atoms: C_1  and  O_2
REMARK    2  A    between atoms: O_2  and  C_3
REMARK    3  A    between atoms: C_3  and  C_5
REMARK    4  A    between atoms: C_8  and  C_9
REMARK    5  A    between atoms: C_9  and  N_10
REMARK    6  A    between atoms: N_10  and  S_20
REMARK    7  A    between atoms: N_16  and  C_17
REMARK    8  A    between atoms: S_20  and  C_23
REMARK    9  A    between atoms: C_26  and  C_27
REMARK                            x       y       z     vdW  Elec       q    Type
REMARK                         _______ _______ _______ _____ _____    ______ ____
ROOT
ATOM      1  N   UNL     1       1.294  10.378  19.379  0.00  0.00    +0.000 N 
ATOM      2  C   UNL     1       1.909  11.536  18.781  0.00  0.00    +0.000 C 
ATOM      3  O   UNL     1       2.519  11.366  17.726  0.00  0.00    +0.000 OA
ATOM      4  N   UNL     1       1.821  12.861  19.238  0.00  0.00    +0.000 N 
ATOM      5  C   UNL     1       2.747  13.840  18.620  0.00  0.00    +0.000 C 
ATOM      6  C   UNL     1       2.282  15.308  18.753  0.00  0.00    +0.000 C 
ATOM      7  N   UNL     1       1.842  15.712  20.102  0.00  0.00    +0.000 NA
ATOM      8  C   UNL     1       2.950  15.749  21.059  0.00  0.00    +0.000 C 
ATOM      9  C   UNL     1       0.806  14.772  20.537  0.00  0.00    +0.000 C 
ATOM     10  C   UNL     1       1.236  13.303  20.485  0.00  0.00    +0.000 C 
ENDROOT
BRANCH   1  11
ATOM     11  S   UNL     1       0.472  10.196  20.854  0.00  0.00    +0.000 S 
ATOM     12  O   UNL     1      -0.032   8.843  20.970  0.00  0.00    +0.000 OA
ATOM     13  O   UNL     1       1.277  10.722  21.936  0.00  0.00    +0.000 OA
BRANCH  11  14
ATOM     14  C   UNL     1      -0.999  11.229  20.721  0.00  0.00    +0.000 A 
ATOM     15  C   UNL     1      -1.580  11.859  21.825  0.00  0.00    +0.000 A 
ATOM     16  C   UNL     1      -2.750  12.615  21.663  0.00  0.00    +0.000 A 
ATOM     17  C   UNL     1      -3.354  12.737  20.404  0.00  0.00    +0.000 A 
ATOM     18  C   UNL     1      -4.603  13.552  20.215  0.00  0.00    +0.000 C 
ATOM     19  C   UNL     1      -2.779  12.081  19.310  0.00  0.00    +0.000 A 
ATOM     20  C   UNL     1      -1.611  11.327  19.464  0.00  0.00    +0.000 A 
ENDBRANCH  11  14
ENDBRANCH   1  11
BRANCH   1  21
ATOM     21  C   UNL     1       1.111   9.169  18.499  0.00  0.00    +0.000 C 
BRANCH  21  25
ATOM     22  C   UNL     1       4.056   6.003  18.419  0.00  0.00    +0.000 A 
ATOM     23  C   UNL     1       3.146   6.076  19.484  0.00  0.00    +0.000 A 
ATOM     24  C   UNL     1       2.216   7.124  19.551  0.00  0.00    +0.000 A 
ATOM     25  C   UNL     1       2.183   8.103  18.548  0.00  0.00    +0.000 A 
ATOM     26  C   UNL     1       3.126   8.043  17.513  0.00  0.00    +0.000 A 
ATOM     27  C   UNL     1       4.054   7.007  17.448  0.00  0.00    +0.000 A 
BRANCH  22  28
ATOM     28  C   UNL     1       4.979   4.837  18.323  0.00  0.00    +0.000 C 
ATOM     29  O   UNL     1       4.954   4.012  17.424  0.00  0.00    +0.000 OA
BRANCH  28  31
ATOM     30  C   UNL     1       7.078   5.561  19.100  0.00  0.00    +0.000 C 
ATOM     31  O   UNL     1       5.859   4.866  19.356  0.00  0.00    +0.000 OA
ENDBRANCH  28  31
ENDBRANCH  22  28
ENDBRANCH  21  25
ENDBRANCH   1  21
TORSDOF 6
ENDMDL
MODEL 5
REMARK VINA RESULT:      -6.8      2.496      4.438
REMARK  Name = 
REMARK  9 active torsions:
REMARK  status: ('A' for Active; 'I' for Inactive)
REMARK    1  A    between atoms: C_1  and  O_2
REMARK    2  A    between atoms: O_2  and  C_3
REMARK    3  A    between atoms: C_3  and  C_5
REMARK    4  A    between atoms: C_8  and  C_9
REMARK    5  A    between atoms: C_9  and  N_10
REMARK    6  A    between atoms: N_10  and  S_20
REMARK    7  A    between atoms: N_16  and  C_17
REMARK    8  A    between atoms: S_20  and  C_23
REMARK    9  A    between atoms: C_26  and  C_27
REMARK                            x       y       z     vdW  Elec       q    Type
REMARK                         _______ _______ _______ _____ _____    ______ ____
ROOT
ATOM      1  N   UNL     1       0.052  11.923  19.367  0.00  0.00    +0.000 N 
ATOM      2  C   UNL     1      -1.266  11.891  19.948  0.00  0.00    +0.000 C 
ATOM      3  O   UNL     1      -2.121  11.226  19.364  0.00  0.00    +0.000 OA
ATOM      4  N   UNL     1      -1.661  12.481  21.160  0.00  0.00    +0.000 N 
ATOM      5  C   UNL     1      -3.119  12.544  21.424  0.00  0.00    +0.000 C 
ATOM      6  C   UNL     1      -3.476  12.703  22.919  0.00  0.00    +0.000 C 
ATOM      7  N   UNL     1      -2.719  13.744  23.642  0.00  0.00    +0.000 NA
ATOM      8  C   UNL     1      -3.065  15.094  23.193  0.00  0.00    +0.000 C 
ATOM      9  C   UNL     1      -1.292  13.478  23.448  0.00  0.00    +0.000 C 
ATOM     10  C   UNL     1      -0.871  13.373  21.980  0.00  0.00    +0.000 C 
ENDROOT
BRANCH   1  11
ATOM     11  S   UNL     1       1.441  12.794  19.813  0.00  0.00    +0.000 S 
ATOM     12  O   UNL     1       1.705  12.605  21.224  0.00  0.00    +0.000 OA
ATOM     13  O   UNL     1       2.511  12.531  18.874  0.00  0.00    +0.000 OA
BRANCH  11  14
ATOM     14  C   UNL     1       0.996  14.533  19.653  0.00  0.00    +0.000 A 
ATOM     15  C   UNL     1       1.531  15.527  20.478  0.00  0.00    +0.000 A 
ATOM     16  C   UNL     1       1.111  16.857  20.332  0.00  0.00    +0.000 A 
ATOM     17  C   UNL     1       0.148  17.202  19.374  0.00  0.00    +0.000 A 
ATOM     18  C   UNL     1      -0.303  18.626  19.201  0.00  0.00    +0.000 C 
ATOM     19  C   UNL     1      -0.401  16.196  18.571  0.00  0.00    +0.000 A 
ATOM     20  C   UNL     1       0.015  14.868  18.710  0.00  0.00    +0.000 A 
ENDBRANCH  11  14
ENDBRANCH   1  11
BRANCH   1  21
ATOM     21  C   UNL     1       0.378  10.861  18.350  0.00  0.00    +0.000 C 
BRANCH  21  25
ATOM     22  C   UNL     1       2.224   7.157  19.606  0.00  0.00    +0.000 A 
ATOM     23  C   UNL     1       1.519   7.931  20.540  0.00  0.00    +0.000 A 
ATOM     24  C   UNL     1       0.955   9.159  20.161  0.00  0.00    +0.000 A 
ATOM     25  C   UNL     1       1.085   9.617  18.843  0.00  0.00    +0.000 A 
ATOM     26  C   UNL     1       1.830   8.856  17.932  0.00  0.00    +0.000 A 
ATOM     27  C   UNL     1       2.395   7.641  18.307  0.00  0.00    +0.000 A 
BRANCH  22  28
ATOM     28  C   UNL     1       2.744   5.819  20.008  0.00  0.00    +0.000 C 
ATOM     29  O   UNL     1       3.872   5.421  19.771  0.00  0.00    +0.000 OA
BRANCH  28  31
ATOM     30  C   UNL     1       2.211   3.921  21.290  0.00  0.00    +0.000 C 
ATOM     31  O   UNL     1       1.787   5.147  20.698  0.00  0.00    +0.000 OA
ENDBRANCH  28  31
ENDBRANCH  22  28
ENDBRANCH  21  25
ENDBRANCH   1  21
TORSDOF 6
ENDMDL
MODEL 6
REMARK VINA RESULT:      -6.6      2.504      4.594
REMARK  Name = 
REMARK  9 active torsions:
REMARK  status: ('A' for Active; 'I' for Inactive)
REMARK    1  A    between atoms: C_1  and  O_2
REMARK    2  A    between atoms: O_2  and  C_3
REMARK    3  A    between atoms: C_3  and  C_5
REMARK    4  A    between atoms: C_8  and  C_9
REMARK    5  A    between atoms: C_9  and  N_10
REMARK    6  A    between atoms: N_10  and  S_20
REMARK    7  A    between atoms: N_16  and  C_17
REMARK    8  A    between atoms: S_20  and  C_23
REMARK    9  A    between atoms: C_26  and  C_27
REMARK                            x       y       z     vdW  Elec       q    Type
REMARK                         _______ _______ _______ _____ _____    ______ ____
ROOT
ATOM      1  N   UNL     1       0.053  12.107  19.303  0.00  0.00    +0.000 N 
ATOM      2  C   UNL     1      -1.241  12.038  19.933  0.00  0.00    +0.000 C 
ATOM      3  O   UNL     1      -2.100  11.356  19.377  0.00  0.00    +0.000 OA
ATOM      4  N   UNL     1      -1.604  12.609  21.164  0.00  0.00    +0.000 N 
ATOM      5  C   UNL     1      -3.051  12.634  21.483  0.00  0.00    +0.000 C 
ATOM      6  C   UNL     1      -3.355  12.774  22.993  0.00  0.00    +0.000 C 
ATOM      7  N   UNL     1      -2.597  13.828  23.694  0.00  0.00    +0.000 NA
ATOM      8  C   UNL     1      -2.993  15.172  23.269  0.00  0.00    +0.000 C 
ATOM      9  C   UNL     1      -1.172  13.599  23.444  0.00  0.00    +0.000 C 
ATOM     10  C   UNL     1      -0.805  13.515  21.960  0.00  0.00    +0.000 C 
ENDROOT
BRANCH   1  11
ATOM     11  S   UNL     1       1.436  13.009  19.703  0.00  0.00    +0.000 S 
ATOM     12  O   UNL     1       1.522  13.162  21.140  0.00  0.00    +0.000 OA
ATOM     13  O   UNL     1       2.587  12.486  18.999  0.00  0.00    +0.000 OA
BRANCH  11  14
ATOM     14  C   UNL     1       1.129  14.672  19.078  0.00  0.00    +0.000 A 
ATOM     15  C   UNL     1      -0.159  15.193  18.922  0.00  0.00    +0.000 A 
ATOM     16  C   UNL     1      -0.334  16.478  18.390  0.00  0.00    +0.000 A 
ATOM     17  C   UNL     1       0.772  17.246  17.998  0.00  0.00    +0.000 A 
ATOM     18  C   UNL     1       0.599  18.629  17.434  0.00  0.00    +0.000 C 
ATOM     19  C   UNL     1       2.056  16.705  18.133  0.00  0.00    +0.000 A 
ATOM     20  C   UNL     1       2.236  15.425  18.665  0.00  0.00    +0.000 A 
ENDBRANCH  11  14
ENDBRANCH   1  11
BRANCH   1  21
ATOM     21  C   UNL     1       0.366  11.061  18.266  0.00  0.00    +0.000 C 
BRANCH  21  25
ATOM     22  C   UNL     1       2.138   7.304  19.470  0.00  0.00    +0.000 A 
ATOM     23  C   UNL     1       1.516   8.116  20.431  0.00  0.00    +0.000 A 
ATOM     24  C   UNL     1       0.979   9.359  20.066  0.00  0.00    +0.000 A 
ATOM     25  C   UNL     1       1.052   9.797  18.736  0.00  0.00    +0.000 A 
ATOM     26  C   UNL     1       1.715   8.996  17.796  0.00  0.00    +0.000 A 
ATOM     27  C   UNL     1       2.254   7.764  18.157  0.00  0.00    +0.000 A 
BRANCH  22  28
ATOM     28  C   UNL     1       2.628   5.951  19.861  0.00  0.00    +0.000 C 
ATOM     29  O   UNL     1       3.799   5.609  19.828  0.00  0.00    +0.000 OA
BRANCH  28  31
ATOM     30  C   UNL     1       1.899   3.833  20.579  0.00  0.00    +0.000 C 
ATOM     31  O   UNL     1       1.585   5.194  20.286  0.00  0.00    +0.000 OA
ENDBRANCH  28  31
ENDBRANCH  22  28
ENDBRANCH  21  25
ENDBRANCH   1  21
TORSDOF 6
ENDMDL
MODEL 7
REMARK VINA RESULT:      -6.6      3.277      8.257
REMARK  Name = 
REMARK  9 active torsions:
REMARK  status: ('A' for Active; 'I' for Inactive)
REMARK    1  A    between atoms: C_1  and  O_2
REMARK    2  A    between atoms: O_2  and  C_3
REMARK    3  A    between atoms: C_3  and  C_5
REMARK    4  A    between atoms: C_8  and  C_9
REMARK    5  A    between atoms: C_9  and  N_10
REMARK    6  A    between atoms: N_10  and  S_20
REMARK    7  A    between atoms: N_16  and  C_17
REMARK    8  A    between atoms: S_20  and  C_23
REMARK    9  A    between atoms: C_26  and  C_27
REMARK                            x       y       z     vdW  Elec       q    Type
REMARK                         _______ _______ _______ _____ _____    ______ ____
ROOT
ATOM      1  N   UNL     1      -0.448  12.353  20.769  0.00  0.00    +0.000 N 
ATOM      2  C   UNL     1       0.584  13.297  21.116  0.00  0.00    +0.000 C 
ATOM      3  O   UNL     1       0.572  13.746  22.261  0.00  0.00    +0.000 OA
ATOM      4  N   UNL     1       1.655  13.703  20.303  0.00  0.00    +0.000 N 
ATOM      5  C   UNL     1       2.436  14.874  20.769  0.00  0.00    +0.000 C 
ATOM      6  C   UNL     1       3.855  14.959  20.162  0.00  0.00    +0.000 C 
ATOM      7  N   UNL     1       3.930  14.768  18.701  0.00  0.00    +0.000 NA
ATOM      8  C   UNL     1       3.314  15.873  17.964  0.00  0.00    +0.000 C 
ATOM      9  C   UNL     1       3.276  13.496  18.380  0.00  0.00    +0.000 C 
ATOM     10  C   UNL     1       1.842  13.384  18.905  0.00  0.00    +0.000 C 
ENDROOT
BRANCH   1  11
ATOM     11  S   UNL     1      -0.817  11.607  19.288  0.00  0.00    +0.000 S 
ATOM     12  O   UNL     1      -2.120  10.980  19.367  0.00  0.00    +0.000 OA
ATOM     13  O   UNL     1      -0.562  12.523  18.197  0.00  0.00    +0.000 OA
BRANCH  11  14
ATOM     14  C   UNL     1       0.346  10.239  19.130  0.00  0.00    +0.000 A 
ATOM     15  C   UNL     1       0.923   9.878  17.909  0.00  0.00    +0.000 A 
ATOM     16  C   UNL     1       1.788   8.776  17.844  0.00  0.00    +0.000 A 
ATOM     17  C   UNL     1       2.073   8.021  18.991  0.00  0.00    +0.000 A 
ATOM     18  C   UNL     1       3.006   6.843  18.936  0.00  0.00    +0.000 C 
ATOM     19  C   UNL     1       1.470   8.376  20.203  0.00  0.00    +0.000 A 
ATOM     20  C   UNL     1       0.607   9.474  20.275  0.00  0.00    +0.000 A 
ENDBRANCH  11  14
ENDBRANCH   1  11
BRANCH   1  21
ATOM     21  C   UNL     1      -1.196  11.708  21.906  0.00  0.00    +0.000 C 
BRANCH  21  25
ATOM     22  C   UNL     1      -4.873  13.483  23.333  0.00  0.00    +0.000 A 
ATOM     23  C   UNL     1      -4.352  13.874  22.090  0.00  0.00    +0.000 A 
ATOM     24  C   UNL     1      -3.135  13.345  21.634  0.00  0.00    +0.000 A 
ATOM     25  C   UNL     1      -2.435  12.413  22.414  0.00  0.00    +0.000 A 
ATOM     26  C   UNL     1      -2.945  12.064  23.672  0.00  0.00    +0.000 A 
ATOM     27  C   UNL     1      -4.149  12.593  24.129  0.00  0.00    +0.000 A 
BRANCH  22  28
ATOM     28  C   UNL     1      -6.206  13.994  23.761  0.00  0.00    +0.000 C 
ATOM     29  O   UNL     1      -6.558  15.158  23.668  0.00  0.00    +0.000 OA
BRANCH  28  31
ATOM     30  C   UNL     1      -7.844  12.379  23.269  0.00  0.00    +0.000 C 
ATOM     31  O   UNL     1      -6.961  12.965  24.224  0.00  0.00    +0.000 OA
ENDBRANCH  28  31
ENDBRANCH  22  28
ENDBRANCH  21  25
ENDBRANCH   1  21
TORSDOF 6
ENDMDL
MODEL 8
REMARK VINA RESULT:      -6.5      0.993      1.648
REMARK  Name = 
REMARK  9 active torsions:
REMARK  status: ('A' for Active; 'I' for Inactive)
REMARK    1  A    between atoms: C_1  and  O_2
REMARK    2  A    between atoms: O_2  and  C_3
REMARK    3  A    between atoms: C_3  and  C_5
REMARK    4  A    between atoms: C_8  and  C_9
REMARK    5  A    between atoms: C_9  and  N_10
REMARK    6  A    between atoms: N_10  and  S_20
REMARK    7  A    between atoms: N_16  and  C_17
REMARK    8  A    between atoms: S_20  and  C_23
REMARK    9  A    between atoms: C_26  and  C_27
REMARK                            x       y       z     vdW  Elec       q    Type
REMARK                         _______ _______ _______ _____ _____    ______ ____
ROOT
ATOM      1  N   UNL     1       1.290  10.422  18.852  0.00  0.00    +0.000 N 
ATOM      2  C   UNL     1       2.127  11.475  18.337  0.00  0.00    +0.000 C 
ATOM      3  O   UNL     1       2.887  11.188  17.413  0.00  0.00    +0.000 OA
ATOM      4  N   UNL     1       2.113  12.824  18.730  0.00  0.00    +0.000 N 
ATOM      5  C   UNL     1       3.237  13.666  18.257  0.00  0.00    +0.000 C 
ATOM      6  C   UNL     1       2.927  15.180  18.260  0.00  0.00    +0.000 C 
ATOM      7  N   UNL     1       2.309  15.696  19.497  0.00  0.00    +0.000 NA
ATOM      8  C   UNL     1       3.232  15.662  20.633  0.00  0.00    +0.000 C 
ATOM      9  C   UNL     1       1.113  14.895  19.770  0.00  0.00    +0.000 C 
ATOM     10  C   UNL     1       1.376  13.388  19.840  0.00  0.00    +0.000 C 
ENDROOT
BRANCH   1  11
ATOM     11  S   UNL     1       0.210  10.403  20.163  0.00  0.00    +0.000 S 
ATOM     12  O   UNL     1      -0.032   9.037  20.579  0.00  0.00    +0.000 OA
ATOM     13  O   UNL     1       0.632  11.359  21.165  0.00  0.00    +0.000 OA
BRANCH  11  14
ATOM     14  C   UNL     1      -1.367  10.972  19.501  0.00  0.00    +0.000 A 
ATOM     15  C   UNL     1      -2.098  12.011  20.085  0.00  0.00    +0.000 A 
ATOM     16  C   UNL     1      -3.341  12.379  19.547  0.00  0.00    +0.000 A 
ATOM     17  C   UNL     1      -3.866  11.707  18.435  0.00  0.00    +0.000 A 
ATOM     18  C   UNL     1      -5.192  12.097  17.843  0.00  0.00    +0.000 C 
ATOM     19  C   UNL     1      -3.137  10.651  17.874  0.00  0.00    +0.000 A 
ATOM     20  C   UNL     1      -1.898  10.280  18.404  0.00  0.00    +0.000 A 
ENDBRANCH  11  14
ENDBRANCH   1  11
BRANCH   1  21
ATOM     21  C   UNL     1       1.125   9.197  17.992  0.00  0.00    +0.000 C 
BRANCH  21  25
ATOM     22  C   UNL     1       4.072   6.124  18.749  0.00  0.00    +0.000 A 
ATOM     23  C   UNL     1       4.144   6.875  17.566  0.00  0.00    +0.000 A 
ATOM     24  C   UNL     1       3.168   7.843  17.282  0.00  0.00    +0.000 A 
ATOM     25  C   UNL     1       2.118   8.072  18.183  0.00  0.00    +0.000 A 
ATOM     26  C   UNL     1       2.035   7.283  19.339  0.00  0.00    +0.000 A 
ATOM     27  C   UNL     1       2.998   6.319  19.619  0.00  0.00    +0.000 A 
BRANCH  22  28
ATOM     28  C   UNL     1       5.163   5.161  19.071  0.00  0.00    +0.000 C 
ATOM     29  O   UNL     1       6.170   5.447  19.698  0.00  0.00    +0.000 OA
BRANCH  28  31
ATOM     30  C   UNL     1       4.502   2.963  19.587  0.00  0.00    +0.000 C 
ATOM     31  O   UNL     1       4.841   3.931  18.595  0.00  0.00    +0.000 OA
ENDBRANCH  28  31
ENDBRANCH  22  28
ENDBRANCH  21  25
ENDBRANCH   1  21
TORSDOF 6
ENDMDL
MODEL 9
REMARK VINA RESULT:      -6.5      2.507      3.340
REMARK  Name = 
REMARK  9 active torsions:
REMARK  status: ('A' for Active; 'I' for Inactive)
REMARK    1  A    between atoms: C_1  and  O_2
REMARK    2  A    between atoms: O_2  and  C_3
REMARK    3  A    between atoms: C_3  and  C_5
REMARK    4  A    between atoms: C_8  and  C_9
REMARK    5  A    between atoms: C_9  and  N_10
REMARK    6  A    between atoms: N_10  and  S_20
REMARK    7  A    between atoms: N_16  and  C_17
REMARK    8  A    between atoms: S_20  and  C_23
REMARK    9  A    between atoms: C_26  and  C_27
REMARK                            x       y       z     vdW  Elec       q    Type
REMARK                         _______ _______ _______ _____ _____    ______ ____
ROOT
ATOM      1  N   UNL     1      -0.618  12.412  20.562  0.00  0.00    +0.000 N 
ATOM      2  C   UNL     1      -0.522  13.413  19.530  0.00  0.00    +0.000 C 
ATOM      3  O   UNL     1      -0.434  13.015  18.369  0.00  0.00    +0.000 OA
ATOM      4  N   UNL     1      -0.596  14.805  19.704  0.00  0.00    +0.000 N 
ATOM      5  C   UNL     1      -0.208  15.641  18.542  0.00  0.00    +0.000 C 
ATOM      6  C   UNL     1      -0.780  17.076  18.588  0.00  0.00    +0.000 C 
ATOM      7  N   UNL     1      -0.621  17.779  19.875  0.00  0.00    +0.000 NA
ATOM      8  C   UNL     1       0.778  18.095  20.166  0.00  0.00    +0.000 C 
ATOM      9  C   UNL     1      -1.194  16.931  20.924  0.00  0.00    +0.000 C 
ATOM     10  C   UNL     1      -0.616  15.514  20.964  0.00  0.00    +0.000 C 
ENDROOT
BRANCH   1  11
ATOM     11  S   UNL     1      -0.650  12.562  22.254  0.00  0.00    +0.000 S 
ATOM     12  O   UNL     1      -0.511  11.256  22.864  0.00  0.00    +0.000 OA
ATOM     13  O   UNL     1       0.253  13.614  22.673  0.00  0.00    +0.000 OA
BRANCH  11  14
ATOM     14  C   UNL     1      -2.324  13.090  22.663  0.00  0.00    +0.000 A 
ATOM     15  C   UNL     1      -3.431  12.764  21.875  0.00  0.00    +0.000 A 
ATOM     16  C   UNL     1      -4.703  13.242  22.223  0.00  0.00    +0.000 A 
ATOM     17  C   UNL     1      -4.877  14.056  23.351  0.00  0.00    +0.000 A 
ATOM     18  C   UNL     1      -6.236  14.567  23.741  0.00  0.00    +0.000 C 
ATOM     19  C   UNL     1      -3.757  14.398  24.119  0.00  0.00    +0.000 A 
ATOM     20  C   UNL     1      -2.487  13.924  23.778  0.00  0.00    +0.000 A 
ENDBRANCH  11  14
ENDBRANCH   1  11
BRANCH   1  21
ATOM     21  C   UNL     1      -0.992  11.018  20.131  0.00  0.00    +0.000 C 
BRANCH  21  25
ATOM     22  C   UNL     1       2.045   8.193  18.906  0.00  0.00    +0.000 A 
ATOM     23  C   UNL     1       1.628   8.224  20.245  0.00  0.00    +0.000 A 
ATOM     24  C   UNL     1       0.680   9.166  20.670  0.00  0.00    +0.000 A 
ATOM     25  C   UNL     1       0.134  10.079  19.756  0.00  0.00    +0.000 A 
ATOM     26  C   UNL     1       0.592  10.066  18.431  0.00  0.00    +0.000 A 
ATOM     27  C   UNL     1       1.538   9.136  18.009  0.00  0.00    +0.000 A 
BRANCH  22  28
ATOM     28  C   UNL     1       2.991   7.132  18.458  0.00  0.00    +0.000 C 
ATOM     29  O   UNL     1       3.675   7.201  17.450  0.00  0.00    +0.000 OA
BRANCH  28  31
ATOM     30  C   UNL     1       4.204   5.362  19.421  0.00  0.00    +0.000 C 
ATOM     31  O   UNL     1       2.995   6.115  19.358  0.00  0.00    +0.000 OA
ENDBRANCH  28  31
ENDBRANCH  22  28
ENDBRANCH  21  25
ENDBRANCH   1  21
TORSDOF 6
ENDMDL
