MODEL 1
REMARK VINA RESULT:      -4.3      0.000      0.000
REMARK  Name = 
REMARK  5 active torsions:
REMARK  status: ('A' for Active; 'I' for Inactive)
REMARK    1  A    between atoms: C_1  and  C_2
REMARK    2  A    between atoms: C_2  and  C_3
REMARK    3  A    between atoms: C_2  and  N_4
REMARK    4  A    between atoms: N_4  and  N_5
REMARK    5  A    between atoms: N_7  and  O_8
REMARK                            x       y       z     vdW  Elec       q    Type
REMARK                         _______ _______ _______ _____ _____    ______ ____
ROOT
ATOM      1  N   UNL     1       5.928   4.925  17.773  0.00  0.00    +0.000 N 
ATOM      2  H   UNL     1       5.113   5.232  18.283  0.00  0.00    +0.000 HD
ENDROOT
BRANCH   1   4
ATOM      3  C   UNL     1       5.778   3.989  15.532  0.00  0.00    +0.000 C 
ATOM      4  C   UNL     1       6.072   5.234  16.364  0.00  0.00    +0.000 C 
ATOM      5  C   UNL     1       5.140   6.378  15.969  0.00  0.00    +0.000 C 
ENDBRANCH   1   4
BRANCH   1   6
ATOM      6  N   UNL     1       7.028   4.903  18.602  0.00  0.00    +0.000 N 
ATOM      7  O   UNL     1       8.105   4.391  18.164  0.00  0.00    +0.000 OA
ATOM      8  N   UNL     1       6.846   5.422  19.753  0.00  0.00    +0.000 NA
BRANCH   8   9
ATOM      9  O   UNL     1       8.039   5.357  20.500  0.00  0.00    +0.000 OA
ATOM     10  H   UNL     1       8.534   4.654  20.045  0.00  0.00    +0.000 HD
ENDBRANCH   8   9
ENDBRANCH   1   6
TORSDOF 3
ENDMDL
MODEL 2
REMARK VINA RESULT:      -4.3      1.223      1.271
REMARK  Name = 
REMARK  5 active torsions:
REMARK  status: ('A' for Active; 'I' for Inactive)
REMARK    1  A    between atoms: C_1  and  C_2
REMARK    2  A    between atoms: C_2  and  C_3
REMARK    3  A    between atoms: C_2  and  N_4
REMARK    4  A    between atoms: N_4  and  N_5
REMARK    5  A    between atoms: N_7  and  O_8
REMARK                            x       y       z     vdW  Elec       q    Type
REMARK                         _______ _______ _______ _____ _____    ______ ____
ROOT
ATOM      1  N   UNL     1       6.658   4.260  17.210  0.00  0.00    +0.000 N 
ATOM      2  H   UNL     1       6.098   3.430  17.090  0.00  0.00    +0.000 HD
ENDROOT
BRANCH   1   4
ATOM      3  C   UNL     1       6.925   4.668  14.826  0.00  0.00    +0.000 C 
ATOM      4  C   UNL     1       6.664   5.294  16.192  0.00  0.00    +0.000 C 
ATOM      5  C   UNL     1       5.340   6.054  16.193  0.00  0.00    +0.000 C 
ENDBRANCH   1   4
BRANCH   1   6
ATOM      6  N   UNL     1       6.743   4.590  18.544  0.00  0.00    +0.000 N 
ATOM      7  O   UNL     1       5.781   4.265  19.309  0.00  0.00    +0.000 OA
ATOM      8  N   UNL     1       7.812   5.198  18.883  0.00  0.00    +0.000 NA
BRANCH   8   9
ATOM      9  O   UNL     1       7.790   5.466  20.266  0.00  0.00    +0.000 OA
ATOM     10  H   UNL     1       6.887   5.208  20.516  0.00  0.00    +0.000 HD
ENDBRANCH   8   9
ENDBRANCH   1   6
TORSDOF 3
ENDMDL
MODEL 3
REMARK VINA RESULT:      -4.3      5.204      5.502
REMARK  Name = 
REMARK  5 active torsions:
REMARK  status: ('A' for Active; 'I' for Inactive)
REMARK    1  A    between atoms: C_1  and  C_2
REMARK    2  A    between atoms: C_2  and  C_3
REMARK    3  A    between atoms: C_2  and  N_4
REMARK    4  A    between atoms: N_4  and  N_5
REMARK    5  A    between atoms: N_7  and  O_8
REMARK                            x       y       z     vdW  Elec       q    Type
REMARK                         _______ _______ _______ _____ _____    ______ ____
ROOT
ATOM      1  N   UNL     1       3.480   3.480  20.108  0.00  0.00    +0.000 N 
ATOM      2  H   UNL     1       3.942   4.269  19.679  0.00  0.00    +0.000 HD
ENDROOT
BRANCH   1   4
ATOM      3  C   UNL     1       1.725   2.694  21.599  0.00  0.00    +0.000 C 
ATOM      4  C   UNL     1       2.051   3.512  20.353  0.00  0.00    +0.000 C 
ATOM      5  C   UNL     1       1.566   4.951  20.512  0.00  0.00    +0.000 C 
ENDBRANCH   1   4
BRANCH   1   6
ATOM      6  N   UNL     1       4.103   2.307  19.744  0.00  0.00    +0.000 N 
ATOM      7  O   UNL     1       5.046   1.871  20.476  0.00  0.00    +0.000 OA
ATOM      8  N   UNL     1       3.650   1.763  18.683  0.00  0.00    +0.000 NA
BRANCH   8   9
ATOM      9  O   UNL     1       4.352   0.569  18.423  0.00  0.00    +0.000 OA
ATOM     10  H   UNL     1       4.234   0.072  19.250  0.00  0.00    +0.000 HD
ENDBRANCH   8   9
ENDBRANCH   1   6
TORSDOF 3
ENDMDL
MODEL 4
REMARK VINA RESULT:      -4.2      4.886      5.063
REMARK  Name = 
REMARK  5 active torsions:
REMARK  status: ('A' for Active; 'I' for Inactive)
REMARK    1  A    between atoms: C_1  and  C_2
REMARK    2  A    between atoms: C_2  and  C_3
REMARK    3  A    between atoms: C_2  and  N_4
REMARK    4  A    between atoms: N_4  and  N_5
REMARK    5  A    between atoms: N_7  and  O_8
REMARK                            x       y       z     vdW  Elec       q    Type
REMARK                         _______ _______ _______ _____ _____    ______ ____
ROOT
ATOM      1  N   UNL     1       2.983   2.116  19.511  0.00  0.00    +0.000 N 
ATOM      2  H   UNL     1       2.916   1.114  19.609  0.00  0.00    +0.000 HD
ENDROOT
BRANCH   1   4
ATOM      3  C   UNL     1       0.653   2.722  19.155  0.00  0.00    +0.000 C 
ATOM      4  C   UNL     1       1.911   2.972  19.982  0.00  0.00    +0.000 C 
ATOM      5  C   UNL     1       1.639   2.723  21.464  0.00  0.00    +0.000 C 
ENDBRANCH   1   4
BRANCH   1   6
ATOM      6  N   UNL     1       4.296   2.519  19.611  0.00  0.00    +0.000 N 
ATOM      7  O   UNL     1       5.052   1.916  20.436  0.00  0.00    +0.000 OA
ATOM      8  N   UNL     1       4.627   3.478  18.838  0.00  0.00    +0.000 NA
BRANCH   8   9
ATOM      9  O   UNL     1       5.990   3.787  19.018  0.00  0.00    +0.000 OA
ATOM     10  H   UNL     1       6.324   3.002  19.484  0.00  0.00    +0.000 HD
ENDBRANCH   8   9
ENDBRANCH   1   6
TORSDOF 3
ENDMDL
MODEL 5
REMARK VINA RESULT:      -4.2      3.265      4.097
REMARK  Name = 
REMARK  5 active torsions:
REMARK  status: ('A' for Active; 'I' for Inactive)
REMARK    1  A    between atoms: C_1  and  C_2
REMARK    2  A    between atoms: C_2  and  C_3
REMARK    3  A    between atoms: C_2  and  N_4
REMARK    4  A    between atoms: N_4  and  N_5
REMARK    5  A    between atoms: N_7  and  O_8
REMARK                            x       y       z     vdW  Elec       q    Type
REMARK                         _______ _______ _______ _____ _____    ______ ____
ROOT
ATOM      1  N   UNL     1       7.400   5.013  16.601  0.00  0.00    +0.000 N 
ATOM      2  H   UNL     1       8.143   4.435  16.967  0.00  0.00    +0.000 HD
ENDROOT
BRANCH   1   4
ATOM      3  C   UNL     1       5.732   6.724  17.057  0.00  0.00    +0.000 C 
ATOM      4  C   UNL     1       7.215   6.365  17.091  0.00  0.00    +0.000 C 
ATOM      5  C   UNL     1       7.769   6.502  18.508  0.00  0.00    +0.000 C 
ENDBRANCH   1   4
BRANCH   1   6
ATOM      6  N   UNL     1       7.168   4.709  15.278  0.00  0.00    +0.000 N 
ATOM      7  O   UNL     1       7.742   5.409  14.387  0.00  0.00    +0.000 OA
ATOM      8  N   UNL     1       6.382   3.723  15.082  0.00  0.00    +0.000 NA
BRANCH   8   9
ATOM      9  O   UNL     1       6.236   3.499  13.698  0.00  0.00    +0.000 OA
ATOM     10  H   UNL     1       6.571   2.592  13.595  0.00  0.00    +0.000 HD
ENDBRANCH   8   9
ENDBRANCH   1   6
TORSDOF 3
ENDMDL
MODEL 6
REMARK VINA RESULT:      -4.2      4.738      5.288
REMARK  Name = 
REMARK  5 active torsions:
REMARK  status: ('A' for Active; 'I' for Inactive)
REMARK    1  A    between atoms: C_1  and  C_2
REMARK    2  A    between atoms: C_2  and  C_3
REMARK    3  A    between atoms: C_2  and  N_4
REMARK    4  A    between atoms: N_4  and  N_5
REMARK    5  A    between atoms: N_7  and  O_8
REMARK                            x       y       z     vdW  Elec       q    Type
REMARK                         _______ _______ _______ _____ _____    ______ ____
ROOT
ATOM      1  N   UNL     1       6.599   3.838  12.427  0.00  0.00    +0.000 N 
ATOM      2  H   UNL     1       7.473   3.934  11.931  0.00  0.00    +0.000 HD
ENDROOT
BRANCH   1   4
ATOM      3  C   UNL     1       4.439   3.311  11.440  0.00  0.00    +0.000 C 
ATOM      4  C   UNL     1       5.691   2.753  12.110  0.00  0.00    +0.000 C 
ATOM      5  C   UNL     1       6.375   1.729  11.206  0.00  0.00    +0.000 C 
ENDBRANCH   1   4
BRANCH   1   6
ATOM      6  N   UNL     1       6.737   4.282  13.724  0.00  0.00    +0.000 N 
ATOM      7  O   UNL     1       6.097   3.676  14.640  0.00  0.00    +0.000 OA
ATOM      8  N   UNL     1       7.519   5.278  13.873  0.00  0.00    +0.000 NA
BRANCH   8   9
ATOM      9  O   UNL     1       7.591   5.627  15.236  0.00  0.00    +0.000 OA
ATOM     10  H   UNL     1       6.676   5.496  15.536  0.00  0.00    +0.000 HD
ENDBRANCH   8   9
ENDBRANCH   1   6
TORSDOF 3
ENDMDL
MODEL 7
REMARK VINA RESULT:      -4.2      4.355      4.494
REMARK  Name = 
REMARK  5 active torsions:
REMARK  status: ('A' for Active; 'I' for Inactive)
REMARK    1  A    between atoms: C_1  and  C_2
REMARK    2  A    between atoms: C_2  and  C_3
REMARK    3  A    between atoms: C_2  and  N_4
REMARK    4  A    between atoms: N_4  and  N_5
REMARK    5  A    between atoms: N_7  and  O_8
REMARK                            x       y       z     vdW  Elec       q    Type
REMARK                         _______ _______ _______ _____ _____    ______ ____
ROOT
ATOM      1  N   UNL     1       3.284   4.225  19.524  0.00  0.00    +0.000 N 
ATOM      2  H   UNL     1       3.575   5.142  19.221  0.00  0.00    +0.000 HD
ENDROOT
BRANCH   1   4
ATOM      3  C   UNL     1       0.961   4.034  20.223  0.00  0.00    +0.000 C 
ATOM      4  C   UNL     1       1.986   3.704  19.141  0.00  0.00    +0.000 C 
ATOM      5  C   UNL     1       1.553   4.281  17.795  0.00  0.00    +0.000 C 
ENDBRANCH   1   4
BRANCH   1   6
ATOM      6  N   UNL     1       4.374   3.388  19.623  0.00  0.00    +0.000 N 
ATOM      7  O   UNL     1       5.495   3.802  19.192  0.00  0.00    +0.000 OA
ATOM      8  N   UNL     1       4.136   2.255  20.160  0.00  0.00    +0.000 NA
BRANCH   8   9
ATOM      9  O   UNL     1       5.323   1.499  20.222  0.00  0.00    +0.000 OA
ATOM     10  H   UNL     1       5.378   1.120  19.328  0.00  0.00    +0.000 HD
ENDBRANCH   8   9
ENDBRANCH   1   6
TORSDOF 3
ENDMDL
MODEL 8
REMARK VINA RESULT:      -4.2      1.434      1.566
REMARK  Name = 
REMARK  5 active torsions:
REMARK  status: ('A' for Active; 'I' for Inactive)
REMARK    1  A    between atoms: C_1  and  C_2
REMARK    2  A    between atoms: C_2  and  C_3
REMARK    3  A    between atoms: C_2  and  N_4
REMARK    4  A    between atoms: N_4  and  N_5
REMARK    5  A    between atoms: N_7  and  O_8
REMARK                            x       y       z     vdW  Elec       q    Type
REMARK                         _______ _______ _______ _____ _____    ______ ____
ROOT
ATOM      1  N   UNL     1       7.525   4.914  16.718  0.00  0.00    +0.000 N 
ATOM      2  H   UNL     1       7.927   3.992  16.794  0.00  0.00    +0.000 HD
ENDROOT
BRANCH   1   4
ATOM      3  C   UNL     1       6.696   4.555  14.459  0.00  0.00    +0.000 C 
ATOM      4  C   UNL     1       6.403   5.154  15.831  0.00  0.00    +0.000 C 
ATOM      5  C   UNL     1       5.122   4.562  16.414  0.00  0.00    +0.000 C 
ENDBRANCH   1   4
BRANCH   1   6
ATOM      6  N   UNL     1       7.620   5.576  17.922  0.00  0.00    +0.000 N 
ATOM      7  O   UNL     1       7.565   6.845  17.920  0.00  0.00    +0.000 OA
ATOM      8  N   UNL     1       7.751   4.822  18.943  0.00  0.00    +0.000 NA
BRANCH   8   9
ATOM      9  O   UNL     1       7.821   5.608  20.110  0.00  0.00    +0.000 OA
ATOM     10  H   UNL     1       8.294   6.400  19.803  0.00  0.00    +0.000 HD
ENDBRANCH   8   9
ENDBRANCH   1   6
TORSDOF 3
ENDMDL
MODEL 9
REMARK VINA RESULT:      -4.2      3.940      4.681
REMARK  Name = 
REMARK  5 active torsions:
REMARK  status: ('A' for Active; 'I' for Inactive)
REMARK    1  A    between atoms: C_1  and  C_2
REMARK    2  A    between atoms: C_2  and  C_3
REMARK    3  A    between atoms: C_2  and  N_4
REMARK    4  A    between atoms: N_4  and  N_5
REMARK    5  A    between atoms: N_7  and  O_8
REMARK                            x       y       z     vdW  Elec       q    Type
REMARK                         _______ _______ _______ _____ _____    ______ ____
ROOT
ATOM      1  N   UNL     1       6.269   3.460  13.537  0.00  0.00    +0.000 N 
ATOM      2  H   UNL     1       5.570   3.088  14.163  0.00  0.00    +0.000 HD
ENDROOT
BRANCH   1   4
ATOM      3  C   UNL     1       6.860   2.271  11.498  0.00  0.00    +0.000 C 
ATOM      4  C   UNL     1       6.062   3.423  12.102  0.00  0.00    +0.000 C 
ATOM      5  C   UNL     1       4.577   3.278  11.778  0.00  0.00    +0.000 C 
ENDBRANCH   1   4
BRANCH   1   6
ATOM      6  N   UNL     1       6.916   4.524  14.125  0.00  0.00    +0.000 N 
ATOM      7  O   UNL     1       7.582   5.311  13.383  0.00  0.00    +0.000 OA
ATOM      8  N   UNL     1       6.768   4.613  15.389  0.00  0.00    +0.000 NA
BRANCH   8   9
ATOM      9  O   UNL     1       7.459   5.743  15.871  0.00  0.00    +0.000 OA
ATOM     10  H   UNL     1       7.880   5.404  16.679  0.00  0.00    +0.000 HD
ENDBRANCH   8   9
ENDBRANCH   1   6
TORSDOF 3
ENDMDL
