MODEL 1
REMARK VINA RESULT:      -8.0      0.000      0.000
REMARK  Name = 
REMARK  4 active torsions:
REMARK  status: ('A' for Active; 'I' for Inactive)
REMARK    1  A    between atoms: C_4  and  C_5
REMARK    2  A    between atoms: C_9  and  O_10
REMARK    3  A    between atoms: O_10  and  C_11
REMARK    4  A    between atoms: N_19  and  C_20
REMARK                            x       y       z     vdW  Elec       q    Type
REMARK                         _______ _______ _______ _____ _____    ______ ____
ROOT
ATOM      1  N   UNL     1      -3.744   9.904  17.614  0.00  0.00    +0.000 N 
ATOM      2  C   UNL     1      -2.596  10.539  17.958  0.00  0.00    +0.000 C 
ATOM      3  N   UNL     1      -1.498  10.102  17.471  0.00  0.00    +0.000 NA
ATOM      4  C   UNL     1      -0.274  10.746  17.927  0.00  0.00    +0.000 C 
ATOM      5  N   UNL     1      -0.386  12.021  18.655  0.00  0.00    +0.000 N 
ATOM      6  C   UNL     1      -1.666  12.309  19.052  0.00  0.00    +0.000 C 
ATOM      7  N   UNL     1      -1.896  13.438  19.774  0.00  0.00    +0.000 N 
ATOM      8  N   UNL     1      -2.724  11.621  18.759  0.00  0.00    +0.000 NA
ATOM      9  H   UNL     1      -3.651   9.358  16.769  0.00  0.00    +0.000 HD
ATOM     10  H   UNL     1      -4.560  10.495  17.662  0.00  0.00    +0.000 HD
ATOM     11  H   UNL     1      -1.405  14.250  19.420  0.00  0.00    +0.000 HD
ATOM     12  H   UNL     1      -2.891  13.610  19.862  0.00  0.00    +0.000 HD
ENDROOT
BRANCH   5  13
ATOM     13  C   UNL     1       0.831  12.649  19.060  0.00  0.00    +0.000 A 
ATOM     14  C   UNL     1       1.155  12.843  20.421  0.00  0.00    +0.000 A 
ATOM     15  C   UNL     1       2.317  13.518  20.825  0.00  0.00    +0.000 A 
ATOM     16  C   UNL     1       3.211  13.988  19.872  0.00  0.00    +0.000 A 
ATOM     17 CL   UNL     1       4.635  14.818  20.359  0.00  0.00    +0.000 Cl
ATOM     18  C   UNL     1       2.944  13.798  18.525  0.00  0.00    +0.000 A 
ATOM     19  C   UNL     1       1.760  13.157  18.132  0.00  0.00    +0.000 A 
ENDBRANCH   5  13
BRANCH   4  20
ATOM     20  C   UNL     1       0.515   9.698  18.717  0.00  0.00    +0.000 A 
ATOM     21  C   UNL     1       0.284   9.459  20.081  0.00  0.00    +0.000 A 
ATOM     22  C   UNL     1       1.048   8.525  20.780  0.00  0.00    +0.000 A 
ATOM     23  C   UNL     1       2.062   7.824  20.122  0.00  0.00    +0.000 A 
ATOM     24  C   UNL     1       2.293   8.042  18.765  0.00  0.00    +0.000 A 
ATOM     25  C   UNL     1       1.478   8.925  18.053  0.00  0.00    +0.000 A 
BRANCH  24  26
ATOM     26  O   UNL     1       3.324   7.335  18.187  0.00  0.00    +0.000 OA
BRANCH  26  27
ATOM     27  C   UNL     1       3.279   5.956  18.218  0.00  0.00    +0.000 A 
ATOM     28  C   UNL     1       2.166   5.201  17.826  0.00  0.00    +0.000 A 
ATOM     29  C   UNL     1       2.184   3.810  17.945  0.00  0.00    +0.000 A 
ATOM     30  C   UNL     1       3.337   3.173  18.395  0.00  0.00    +0.000 A 
ATOM     31 CL   UNL     1       3.358   1.459  18.540  0.00  0.00    +0.000 Cl
ATOM     32  C   UNL     1       4.473   3.913  18.724  0.00  0.00    +0.000 A 
ATOM     33  C   UNL     1       4.442   5.307  18.636  0.00  0.00    +0.000 A 
ENDBRANCH  26  27
ENDBRANCH  24  26
ENDBRANCH   4  20
TORSDOF 4
ENDMDL
MODEL 2
REMARK VINA RESULT:      -7.9      0.239      1.282
REMARK  Name = 
REMARK  4 active torsions:
REMARK  status: ('A' for Active; 'I' for Inactive)
REMARK    1  A    between atoms: C_4  and  C_5
REMARK    2  A    between atoms: C_9  and  O_10
REMARK    3  A    between atoms: O_10  and  C_11
REMARK    4  A    between atoms: N_19  and  C_20
REMARK                            x       y       z     vdW  Elec       q    Type
REMARK                         _______ _______ _______ _____ _____    ______ ____
ROOT
ATOM      1  N   UNL     1      -3.891   9.931  17.666  0.00  0.00    +0.000 N 
ATOM      2  C   UNL     1      -2.759  10.590  18.015  0.00  0.00    +0.000 C 
ATOM      3  N   UNL     1      -1.649  10.174  17.536  0.00  0.00    +0.000 NA
ATOM      4  C   UNL     1      -0.441  10.843  17.998  0.00  0.00    +0.000 C 
ATOM      5  N   UNL     1      -0.583  12.119  18.720  0.00  0.00    +0.000 N 
ATOM      6  C   UNL     1      -1.871  12.383  19.108  0.00  0.00    +0.000 C 
ATOM      7  N   UNL     1      -2.127  13.509  19.825  0.00  0.00    +0.000 N 
ATOM      8  N   UNL     1      -2.913  11.672  18.812  0.00  0.00    +0.000 NA
ATOM      9  H   UNL     1      -3.782   9.384  16.824  0.00  0.00    +0.000 HD
ATOM     10  H   UNL     1      -4.719  10.506  17.708  0.00  0.00    +0.000 HD
ATOM     11  H   UNL     1      -1.651  14.330  19.471  0.00  0.00    +0.000 HD
ATOM     12  H   UNL     1      -3.126  13.662  19.906  0.00  0.00    +0.000 HD
ENDROOT
BRANCH   5  13
ATOM     13  C   UNL     1       0.619  12.772  19.130  0.00  0.00    +0.000 A 
ATOM     14  C   UNL     1       1.558  13.265  18.198  0.00  0.00    +0.000 A 
ATOM     15  C   UNL     1       2.771  13.849  18.595  0.00  0.00    +0.000 A 
ATOM     16  C   UNL     1       3.062  13.990  19.945  0.00  0.00    +0.000 A 
ATOM     17 CL   UNL     1       4.547  14.701  20.438  0.00  0.00    +0.000 Cl
ATOM     18  C   UNL     1       2.158  13.541  20.894  0.00  0.00    +0.000 A 
ATOM     19  C   UNL     1       0.966  12.924  20.487  0.00  0.00    +0.000 A 
ENDBRANCH   5  13
BRANCH   4  20
ATOM     20  C   UNL     1       0.364   9.814  18.796  0.00  0.00    +0.000 A 
ATOM     21  C   UNL     1       0.133   9.580  20.161  0.00  0.00    +0.000 A 
ATOM     22  C   UNL     1       0.912   8.664  20.868  0.00  0.00    +0.000 A 
ATOM     23  C   UNL     1       1.939   7.976  20.217  0.00  0.00    +0.000 A 
ATOM     24  C   UNL     1       2.170   8.190  18.859  0.00  0.00    +0.000 A 
ATOM     25  C   UNL     1       1.343   9.054  18.139  0.00  0.00    +0.000 A 
BRANCH  24  26
ATOM     26  O   UNL     1       3.215   7.497  18.289  0.00  0.00    +0.000 OA
BRANCH  26  27
ATOM     27  C   UNL     1       3.229   6.121  18.389  0.00  0.00    +0.000 A 
ATOM     28  C   UNL     1       4.254   5.392  19.005  0.00  0.00    +0.000 A 
ATOM     29  C   UNL     1       4.219   3.996  19.009  0.00  0.00    +0.000 A 
ATOM     30  C   UNL     1       3.126   3.334  18.455  0.00  0.00    +0.000 A 
ATOM     31 CL   UNL     1       3.083   1.614  18.464  0.00  0.00    +0.000 Cl
ATOM     32  C   UNL     1       2.068   4.054  17.901  0.00  0.00    +0.000 A 
ATOM     33  C   UNL     1       2.122   5.450  17.866  0.00  0.00    +0.000 A 
ENDBRANCH  26  27
ENDBRANCH  24  26
ENDBRANCH   4  20
TORSDOF 4
ENDMDL
MODEL 3
REMARK VINA RESULT:      -7.9      4.415      8.636
REMARK  Name = 
REMARK  4 active torsions:
REMARK  status: ('A' for Active; 'I' for Inactive)
REMARK    1  A    between atoms: C_4  and  C_5
REMARK    2  A    between atoms: C_9  and  O_10
REMARK    3  A    between atoms: O_10  and  C_11
REMARK    4  A    between atoms: N_19  and  C_20
REMARK                            x       y       z     vdW  Elec       q    Type
REMARK                         _______ _______ _______ _____ _____    ______ ____
ROOT
ATOM      1  N   UNL     1       1.082   2.830  21.955  0.00  0.00    +0.000 N 
ATOM      2  C   UNL     1       1.958   3.163  20.976  0.00  0.00    +0.000 C 
ATOM      3  N   UNL     1       2.670   4.212  21.137  0.00  0.00    +0.000 NA
ATOM      4  C   UNL     1       3.537   4.596  20.031  0.00  0.00    +0.000 C 
ATOM      5  N   UNL     1       3.771   3.617  18.957  0.00  0.00    +0.000 N 
ATOM      6  C   UNL     1       2.914   2.548  18.999  0.00  0.00    +0.000 C 
ATOM      7  N   UNL     1       2.997   1.595  18.033  0.00  0.00    +0.000 N 
ATOM      8  N   UNL     1       2.035   2.317  19.923  0.00  0.00    +0.000 NA
ATOM      9  H   UNL     1       1.304   3.260  22.841  0.00  0.00    +0.000 HD
ATOM     10  H   UNL     1       0.874   1.843  21.989  0.00  0.00    +0.000 HD
ATOM     11  H   UNL     1       3.948   1.323  17.815  0.00  0.00    +0.000 HD
ATOM     12  H   UNL     1       2.424   0.794  18.271  0.00  0.00    +0.000 HD
ENDROOT
BRANCH   5  13
ATOM     13  C   UNL     1       4.653   4.004  17.902  0.00  0.00    +0.000 A 
ATOM     14  C   UNL     1       4.242   4.019  16.551  0.00  0.00    +0.000 A 
ATOM     15  C   UNL     1       5.123   4.335  15.505  0.00  0.00    +0.000 A 
ATOM     16  C   UNL     1       6.437   4.684  15.787  0.00  0.00    +0.000 A 
ATOM     17 CL   UNL     1       7.521   5.070  14.510  0.00  0.00    +0.000 Cl
ATOM     18  C   UNL     1       6.876   4.705  17.102  0.00  0.00    +0.000 A 
ATOM     19  C   UNL     1       5.999   4.350  18.136  0.00  0.00    +0.000 A 
ENDBRANCH   5  13
BRANCH   4  20
ATOM     20  C   UNL     1       3.012   5.930  19.492  0.00  0.00    +0.000 A 
ATOM     21  C   UNL     1       3.416   6.445  18.249  0.00  0.00    +0.000 A 
ATOM     22  C   UNL     1       2.949   7.682  17.807  0.00  0.00    +0.000 A 
ATOM     23  C   UNL     1       2.077   8.424  18.607  0.00  0.00    +0.000 A 
ATOM     24  C   UNL     1       1.659   7.918  19.837  0.00  0.00    +0.000 A 
ATOM     25  C   UNL     1       2.071   6.647  20.244  0.00  0.00    +0.000 A 
BRANCH  24  26
ATOM     26  O   UNL     1       0.819   8.713  20.584  0.00  0.00    +0.000 OA
BRANCH  26  27
ATOM     27  C   UNL     1       0.476   9.957  20.094  0.00  0.00    +0.000 A 
ATOM     28  C   UNL     1      -0.477  10.165  19.089  0.00  0.00    +0.000 A 
ATOM     29  C   UNL     1      -0.721  11.453  18.609  0.00  0.00    +0.000 A 
ATOM     30  C   UNL     1      -0.059  12.538  19.181  0.00  0.00    +0.000 A 
ATOM     31 CL   UNL     1      -0.362  14.124  18.589  0.00  0.00    +0.000 Cl
ATOM     32  C   UNL     1       0.841  12.346  20.228  0.00  0.00    +0.000 A 
ATOM     33  C   UNL     1       1.110  11.052  20.684  0.00  0.00    +0.000 A 
ENDBRANCH  26  27
ENDBRANCH  24  26
ENDBRANCH   4  20
TORSDOF 4
ENDMDL
MODEL 4
REMARK VINA RESULT:      -7.7      5.275      7.524
REMARK  Name = 
REMARK  4 active torsions:
REMARK  status: ('A' for Active; 'I' for Inactive)
REMARK    1  A    between atoms: C_4  and  C_5
REMARK    2  A    between atoms: C_9  and  O_10
REMARK    3  A    between atoms: O_10  and  C_11
REMARK    4  A    between atoms: N_19  and  C_20
REMARK                            x       y       z     vdW  Elec       q    Type
REMARK                         _______ _______ _______ _____ _____    ______ ____
ROOT
ATOM      1  N   UNL     1       4.006   0.585  18.841  0.00  0.00    +0.000 N 
ATOM      2  C   UNL     1       3.663   1.896  18.867  0.00  0.00    +0.000 C 
ATOM      3  N   UNL     1       3.914   2.604  17.833  0.00  0.00    +0.000 NA
ATOM      4  C   UNL     1       3.618   4.028  17.921  0.00  0.00    +0.000 C 
ATOM      5  N   UNL     1       2.784   4.498  19.040  0.00  0.00    +0.000 N 
ATOM      6  C   UNL     1       2.615   3.558  20.024  0.00  0.00    +0.000 C 
ATOM      7  N   UNL     1       1.903   3.885  21.135  0.00  0.00    +0.000 N 
ATOM      8  N   UNL     1       3.035   2.333  19.982  0.00  0.00    +0.000 NA
ATOM      9  H   UNL     1       4.133   0.232  17.903  0.00  0.00    +0.000 HD
ATOM     10  H   UNL     1       3.443   0.011  19.450  0.00  0.00    +0.000 HD
ATOM     11  H   UNL     1       1.052   4.396  20.933  0.00  0.00    +0.000 HD
ATOM     12  H   UNL     1       1.722   3.062  21.699  0.00  0.00    +0.000 HD
ENDROOT
BRANCH   5  13
ATOM     13  C   UNL     1       2.479   5.892  19.084  0.00  0.00    +0.000 A 
ATOM     14  C   UNL     1       2.162   6.550  20.293  0.00  0.00    +0.000 A 
ATOM     15  C   UNL     1       1.796   7.905  20.334  0.00  0.00    +0.000 A 
ATOM     16  C   UNL     1       1.775   8.652  19.163  0.00  0.00    +0.000 A 
ATOM     17 CL   UNL     1       1.326  10.310  19.205  0.00  0.00    +0.000 Cl
ATOM     18  C   UNL     1       2.102   8.051  17.958  0.00  0.00    +0.000 A 
ATOM     19  C   UNL     1       2.428   6.688  17.923  0.00  0.00    +0.000 A 
ENDBRANCH   5  13
BRANCH   4  20
ATOM     20  C   UNL     1       4.955   4.769  17.845  0.00  0.00    +0.000 A 
ATOM     21  C   UNL     1       5.571   5.318  18.981  0.00  0.00    +0.000 A 
ATOM     22  C   UNL     1       6.769   6.023  18.870  0.00  0.00    +0.000 A 
ATOM     23  C   UNL     1       7.363   6.193  17.617  0.00  0.00    +0.000 A 
ATOM     24  C   UNL     1       6.768   5.642  16.483  0.00  0.00    +0.000 A 
ATOM     25  C   UNL     1       5.607   4.876  16.608  0.00  0.00    +0.000 A 
BRANCH  24  26
ATOM     26  O   UNL     1       7.395   5.870  15.278  0.00  0.00    +0.000 OA
BRANCH  26  27
ATOM     27  C   UNL     1       7.127   5.024  14.222  0.00  0.00    +0.000 A 
ATOM     28  C   UNL     1       7.728   5.133  12.961  0.00  0.00    +0.000 A 
ATOM     29  C   UNL     1       7.354   4.270  11.929  0.00  0.00    +0.000 A 
ATOM     30  C   UNL     1       6.428   3.259  12.177  0.00  0.00    +0.000 A 
ATOM     31 CL   UNL     1       5.971   2.196  10.905  0.00  0.00    +0.000 Cl
ATOM     32  C   UNL     1       5.876   3.102  13.448  0.00  0.00    +0.000 A 
ATOM     33  C   UNL     1       6.225   3.988  14.471  0.00  0.00    +0.000 A 
ENDBRANCH  26  27
ENDBRANCH  24  26
ENDBRANCH   4  20
TORSDOF 4
ENDMDL
MODEL 5
REMARK VINA RESULT:      -7.7      1.171      1.435
REMARK  Name = 
REMARK  4 active torsions:
REMARK  status: ('A' for Active; 'I' for Inactive)
REMARK    1  A    between atoms: C_4  and  C_5
REMARK    2  A    between atoms: C_9  and  O_10
REMARK    3  A    between atoms: O_10  and  C_11
REMARK    4  A    between atoms: N_19  and  C_20
REMARK                            x       y       z     vdW  Elec       q    Type
REMARK                         _______ _______ _______ _____ _____    ______ ____
ROOT
ATOM      1  N   UNL     1      -4.065  10.715  18.182  0.00  0.00    +0.000 N 
ATOM      2  C   UNL     1      -2.846  11.234  18.471  0.00  0.00    +0.000 C 
ATOM      3  N   UNL     1      -1.813  10.546  18.170  0.00  0.00    +0.000 NA
ATOM      4  C   UNL     1      -0.521  11.086  18.573  0.00  0.00    +0.000 C 
ATOM      5  N   UNL     1      -0.459  12.492  19.008  0.00  0.00    +0.000 N 
ATOM      6  C   UNL     1      -1.692  13.044  19.239  0.00  0.00    +0.000 C 
ATOM      7  N   UNL     1      -1.768  14.324  19.691  0.00  0.00    +0.000 N 
ATOM      8  N   UNL     1      -2.833  12.471  19.018  0.00  0.00    +0.000 NA
ATOM      9  H   UNL     1      -4.025   9.991  17.479  0.00  0.00    +0.000 HD
ATOM     10  H   UNL     1      -4.778  11.416  18.045  0.00  0.00    +0.000 HD
ATOM     11  H   UNL     1      -1.140  14.959  19.213  0.00  0.00    +0.000 HD
ATOM     12  H   UNL     1      -2.726  14.655  19.666  0.00  0.00    +0.000 HD
ENDROOT
BRANCH   5  13
ATOM     13  C   UNL     1       0.825  13.007  19.364  0.00  0.00    +0.000 A 
ATOM     14  C   UNL     1       1.141  13.375  20.690  0.00  0.00    +0.000 A 
ATOM     15  C   UNL     1       2.377  13.944  21.034  0.00  0.00    +0.000 A 
ATOM     16  C   UNL     1       3.350  14.126  20.061  0.00  0.00    +0.000 A 
ATOM     17 CL   UNL     1       4.866  14.824  20.475  0.00  0.00    +0.000 Cl
ATOM     18  C   UNL     1       3.091  13.756  18.750  0.00  0.00    +0.000 A 
ATOM     19  C   UNL     1       1.838  13.225  18.410  0.00  0.00    +0.000 A 
ENDBRANCH   5  13
BRANCH   4  20
ATOM     20  C   UNL     1       0.057  10.131  19.620  0.00  0.00    +0.000 A 
ATOM     21  C   UNL     1      -0.327  10.181  20.970  0.00  0.00    +0.000 A 
ATOM     22  C   UNL     1       0.250   9.322  21.905  0.00  0.00    +0.000 A 
ATOM     23  C   UNL     1       1.225   8.407  21.502  0.00  0.00    +0.000 A 
ATOM     24  C   UNL     1       1.605   8.339  20.163  0.00  0.00    +0.000 A 
ATOM     25  C   UNL     1       0.975   9.150  19.217  0.00  0.00    +0.000 A 
BRANCH  24  26
ATOM     26  O   UNL     1       2.590   7.431  19.841  0.00  0.00    +0.000 OA
BRANCH  26  27
ATOM     27  C   UNL     1       2.229   6.122  19.597  0.00  0.00    +0.000 A 
ATOM     28  C   UNL     1       1.797   5.232  20.589  0.00  0.00    +0.000 A 
ATOM     29  C   UNL     1       1.508   3.905  20.265  0.00  0.00    +0.000 A 
ATOM     30  C   UNL     1       1.589   3.488  18.938  0.00  0.00    +0.000 A 
ATOM     31 CL   UNL     1       1.230   1.853  18.540  0.00  0.00    +0.000 Cl
ATOM     32  C   UNL     1       1.952   4.385  17.934  0.00  0.00    +0.000 A 
ATOM     33  C   UNL     1       2.275   5.704  18.266  0.00  0.00    +0.000 A 
ENDBRANCH  26  27
ENDBRANCH  24  26
ENDBRANCH   4  20
TORSDOF 4
ENDMDL
MODEL 6
REMARK VINA RESULT:      -7.4      5.354      7.636
REMARK  Name = 
REMARK  4 active torsions:
REMARK  status: ('A' for Active; 'I' for Inactive)
REMARK    1  A    between atoms: C_4  and  C_5
REMARK    2  A    between atoms: C_9  and  O_10
REMARK    3  A    between atoms: O_10  and  C_11
REMARK    4  A    between atoms: N_19  and  C_20
REMARK                            x       y       z     vdW  Elec       q    Type
REMARK                         _______ _______ _______ _____ _____    ______ ____
ROOT
ATOM      1  N   UNL     1       4.350   0.590  19.355  0.00  0.00    +0.000 N 
ATOM      2  C   UNL     1       3.930   1.876  19.272  0.00  0.00    +0.000 C 
ATOM      3  N   UNL     1       4.123   2.503  18.176  0.00  0.00    +0.000 NA
ATOM      4  C   UNL     1       3.744   3.909  18.145  0.00  0.00    +0.000 C 
ATOM      5  N   UNL     1       2.901   4.427  19.235  0.00  0.00    +0.000 N 
ATOM      6  C   UNL     1       2.802   3.570  20.301  0.00  0.00    +0.000 C 
ATOM      7  N   UNL     1       2.088   3.953  21.393  0.00  0.00    +0.000 N 
ATOM      8  N   UNL     1       3.293   2.373  20.358  0.00  0.00    +0.000 NA
ATOM      9  H   UNL     1       4.483   0.163  18.449  0.00  0.00    +0.000 HD
ATOM     10  H   UNL     1       3.831   0.040  20.023  0.00  0.00    +0.000 HD
ATOM     11  H   UNL     1       1.206   4.393  21.164  0.00  0.00    +0.000 HD
ATOM     12  H   UNL     1       1.964   3.173  22.030  0.00  0.00    +0.000 HD
ENDROOT
BRANCH   5  13
ATOM     13  C   UNL     1       2.513   5.800  19.163  0.00  0.00    +0.000 A 
ATOM     14  C   UNL     1       2.479   6.504  17.939  0.00  0.00    +0.000 A 
ATOM     15  C   UNL     1       2.164   7.870  17.870  0.00  0.00    +0.000 A 
ATOM     16  C   UNL     1       1.835   8.564  19.027  0.00  0.00    +0.000 A 
ATOM     17 CL   UNL     1       1.450  10.237  18.950  0.00  0.00    +0.000 Cl
ATOM     18  C   UNL     1       1.833   7.906  20.247  0.00  0.00    +0.000 A 
ATOM     19  C   UNL     1       2.187   6.551  20.310  0.00  0.00    +0.000 A 
ENDBRANCH   5  13
BRANCH   4  20
ATOM     20  C   UNL     1       5.033   4.717  17.978  0.00  0.00    +0.000 A 
ATOM     21  C   UNL     1       5.664   5.351  19.061  0.00  0.00    +0.000 A 
ATOM     22  C   UNL     1       6.816   6.112  18.866  0.00  0.00    +0.000 A 
ATOM     23  C   UNL     1       7.346   6.257  17.582  0.00  0.00    +0.000 A 
ATOM     24  C   UNL     1       6.737   5.623  16.501  0.00  0.00    +0.000 A 
ATOM     25  C   UNL     1       5.626   4.803  16.710  0.00  0.00    +0.000 A 
BRANCH  24  26
ATOM     26  O   UNL     1       7.299   5.829  15.261  0.00  0.00    +0.000 OA
BRANCH  26  27
ATOM     27  C   UNL     1       6.954   4.981  14.228  0.00  0.00    +0.000 A 
ATOM     28  C   UNL     1       5.874   4.091  14.275  0.00  0.00    +0.000 A 
ATOM     29  C   UNL     1       5.631   3.225  13.207  0.00  0.00    +0.000 A 
ATOM     30  C   UNL     1       6.430   3.295  12.069  0.00  0.00    +0.000 A 
ATOM     31 CL   UNL     1       6.128   2.228  10.754  0.00  0.00    +0.000 Cl
ATOM     32  C   UNL     1       7.466   4.225  11.987  0.00  0.00    +0.000 A 
ATOM     33  C   UNL     1       7.729   5.068  13.070  0.00  0.00    +0.000 A 
ENDBRANCH  26  27
ENDBRANCH  24  26
ENDBRANCH   4  20
TORSDOF 4
ENDMDL
MODEL 7
REMARK VINA RESULT:      -7.3      1.468      1.767
REMARK  Name = 
REMARK  4 active torsions:
REMARK  status: ('A' for Active; 'I' for Inactive)
REMARK    1  A    between atoms: C_4  and  C_5
REMARK    2  A    between atoms: C_9  and  O_10
REMARK    3  A    between atoms: O_10  and  C_11
REMARK    4  A    between atoms: N_19  and  C_20
REMARK                            x       y       z     vdW  Elec       q    Type
REMARK                         _______ _______ _______ _____ _____    ______ ____
ROOT
ATOM      1  N   UNL     1      -3.600   9.625  17.293  0.00  0.00    +0.000 N 
ATOM      2  C   UNL     1      -2.728  10.424  17.956  0.00  0.00    +0.000 C 
ATOM      3  N   UNL     1      -1.481  10.158  17.866  0.00  0.00    +0.000 NA
ATOM      4  C   UNL     1      -0.574  10.976  18.659  0.00  0.00    +0.000 C 
ATOM      5  N   UNL     1      -1.096  12.219  19.253  0.00  0.00    +0.000 N 
ATOM      6  C   UNL     1      -2.463  12.311  19.208  0.00  0.00    +0.000 C 
ATOM      7  N   UNL     1      -3.072  13.391  19.766  0.00  0.00    +0.000 N 
ATOM      8  N   UNL     1      -3.260  11.472  18.625  0.00  0.00    +0.000 NA
ATOM      9  H   UNL     1      -3.163   9.101  16.549  0.00  0.00    +0.000 HD
ATOM     10  H   UNL     1      -4.464  10.087  17.052  0.00  0.00    +0.000 HD
ATOM     11  H   UNL     1      -2.615  14.268  19.550  0.00  0.00    +0.000 HD
ATOM     12  H   UNL     1      -4.056  13.411  19.524  0.00  0.00    +0.000 HD
ENDROOT
BRANCH   5  13
ATOM     13  C   UNL     1      -0.178  13.021  19.997  0.00  0.00    +0.000 A 
ATOM     14  C   UNL     1      -0.445  13.430  21.322  0.00  0.00    +0.000 A 
ATOM     15  C   UNL     1       0.422  14.273  22.034  0.00  0.00    +0.000 A 
ATOM     16  C   UNL     1       1.607  14.701  21.449  0.00  0.00    +0.000 A 
ATOM     17 CL   UNL     1       2.672  15.736  22.315  0.00  0.00    +0.000 Cl
ATOM     18  C   UNL     1       1.920  14.304  20.159  0.00  0.00    +0.000 A 
ATOM     19  C   UNL     1       1.028  13.494  19.442  0.00  0.00    +0.000 A 
ENDBRANCH   5  13
BRANCH   4  20
ATOM     20  C   UNL     1       0.059  10.057  19.706  0.00  0.00    +0.000 A 
ATOM     21  C   UNL     1      -0.251  10.154  21.072  0.00  0.00    +0.000 A 
ATOM     22  C   UNL     1       0.374   9.327  22.004  0.00  0.00    +0.000 A 
ATOM     23  C   UNL     1       1.326   8.396  21.581  0.00  0.00    +0.000 A 
ATOM     24  C   UNL     1       1.634   8.281  20.226  0.00  0.00    +0.000 A 
ATOM     25  C   UNL     1       0.953   9.061  19.289  0.00  0.00    +0.000 A 
BRANCH  24  26
ATOM     26  O   UNL     1       2.599   7.360  19.883  0.00  0.00    +0.000 OA
BRANCH  26  27
ATOM     27  C   UNL     1       2.214   6.058  19.639  0.00  0.00    +0.000 A 
ATOM     28  C   UNL     1       1.725   5.190  20.623  0.00  0.00    +0.000 A 
ATOM     29  C   UNL     1       1.415   3.867  20.301  0.00  0.00    +0.000 A 
ATOM     30  C   UNL     1       1.533   3.434  18.982  0.00  0.00    +0.000 A 
ATOM     31 CL   UNL     1       1.148   1.805  18.587  0.00  0.00    +0.000 Cl
ATOM     32  C   UNL     1       1.956   4.311  17.984  0.00  0.00    +0.000 A 
ATOM     33  C   UNL     1       2.299   5.625  18.314  0.00  0.00    +0.000 A 
ENDBRANCH  26  27
ENDBRANCH  24  26
ENDBRANCH   4  20
TORSDOF 4
ENDMDL
MODEL 8
REMARK VINA RESULT:      -7.1      4.721      8.590
REMARK  Name = 
REMARK  4 active torsions:
REMARK  status: ('A' for Active; 'I' for Inactive)
REMARK    1  A    between atoms: C_4  and  C_5
REMARK    2  A    between atoms: C_9  and  O_10
REMARK    3  A    between atoms: O_10  and  C_11
REMARK    4  A    between atoms: N_19  and  C_20
REMARK                            x       y       z     vdW  Elec       q    Type
REMARK                         _______ _______ _______ _____ _____    ______ ____
ROOT
ATOM      1  N   UNL     1       1.044   2.622  22.063  0.00  0.00    +0.000 N 
ATOM      2  C   UNL     1       1.922   2.988  21.097  0.00  0.00    +0.000 C 
ATOM      3  N   UNL     1       2.425   4.161  21.156  0.00  0.00    +0.000 NA
ATOM      4  C   UNL     1       3.295   4.561  20.058  0.00  0.00    +0.000 C 
ATOM      5  N   UNL     1       3.780   3.518  19.138  0.00  0.00    +0.000 N 
ATOM      6  C   UNL     1       3.121   2.323  19.275  0.00  0.00    +0.000 C 
ATOM      7  N   UNL     1       3.443   1.292  18.450  0.00  0.00    +0.000 N 
ATOM      8  N   UNL     1       2.227   2.049  20.172  0.00  0.00    +0.000 NA
ATOM      9  H   UNL     1       1.119   3.189  22.895  0.00  0.00    +0.000 HD
ATOM     10  H   UNL     1       1.009   1.625  22.216  0.00  0.00    +0.000 HD
ATOM     11  H   UNL     1       4.441   1.174  18.322  0.00  0.00    +0.000 HD
ATOM     12  H   UNL     1       3.002   0.434  18.761  0.00  0.00    +0.000 HD
ENDROOT
BRANCH   5  13
ATOM     13  C   UNL     1       4.660   3.930  18.091  0.00  0.00    +0.000 A 
ATOM     14  C   UNL     1       4.311   3.803  16.728  0.00  0.00    +0.000 A 
ATOM     15  C   UNL     1       5.197   4.144  15.695  0.00  0.00    +0.000 A 
ATOM     16  C   UNL     1       6.450   4.660  15.999  0.00  0.00    +0.000 A 
ATOM     17 CL   UNL     1       7.541   5.078  14.738  0.00  0.00    +0.000 Cl
ATOM     18  C   UNL     1       6.824   4.823  17.324  0.00  0.00    +0.000 A 
ATOM     19  C   UNL     1       5.946   4.443  18.349  0.00  0.00    +0.000 A 
ENDBRANCH   5  13
BRANCH   4  20
ATOM     20  C   UNL     1       2.590   5.700  19.319  0.00  0.00    +0.000 A 
ATOM     21  C   UNL     1       1.928   5.502  18.096  0.00  0.00    +0.000 A 
ATOM     22  C   UNL     1       1.330   6.571  17.430  0.00  0.00    +0.000 A 
ATOM     23  C   UNL     1       1.394   7.855  17.976  0.00  0.00    +0.000 A 
ATOM     24  C   UNL     1       2.037   8.063  19.195  0.00  0.00    +0.000 A 
ATOM     25  C   UNL     1       2.572   6.979  19.894  0.00  0.00    +0.000 A 
BRANCH  24  26
ATOM     26  O   UNL     1       2.084   9.358  19.662  0.00  0.00    +0.000 OA
BRANCH  26  27
ATOM     27  C   UNL     1       1.138   9.765  20.581  0.00  0.00    +0.000 A 
ATOM     28  C   UNL     1       0.596   8.931  21.566  0.00  0.00    +0.000 A 
ATOM     29  C   UNL     1      -0.402   9.408  22.418  0.00  0.00    +0.000 A 
ATOM     30  C   UNL     1      -0.807  10.737  22.327  0.00  0.00    +0.000 A 
ATOM     31 CL   UNL     1      -2.035  11.324  23.380  0.00  0.00    +0.000 Cl
ATOM     32  C   UNL     1      -0.224  11.593  21.394  0.00  0.00    +0.000 A 
ATOM     33  C   UNL     1       0.750  11.105  20.518  0.00  0.00    +0.000 A 
ENDBRANCH  26  27
ENDBRANCH  24  26
ENDBRANCH   4  20
TORSDOF 4
ENDMDL
MODEL 9
REMARK VINA RESULT:      -7.1      4.911      8.121
REMARK  Name = 
REMARK  4 active torsions:
REMARK  status: ('A' for Active; 'I' for Inactive)
REMARK    1  A    between atoms: C_4  and  C_5
REMARK    2  A    between atoms: C_9  and  O_10
REMARK    3  A    between atoms: O_10  and  C_11
REMARK    4  A    between atoms: N_19  and  C_20
REMARK                            x       y       z     vdW  Elec       q    Type
REMARK                         _______ _______ _______ _____ _____    ______ ____
ROOT
ATOM      1  N   UNL     1       1.202   1.781  18.770  0.00  0.00    +0.000 N 
ATOM      2  C   UNL     1       2.218   2.673  18.668  0.00  0.00    +0.000 C 
ATOM      3  N   UNL     1       2.403   3.488  19.635  0.00  0.00    +0.000 NA
ATOM      4  C   UNL     1       3.443   4.493  19.460  0.00  0.00    +0.000 C 
ATOM      5  N   UNL     1       4.399   4.320  18.353  0.00  0.00    +0.000 N 
ATOM      6  C   UNL     1       4.017   3.363  17.449  0.00  0.00    +0.000 C 
ATOM      7  N   UNL     1       4.792   3.141  16.354  0.00  0.00    +0.000 N 
ATOM      8  N   UNL     1       2.985   2.587  17.557  0.00  0.00    +0.000 NA
ATOM      9  H   UNL     1       0.899   1.642  19.724  0.00  0.00    +0.000 HD
ATOM     10  H   UNL     1       1.350   0.940  18.233  0.00  0.00    +0.000 HD
ATOM     11  H   UNL     1       5.783   3.108  16.561  0.00  0.00    +0.000 HD
ATOM     12  H   UNL     1       4.485   2.310  15.861  0.00  0.00    +0.000 HD
ENDROOT
BRANCH   5  13
ATOM     13  C   UNL     1       5.431   5.300  18.224  0.00  0.00    +0.000 A 
ATOM     14  C   UNL     1       6.552   5.321  19.083  0.00  0.00    +0.000 A 
ATOM     15  C   UNL     1       7.535   6.320  19.005  0.00  0.00    +0.000 A 
ATOM     16  C   UNL     1       7.441   7.309  18.034  0.00  0.00    +0.000 A 
ATOM     17 CL   UNL     1       8.641   8.536  17.934  0.00  0.00    +0.000 Cl
ATOM     18  C   UNL     1       6.369   7.312  17.156  0.00  0.00    +0.000 A 
ATOM     19  C   UNL     1       5.373   6.332  17.268  0.00  0.00    +0.000 A 
ENDBRANCH   5  13
BRANCH   4  20
ATOM     20  C   UNL     1       2.748   5.855  19.415  0.00  0.00    +0.000 A 
ATOM     21  C   UNL     1       2.407   6.481  18.205  0.00  0.00    +0.000 A 
ATOM     22  C   UNL     1       1.809   7.741  18.200  0.00  0.00    +0.000 A 
ATOM     23  C   UNL     1       1.553   8.395  19.408  0.00  0.00    +0.000 A 
ATOM     24  C   UNL     1       1.874   7.778  20.616  0.00  0.00    +0.000 A 
ATOM     25  C   UNL     1       2.406   6.487  20.619  0.00  0.00    +0.000 A 
BRANCH  24  26
ATOM     26  O   UNL     1       1.616   8.491  21.767  0.00  0.00    +0.000 OA
BRANCH  26  27
ATOM     27  C   UNL     1       0.746   9.559  21.702  0.00  0.00    +0.000 A 
ATOM     28  C   UNL     1       0.730  10.493  20.658  0.00  0.00    +0.000 A 
ATOM     29  C   UNL     1      -0.145  11.580  20.702  0.00  0.00    +0.000 A 
ATOM     30  C   UNL     1      -1.047  11.696  21.756  0.00  0.00    +0.000 A 
ATOM     31 CL   UNL     1      -2.125  13.035  21.807  0.00  0.00    +0.000 Cl
ATOM     32  C   UNL     1      -1.084  10.734  22.765  0.00  0.00    +0.000 A 
ATOM     33  C   UNL     1      -0.184   9.665  22.738  0.00  0.00    +0.000 A 
ENDBRANCH  26  27
ENDBRANCH  24  26
ENDBRANCH   4  20
TORSDOF 4
ENDMDL
