MODEL 1
REMARK VINA RESULT:      -7.1      0.000      0.000
REMARK  Name = 
REMARK  9 active torsions:
REMARK  status: ('A' for Active; 'I' for Inactive)
REMARK    1  A    between atoms: C_1  and  O_2
REMARK    2  A    between atoms: O_2  and  C_3
REMARK    3  A    between atoms: C_3  and  C_5
REMARK    4  A    between atoms: C_5  and  C_6
REMARK    5  A    between atoms: C_5  and  C_7
REMARK    6  A    between atoms: C_5  and  C_8
REMARK    7  A    between atoms: C_8  and  N_9
REMARK    8  A    between atoms: N_9  and  C_10
REMARK    9  A    between atoms: C_10  and  C_11
REMARK                            x       y       z     vdW  Elec       q    Type
REMARK                         _______ _______ _______ _____ _____    ______ ____
ROOT
ATOM      1  N   UNL     1       5.310   4.485  18.307  0.00  0.00    +0.000 NA
ATOM      2  H   UNL     1       4.853   5.342  18.616  0.00  0.00    +0.000 HD
ENDROOT
BRANCH   1   3
ATOM      3  C   UNL     1       4.937   4.201  16.914  0.00  0.00    +0.000 C 
BRANCH   3   4
ATOM      4  C   UNL     1       5.879   4.877  15.880  0.00  0.00    +0.000 C 
ATOM      5  C   UNL     1       5.263   6.194  15.377  0.00  0.00    +0.000 C 
ATOM      6  C   UNL     1       6.157   3.935  14.696  0.00  0.00    +0.000 C 
BRANCH   4   7
ATOM      7  C   UNL     1       7.205   5.183  16.583  0.00  0.00    +0.000 C 
ATOM      8  O   UNL     1       7.970   4.337  17.030  0.00  0.00    +0.000 OA
BRANCH   7  10
ATOM      9  C   UNL     1       7.717   7.026  17.944  0.00  0.00    +0.000 C 
ATOM     10  O   UNL     1       7.437   6.526  16.635  0.00  0.00    +0.000 OA
ENDBRANCH   7  10
ENDBRANCH   4   7
ENDBRANCH   3   4
ENDBRANCH   1   3
BRANCH   1  11
ATOM     11  C   UNL     1       4.889   3.406  19.204  0.00  0.00    +0.000 C 
BRANCH  11  12
ATOM     12  C   UNL     1       3.414   3.510  19.494  0.00  0.00    +0.000 A 
ATOM     13  C   UNL     1       2.921   4.500  20.362  0.00  0.00    +0.000 A 
ATOM     14  C   UNL     1       1.553   4.596  20.635  0.00  0.00    +0.000 A 
ATOM     15  C   UNL     1       0.661   3.701  20.046  0.00  0.00    +0.000 A 
ATOM     16  C   UNL     1       1.144   2.719  19.188  0.00  0.00    +0.000 A 
ATOM     17  F   UNL     1       0.282   1.863  18.621  0.00  0.00    +0.000 F 
ATOM     18  C   UNL     1       2.505   2.622  18.914  0.00  0.00    +0.000 A 
ATOM     19  F   UNL     1       2.941   1.669  18.077  0.00  0.00    +0.000 F 
ENDBRANCH  11  12
ENDBRANCH   1  11
TORSDOF 6
ENDMDL
MODEL 2
REMARK VINA RESULT:      -7.0      1.468      1.913
REMARK  Name = 
REMARK  9 active torsions:
REMARK  status: ('A' for Active; 'I' for Inactive)
REMARK    1  A    between atoms: C_1  and  O_2
REMARK    2  A    between atoms: O_2  and  C_3
REMARK    3  A    between atoms: C_3  and  C_5
REMARK    4  A    between atoms: C_5  and  C_6
REMARK    5  A    between atoms: C_5  and  C_7
REMARK    6  A    between atoms: C_5  and  C_8
REMARK    7  A    between atoms: C_8  and  N_9
REMARK    8  A    between atoms: N_9  and  C_10
REMARK    9  A    between atoms: C_10  and  C_11
REMARK                            x       y       z     vdW  Elec       q    Type
REMARK                         _______ _______ _______ _____ _____    ______ ____
ROOT
ATOM      1  N   UNL     1       4.160   6.130  18.615  0.00  0.00    +0.000 NA
ATOM      2  H   UNL     1       4.675   6.798  19.188  0.00  0.00    +0.000 HD
ENDROOT
BRANCH   1   3
ATOM      3  C   UNL     1       4.436   6.382  17.194  0.00  0.00    +0.000 C 
BRANCH   3   4
ATOM      4  C   UNL     1       5.396   5.335  16.564  0.00  0.00    +0.000 C 
ATOM      5  C   UNL     1       5.418   5.483  15.033  0.00  0.00    +0.000 C 
ATOM      6  C   UNL     1       4.979   3.907  16.954  0.00  0.00    +0.000 C 
BRANCH   4   7
ATOM      7  C   UNL     1       6.803   5.601  17.111  0.00  0.00    +0.000 C 
ATOM      8  O   UNL     1       7.633   6.329  16.580  0.00  0.00    +0.000 OA
BRANCH   7  10
ATOM      9  C   UNL     1       7.740   5.671  19.262  0.00  0.00    +0.000 C 
ATOM     10  O   UNL     1       7.011   4.931  18.280  0.00  0.00    +0.000 OA
ENDBRANCH   7  10
ENDBRANCH   4   7
ENDBRANCH   3   4
ENDBRANCH   1   3
BRANCH   1  11
ATOM     11  C   UNL     1       2.736   6.288  18.919  0.00  0.00    +0.000 C 
BRANCH  11  12
ATOM     12  C   UNL     1       2.185   5.023  19.527  0.00  0.00    +0.000 A 
ATOM     13  C   UNL     1       2.371   4.743  20.892  0.00  0.00    +0.000 A 
ATOM     14  C   UNL     1       1.864   3.569  21.458  0.00  0.00    +0.000 A 
ATOM     15  C   UNL     1       1.167   2.659  20.665  0.00  0.00    +0.000 A 
ATOM     16  C   UNL     1       0.981   2.932  19.314  0.00  0.00    +0.000 A 
ATOM     17  F   UNL     1       0.306   2.055  18.556  0.00  0.00    +0.000 F 
ATOM     18  C   UNL     1       1.484   4.099  18.749  0.00  0.00    +0.000 A 
ATOM     19  F   UNL     1       1.283   4.338  17.444  0.00  0.00    +0.000 F 
ENDBRANCH  11  12
ENDBRANCH   1  11
TORSDOF 6
ENDMDL
MODEL 3
REMARK VINA RESULT:      -6.9      1.325      2.291
REMARK  Name = 
REMARK  9 active torsions:
REMARK  status: ('A' for Active; 'I' for Inactive)
REMARK    1  A    between atoms: C_1  and  O_2
REMARK    2  A    between atoms: O_2  and  C_3
REMARK    3  A    between atoms: C_3  and  C_5
REMARK    4  A    between atoms: C_5  and  C_6
REMARK    5  A    between atoms: C_5  and  C_7
REMARK    6  A    between atoms: C_5  and  C_8
REMARK    7  A    between atoms: C_8  and  N_9
REMARK    8  A    between atoms: N_9  and  C_10
REMARK    9  A    between atoms: C_10  and  C_11
REMARK                            x       y       z     vdW  Elec       q    Type
REMARK                         _______ _______ _______ _____ _____    ______ ____
ROOT
ATOM      1  N   UNL     1       4.551   5.997  18.304  0.00  0.00    +0.000 NA
ATOM      2  H   UNL     1       3.962   6.693  18.761  0.00  0.00    +0.000 HD
ENDROOT
BRANCH   1   3
ATOM      3  C   UNL     1       5.509   6.669  17.415  0.00  0.00    +0.000 C 
BRANCH   3   4
ATOM      4  C   UNL     1       6.989   6.340  17.752  0.00  0.00    +0.000 C 
ATOM      5  C   UNL     1       7.094   5.734  19.162  0.00  0.00    +0.000 C 
ATOM      6  C   UNL     1       7.867   7.599  17.649  0.00  0.00    +0.000 C 
BRANCH   4   7
ATOM      7  C   UNL     1       7.486   5.313  16.729  0.00  0.00    +0.000 C 
ATOM      8  O   UNL     1       8.006   4.240  17.012  0.00  0.00    +0.000 OA
BRANCH   7  10
ATOM      9  C   UNL     1       6.826   4.715  14.557  0.00  0.00    +0.000 C 
ATOM     10  O   UNL     1       7.261   5.740  15.454  0.00  0.00    +0.000 OA
ENDBRANCH   7  10
ENDBRANCH   4   7
ENDBRANCH   3   4
ENDBRANCH   1   3
BRANCH   1  11
ATOM     11  C   UNL     1       3.675   5.091  17.560  0.00  0.00    +0.000 C 
BRANCH  11  12
ATOM     12  C   UNL     1       2.635   4.496  18.474  0.00  0.00    +0.000 A 
ATOM     13  C   UNL     1       2.324   5.107  19.702  0.00  0.00    +0.000 A 
ATOM     14  C   UNL     1       1.362   4.555  20.554  0.00  0.00    +0.000 A 
ATOM     15  C   UNL     1       0.700   3.384  20.189  0.00  0.00    +0.000 A 
ATOM     16  C   UNL     1       1.005   2.775  18.977  0.00  0.00    +0.000 A 
ATOM     17  F   UNL     1       0.363   1.650  18.629  0.00  0.00    +0.000 F 
ATOM     18  C   UNL     1       1.961   3.322  18.127  0.00  0.00    +0.000 A 
ATOM     19  F   UNL     1       2.229   2.716  16.961  0.00  0.00    +0.000 F 
ENDBRANCH  11  12
ENDBRANCH   1  11
TORSDOF 6
ENDMDL
MODEL 4
REMARK VINA RESULT:      -6.9      1.697      2.489
REMARK  Name = 
REMARK  9 active torsions:
REMARK  status: ('A' for Active; 'I' for Inactive)
REMARK    1  A    between atoms: C_1  and  O_2
REMARK    2  A    between atoms: O_2  and  C_3
REMARK    3  A    between atoms: C_3  and  C_5
REMARK    4  A    between atoms: C_5  and  C_6
REMARK    5  A    between atoms: C_5  and  C_7
REMARK    6  A    between atoms: C_5  and  C_8
REMARK    7  A    between atoms: C_8  and  N_9
REMARK    8  A    between atoms: N_9  and  C_10
REMARK    9  A    between atoms: C_10  and  C_11
REMARK                            x       y       z     vdW  Elec       q    Type
REMARK                         _______ _______ _______ _____ _____    ______ ____
ROOT
ATOM      1  N   UNL     1       3.809   5.832  17.438  0.00  0.00    +0.000 NA
ATOM      2  H   UNL     1       4.104   4.896  17.712  0.00  0.00    +0.000 HD
ENDROOT
BRANCH   1   3
ATOM      3  C   UNL     1       4.970   6.734  17.437  0.00  0.00    +0.000 C 
BRANCH   3   4
ATOM      4  C   UNL     1       6.314   6.000  17.698  0.00  0.00    +0.000 C 
ATOM      5  C   UNL     1       6.324   5.392  19.111  0.00  0.00    +0.000 C 
ATOM      6  C   UNL     1       7.504   6.959  17.525  0.00  0.00    +0.000 C 
BRANCH   4   7
ATOM      7  C   UNL     1       6.441   4.872  16.669  0.00  0.00    +0.000 C 
ATOM      8  O   UNL     1       5.754   3.858  16.656  0.00  0.00    +0.000 OA
BRANCH   7  10
ATOM      9  C   UNL     1       7.045   4.862  14.400  0.00  0.00    +0.000 C 
ATOM     10  O   UNL     1       7.411   5.150  15.752  0.00  0.00    +0.000 OA
ENDBRANCH   7  10
ENDBRANCH   4   7
ENDBRANCH   3   4
ENDBRANCH   1   3
BRANCH   1  11
ATOM     11  C   UNL     1       2.789   6.276  18.390  0.00  0.00    +0.000 C 
BRANCH  11  12
ATOM     12  C   UNL     1       2.252   5.103  19.169  0.00  0.00    +0.000 A 
ATOM     13  C   UNL     1       2.532   4.963  20.540  0.00  0.00    +0.000 A 
ATOM     14  C   UNL     1       2.038   3.873  21.265  0.00  0.00    +0.000 A 
ATOM     15  C   UNL     1       1.259   2.909  20.627  0.00  0.00    +0.000 A 
ATOM     16  C   UNL     1       0.980   3.043  19.271  0.00  0.00    +0.000 A 
ATOM     17  F   UNL     1       0.228   2.114  18.662  0.00  0.00    +0.000 F 
ATOM     18  C   UNL     1       1.470   4.126  18.548  0.00  0.00    +0.000 A 
ATOM     19  F   UNL     1       1.179   4.232  17.243  0.00  0.00    +0.000 F 
ENDBRANCH  11  12
ENDBRANCH   1  11
TORSDOF 6
ENDMDL
MODEL 5
REMARK VINA RESULT:      -6.9      1.544      1.786
REMARK  Name = 
REMARK  9 active torsions:
REMARK  status: ('A' for Active; 'I' for Inactive)
REMARK    1  A    between atoms: C_1  and  O_2
REMARK    2  A    between atoms: O_2  and  C_3
REMARK    3  A    between atoms: C_3  and  C_5
REMARK    4  A    between atoms: C_5  and  C_6
REMARK    5  A    between atoms: C_5  and  C_7
REMARK    6  A    between atoms: C_5  and  C_8
REMARK    7  A    between atoms: C_8  and  N_9
REMARK    8  A    between atoms: N_9  and  C_10
REMARK    9  A    between atoms: C_10  and  C_11
REMARK                            x       y       z     vdW  Elec       q    Type
REMARK                         _______ _______ _______ _____ _____    ______ ____
ROOT
ATOM      1  N   UNL     1       4.184   6.149  18.350  0.00  0.00    +0.000 NA
ATOM      2  H   UNL     1       4.507   7.048  17.993  0.00  0.00    +0.000 HD
ENDROOT
BRANCH   1   3
ATOM      3  C   UNL     1       4.617   5.074  17.446  0.00  0.00    +0.000 C 
BRANCH   3   4
ATOM      4  C   UNL     1       5.944   5.397  16.705  0.00  0.00    +0.000 C 
ATOM      5  C   UNL     1       6.182   6.917  16.675  0.00  0.00    +0.000 C 
ATOM      6  C   UNL     1       5.921   4.835  15.273  0.00  0.00    +0.000 C 
BRANCH   4   7
ATOM      7  C   UNL     1       7.087   4.728  17.475  0.00  0.00    +0.000 C 
ATOM      8  O   UNL     1       8.064   4.202  16.957  0.00  0.00    +0.000 OA
BRANCH   7  10
ATOM      9  C   UNL     1       7.822   5.636  19.511  0.00  0.00    +0.000 C 
ATOM     10  O   UNL     1       6.885   4.806  18.822  0.00  0.00    +0.000 OA
ENDBRANCH   7  10
ENDBRANCH   4   7
ENDBRANCH   3   4
ENDBRANCH   1   3
BRANCH   1  11
ATOM     11  C   UNL     1       2.724   6.207  18.450  0.00  0.00    +0.000 C 
BRANCH  11  12
ATOM     12  C   UNL     1       2.203   5.021  19.220  0.00  0.00    +0.000 A 
ATOM     13  C   UNL     1       2.483   4.875  20.590  0.00  0.00    +0.000 A 
ATOM     14  C   UNL     1       2.004   3.773  21.306  0.00  0.00    +0.000 A 
ATOM     15  C   UNL     1       1.239   2.803  20.660  0.00  0.00    +0.000 A 
ATOM     16  C   UNL     1       0.960   2.943  19.304  0.00  0.00    +0.000 A 
ATOM     17  F   UNL     1       0.222   2.009  18.688  0.00  0.00    +0.000 F 
ATOM     18  C   UNL     1       1.436   4.038  18.590  0.00  0.00    +0.000 A 
ATOM     19  F   UNL     1       1.145   4.150  17.286  0.00  0.00    +0.000 F 
ENDBRANCH  11  12
ENDBRANCH   1  11
TORSDOF 6
ENDMDL
MODEL 6
REMARK VINA RESULT:      -6.8      1.513      2.018
REMARK  Name = 
REMARK  9 active torsions:
REMARK  status: ('A' for Active; 'I' for Inactive)
REMARK    1  A    between atoms: C_1  and  O_2
REMARK    2  A    between atoms: O_2  and  C_3
REMARK    3  A    between atoms: C_3  and  C_5
REMARK    4  A    between atoms: C_5  and  C_6
REMARK    5  A    between atoms: C_5  and  C_7
REMARK    6  A    between atoms: C_5  and  C_8
REMARK    7  A    between atoms: C_8  and  N_9
REMARK    8  A    between atoms: N_9  and  C_10
REMARK    9  A    between atoms: C_10  and  C_11
REMARK                            x       y       z     vdW  Elec       q    Type
REMARK                         _______ _______ _______ _____ _____    ______ ____
ROOT
ATOM      1  N   UNL     1       3.887   5.661  17.612  0.00  0.00    +0.000 NA
ATOM      2  H   UNL     1       3.418   4.897  17.126  0.00  0.00    +0.000 HD
ENDROOT
BRANCH   1   3
ATOM      3  C   UNL     1       5.165   5.186  18.161  0.00  0.00    +0.000 C 
BRANCH   3   4
ATOM      4  C   UNL     1       6.261   4.994  17.077  0.00  0.00    +0.000 C 
ATOM      5  C   UNL     1       5.800   3.970  16.026  0.00  0.00    +0.000 C 
ATOM      6  C   UNL     1       7.587   4.542  17.714  0.00  0.00    +0.000 C 
BRANCH   4   7
ATOM      7  C   UNL     1       6.485   6.346  16.392  0.00  0.00    +0.000 C 
ATOM      8  O   UNL     1       5.684   6.890  15.641  0.00  0.00    +0.000 OA
BRANCH   7  10
ATOM      9  C   UNL     1       7.605   8.092  17.491  0.00  0.00    +0.000 C 
ATOM     10  O   UNL     1       7.691   6.880  16.739  0.00  0.00    +0.000 OA
ENDBRANCH   7  10
ENDBRANCH   4   7
ENDBRANCH   3   4
ENDBRANCH   1   3
BRANCH   1  11
ATOM     11  C   UNL     1       2.992   6.131  18.672  0.00  0.00    +0.000 C 
BRANCH  11  12
ATOM     12  C   UNL     1       2.344   4.963  19.370  0.00  0.00    +0.000 A 
ATOM     13  C   UNL     1       2.534   4.754  20.747  0.00  0.00    +0.000 A 
ATOM     14  C   UNL     1       1.937   3.669  21.396  0.00  0.00    +0.000 A 
ATOM     15  C   UNL     1       1.144   2.777  20.675  0.00  0.00    +0.000 A 
ATOM     16  C   UNL     1       0.954   2.979  19.312  0.00  0.00    +0.000 A 
ATOM     17  F   UNL     1       0.188   2.121  18.624  0.00  0.00    +0.000 F 
ATOM     18  C   UNL     1       1.547   4.059  18.664  0.00  0.00    +0.000 A 
ATOM     19  F   UNL     1       1.340   4.231  17.350  0.00  0.00    +0.000 F 
ENDBRANCH  11  12
ENDBRANCH   1  11
TORSDOF 6
ENDMDL
MODEL 7
REMARK VINA RESULT:      -6.8      1.890      2.726
REMARK  Name = 
REMARK  9 active torsions:
REMARK  status: ('A' for Active; 'I' for Inactive)
REMARK    1  A    between atoms: C_1  and  O_2
REMARK    2  A    between atoms: O_2  and  C_3
REMARK    3  A    between atoms: C_3  and  C_5
REMARK    4  A    between atoms: C_5  and  C_6
REMARK    5  A    between atoms: C_5  and  C_7
REMARK    6  A    between atoms: C_5  and  C_8
REMARK    7  A    between atoms: C_8  and  N_9
REMARK    8  A    between atoms: N_9  and  C_10
REMARK    9  A    between atoms: C_10  and  C_11
REMARK                            x       y       z     vdW  Elec       q    Type
REMARK                         _______ _______ _______ _____ _____    ______ ____
ROOT
ATOM      1  N   UNL     1       5.135   3.700  17.629  0.00  0.00    +0.000 NA
ATOM      2  H   UNL     1       5.253   2.938  18.296  0.00  0.00    +0.000 HD
ENDROOT
BRANCH   1   3
ATOM      3  C   UNL     1       5.610   4.956  18.226  0.00  0.00    +0.000 C 
BRANCH   3   4
ATOM      4  C   UNL     1       6.244   5.923  17.190  0.00  0.00    +0.000 C 
ATOM      5  C   UNL     1       7.362   6.752  17.846  0.00  0.00    +0.000 C 
ATOM      6  C   UNL     1       5.178   6.854  16.586  0.00  0.00    +0.000 C 
BRANCH   4   7
ATOM      7  C   UNL     1       6.846   5.076  16.064  0.00  0.00    +0.000 C 
ATOM      8  O   UNL     1       7.888   4.437  16.151  0.00  0.00    +0.000 OA
BRANCH   7  10
ATOM      9  C   UNL     1       6.201   3.972  14.095  0.00  0.00    +0.000 C 
ATOM     10  O   UNL     1       6.061   5.109  14.949  0.00  0.00    +0.000 OA
ENDBRANCH   7  10
ENDBRANCH   4   7
ENDBRANCH   3   4
ENDBRANCH   1   3
BRANCH   1  11
ATOM     11  C   UNL     1       3.713   3.775  17.285  0.00  0.00    +0.000 C 
BRANCH  11  12
ATOM     12  C   UNL     1       2.865   3.666  18.526  0.00  0.00    +0.000 A 
ATOM     13  C   UNL     1       2.630   2.416  19.127  0.00  0.00    +0.000 A 
ATOM     14  C   UNL     1       1.841   2.311  20.276  0.00  0.00    +0.000 A 
ATOM     15  C   UNL     1       1.275   3.455  20.839  0.00  0.00    +0.000 A 
ATOM     16  C   UNL     1       1.504   4.693  20.247  0.00  0.00    +0.000 A 
ATOM     17  F   UNL     1       0.961   5.790  20.794  0.00  0.00    +0.000 F 
ATOM     18  C   UNL     1       2.290   4.800  19.104  0.00  0.00    +0.000 A 
ATOM     19  F   UNL     1       2.499   6.008  18.560  0.00  0.00    +0.000 F 
ENDBRANCH  11  12
ENDBRANCH   1  11
TORSDOF 6
ENDMDL
MODEL 8
REMARK VINA RESULT:      -6.8      1.776      2.763
REMARK  Name = 
REMARK  9 active torsions:
REMARK  status: ('A' for Active; 'I' for Inactive)
REMARK    1  A    between atoms: C_1  and  O_2
REMARK    2  A    between atoms: O_2  and  C_3
REMARK    3  A    between atoms: C_3  and  C_5
REMARK    4  A    between atoms: C_5  and  C_6
REMARK    5  A    between atoms: C_5  and  C_7
REMARK    6  A    between atoms: C_5  and  C_8
REMARK    7  A    between atoms: C_8  and  N_9
REMARK    8  A    between atoms: N_9  and  C_10
REMARK    9  A    between atoms: C_10  and  C_11
REMARK                            x       y       z     vdW  Elec       q    Type
REMARK                         _______ _______ _______ _____ _____    ______ ____
ROOT
ATOM      1  N   UNL     1       4.296   4.714  17.012  0.00  0.00    +0.000 NA
ATOM      2  H   UNL     1       4.639   4.731  16.052  0.00  0.00    +0.000 HD
ENDROOT
BRANCH   1   3
ATOM      3  C   UNL     1       5.266   5.377  17.896  0.00  0.00    +0.000 C 
BRANCH   3   4
ATOM      4  C   UNL     1       6.634   5.642  17.209  0.00  0.00    +0.000 C 
ATOM      5  C   UNL     1       7.652   4.561  17.610  0.00  0.00    +0.000 C 
ATOM      6  C   UNL     1       7.169   7.037  17.578  0.00  0.00    +0.000 C 
BRANCH   4   7
ATOM      7  C   UNL     1       6.418   5.586  15.694  0.00  0.00    +0.000 C 
ATOM      8  O   UNL     1       5.741   6.383  15.055  0.00  0.00    +0.000 OA
BRANCH   7  10
ATOM      9  C   UNL     1       6.366   3.841  14.125  0.00  0.00    +0.000 C 
ATOM     10  O   UNL     1       7.092   4.539  15.139  0.00  0.00    +0.000 OA
ENDBRANCH   7  10
ENDBRANCH   4   7
ENDBRANCH   3   4
ENDBRANCH   1   3
BRANCH   1  11
ATOM     11  C   UNL     1       4.099   3.313  17.390  0.00  0.00    +0.000 C 
BRANCH  11  12
ATOM     12  C   UNL     1       3.086   3.206  18.501  0.00  0.00    +0.000 A 
ATOM     13  C   UNL     1       1.733   3.514  18.272  0.00  0.00    +0.000 A 
ATOM     14  C   UNL     1       0.792   3.419  19.302  0.00  0.00    +0.000 A 
ATOM     15  C   UNL     1       1.193   3.018  20.576  0.00  0.00    +0.000 A 
ATOM     16  C   UNL     1       2.530   2.714  20.808  0.00  0.00    +0.000 A 
ATOM     17  F   UNL     1       2.910   2.326  22.033  0.00  0.00    +0.000 F 
ATOM     18  C   UNL     1       3.468   2.807  19.784  0.00  0.00    +0.000 A 
ATOM     19  F   UNL     1       4.749   2.501  20.036  0.00  0.00    +0.000 F 
ENDBRANCH  11  12
ENDBRANCH   1  11
TORSDOF 6
ENDMDL
MODEL 9
REMARK VINA RESULT:      -6.8      1.965      2.621
REMARK  Name = 
REMARK  9 active torsions:
REMARK  status: ('A' for Active; 'I' for Inactive)
REMARK    1  A    between atoms: C_1  and  O_2
REMARK    2  A    between atoms: O_2  and  C_3
REMARK    3  A    between atoms: C_3  and  C_5
REMARK    4  A    between atoms: C_5  and  C_6
REMARK    5  A    between atoms: C_5  and  C_7
REMARK    6  A    between atoms: C_5  and  C_8
REMARK    7  A    between atoms: C_8  and  N_9
REMARK    8  A    between atoms: N_9  and  C_10
REMARK    9  A    between atoms: C_10  and  C_11
REMARK                            x       y       z     vdW  Elec       q    Type
REMARK                         _______ _______ _______ _____ _____    ______ ____
ROOT
ATOM      1  N   UNL     1       3.982   6.327  18.115  0.00  0.00    +0.000 NA
ATOM      2  H   UNL     1       3.573   5.887  17.292  0.00  0.00    +0.000 HD
ENDROOT
BRANCH   1   3
ATOM      3  C   UNL     1       5.164   5.565  18.545  0.00  0.00    +0.000 C 
BRANCH   3   4
ATOM      4  C   UNL     1       6.057   5.104  17.360  0.00  0.00    +0.000 C 
ATOM      5  C   UNL     1       5.325   4.042  16.522  0.00  0.00    +0.000 C 
ATOM      6  C   UNL     1       7.397   4.548  17.870  0.00  0.00    +0.000 C 
BRANCH   4   7
ATOM      7  C   UNL     1       6.337   6.327  16.481  0.00  0.00    +0.000 C 
ATOM      8  O   UNL     1       5.545   6.809  15.681  0.00  0.00    +0.000 OA
BRANCH   7  10
ATOM      9  C   UNL     1       7.605   8.041  17.465  0.00  0.00    +0.000 C 
ATOM     10  O   UNL     1       7.586   6.825  16.714  0.00  0.00    +0.000 OA
ENDBRANCH   7  10
ENDBRANCH   4   7
ENDBRANCH   3   4
ENDBRANCH   1   3
BRANCH   1  11
ATOM     11  C   UNL     1       2.957   6.357  19.161  0.00  0.00    +0.000 C 
BRANCH  11  12
ATOM     12  C   UNL     1       2.240   5.033  19.233  0.00  0.00    +0.000 A 
ATOM     13  C   UNL     1       1.863   4.356  18.059  0.00  0.00    +0.000 A 
ATOM     14  C   UNL     1       1.195   3.130  18.124  0.00  0.00    +0.000 A 
ATOM     15  C   UNL     1       0.893   2.565  19.362  0.00  0.00    +0.000 A 
ATOM     16  C   UNL     1       1.263   3.232  20.526  0.00  0.00    +0.000 A 
ATOM     17  F   UNL     1       0.973   2.684  21.714  0.00  0.00    +0.000 F 
ATOM     18  C   UNL     1       1.929   4.452  20.464  0.00  0.00    +0.000 A 
ATOM     19  F   UNL     1       2.279   5.069  21.603  0.00  0.00    +0.000 F 
ENDBRANCH  11  12
ENDBRANCH   1  11
TORSDOF 6
ENDMDL
