MODEL 1
REMARK VINA RESULT:      -8.7      0.000      0.000
REMARK  Name = 
REMARK  10 active torsions:
REMARK  status: ('A' for Active; 'I' for Inactive)
REMARK    1  A    between atoms: C_1  and  C_2
REMARK    2  A    between atoms: C_2  and  C_3
REMARK    3  A    between atoms: C_7  and  C_8
REMARK    4  A    between atoms: C_8  and  C_9
REMARK    5  A    between atoms: C_10  and  N_11
REMARK    6  A    between atoms: C_12  and  C_14
REMARK    7  A    between atoms: N_16  and  C_17
REMARK    8  A    between atoms: N_26  and  C_27
REMARK    9  A    between atoms: C_32  and  O_33
REMARK   10  A    between atoms: O_33  and  C_34
REMARK                            x       y       z     vdW  Elec       q    Type
REMARK                         _______ _______ _______ _____ _____    ______ ____
ROOT
ATOM      1  C   UNL     1       1.689   7.917  20.154  0.00  0.00    +0.000 A 
ATOM      2  N   UNL     1       1.172   8.066  21.396  0.00  0.00    +0.000 NA
ATOM      3  N   UNL     1       0.644   9.306  21.406  0.00  0.00    +0.000 N 
ATOM      4  C   UNL     1       0.209   9.859  22.668  0.00  0.00    +0.000 C 
ATOM      5  C   UNL     1       0.772   9.951  20.213  0.00  0.00    +0.000 A 
ATOM      6  C   UNL     1       1.465   9.088  19.383  0.00  0.00    +0.000 A 
ATOM      7  C   UNL     1       1.852   9.516  18.003  0.00  0.00    +0.000 C 
ATOM      8  C   UNL     1       2.091  11.056  17.958  0.00  0.00    +0.000 C 
ATOM      9  C   UNL     1       1.089  11.861  18.756  0.00  0.00    +0.000 A 
ATOM     10  C   UNL     1       0.836  13.195  18.560  0.00  0.00    +0.000 A 
ATOM     11  N   UNL     1       0.024  13.923  19.360  0.00  0.00    +0.000 NA
ATOM     12  C   UNL     1      -0.606  13.281  20.358  0.00  0.00    +0.000 A 
ATOM     13  N   UNL     1      -1.463  14.042  21.173  0.00  0.00    +0.000 N 
ATOM     14  N   UNL     1      -0.399  11.989  20.651  0.00  0.00    +0.000 NA
ATOM     15  C   UNL     1       0.454  11.323  19.862  0.00  0.00    +0.000 A 
ATOM     16  H   UNL     1      -0.868  14.635  21.726  0.00  0.00    +0.000 HD
ENDROOT
BRANCH  13  17
ATOM     17  C   UNL     1      -2.598  13.548  21.854  0.00  0.00    +0.000 A 
ATOM     18  C   UNL     1      -2.515  13.384  23.257  0.00  0.00    +0.000 A 
ATOM     19  C   UNL     1      -3.584  12.913  24.017  0.00  0.00    +0.000 A 
ATOM     20  C   UNL     1      -4.766  12.556  23.387  0.00  0.00    +0.000 A 
ATOM     21  C   UNL     1      -4.862  12.666  22.000  0.00  0.00    +0.000 A 
ATOM     22  C   UNL     1      -3.786  13.138  21.221  0.00  0.00    +0.000 A 
BRANCH  22  23
ATOM     23  O   UNL     1      -4.112  13.259  19.896  0.00  0.00    +0.000 OA
ATOM     24  C   UNL     1      -4.279  12.076  19.131  0.00  0.00    +0.000 C 
ENDBRANCH  22  23
ENDBRANCH  13  17
BRANCH   1  26
ATOM     25  N   UNL     1       2.891   6.709  18.508  0.00  0.00    +0.000 N 
ATOM     26  C   UNL     1       2.406   6.669  19.810  0.00  0.00    +0.000 C 
ATOM     27  O   UNL     1       2.483   5.721  20.593  0.00  0.00    +0.000 OA
ATOM     28  H   UNL     1       2.442   7.437  17.957  0.00  0.00    +0.000 HD
BRANCH  25  34
ATOM     29  C   UNL     1       4.862   5.787  17.377  0.00  0.00    +0.000 A 
ATOM     30  C   UNL     1       5.506   4.678  16.800  0.00  0.00    +0.000 A 
ATOM     31  C   UNL     1       4.847   3.462  16.656  0.00  0.00    +0.000 A 
ATOM     32  C   UNL     1       3.511   3.356  17.024  0.00  0.00    +0.000 A 
ATOM     33  C   UNL     1       2.821   4.451  17.582  0.00  0.00    +0.000 A 
ATOM     34  C   UNL     1       3.535   5.645  17.846  0.00  0.00    +0.000 A 
BRANCH  29  36
ATOM     35  C   UNL     1       7.080   6.981  17.426  0.00  0.00    +0.000 C 
ATOM     36  C   UNL     1       5.568   7.126  17.264  0.00  0.00    +0.000 C 
ENDBRANCH  29  36
BRANCH  33  37
ATOM     37  C   UNL     1       1.340   4.262  17.845  0.00  0.00    +0.000 C 
ATOM     38  C   UNL     1       0.984   2.992  18.602  0.00  0.00    +0.000 C 
ENDBRANCH  33  37
ENDBRANCH  25  34
ENDBRANCH   1  26
TORSDOF 6
ENDMDL
MODEL 2
REMARK VINA RESULT:      -8.6      0.872      1.573
REMARK  Name = 
REMARK  10 active torsions:
REMARK  status: ('A' for Active; 'I' for Inactive)
REMARK    1  A    between atoms: C_1  and  C_2
REMARK    2  A    between atoms: C_2  and  C_3
REMARK    3  A    between atoms: C_7  and  C_8
REMARK    4  A    between atoms: C_8  and  C_9
REMARK    5  A    between atoms: C_10  and  N_11
REMARK    6  A    between atoms: C_12  and  C_14
REMARK    7  A    between atoms: N_16  and  C_17
REMARK    8  A    between atoms: N_26  and  C_27
REMARK    9  A    between atoms: C_32  and  O_33
REMARK   10  A    between atoms: O_33  and  C_34
REMARK                            x       y       z     vdW  Elec       q    Type
REMARK                         _______ _______ _______ _____ _____    ______ ____
ROOT
ATOM      1  C   UNL     1       1.621   8.040  20.012  0.00  0.00    +0.000 A 
ATOM      2  N   UNL     1       0.948   8.153  21.180  0.00  0.00    +0.000 NA
ATOM      3  N   UNL     1       0.407   9.387  21.152  0.00  0.00    +0.000 N 
ATOM      4  C   UNL     1      -0.192   9.904  22.362  0.00  0.00    +0.000 C 
ATOM      5  C   UNL     1       0.678  10.064  20.001  0.00  0.00    +0.000 A 
ATOM      6  C   UNL     1       1.482   9.229  19.246  0.00  0.00    +0.000 A 
ATOM      7  C   UNL     1       2.037   9.695  17.938  0.00  0.00    +0.000 C 
ATOM      8  C   UNL     1       2.260  11.238  17.961  0.00  0.00    +0.000 C 
ATOM      9  C   UNL     1       1.154  12.012  18.643  0.00  0.00    +0.000 A 
ATOM     10  C   UNL     1       0.911  13.349  18.449  0.00  0.00    +0.000 A 
ATOM     11  N   UNL     1      -0.005  14.048  19.155  0.00  0.00    +0.000 NA
ATOM     12  C   UNL     1      -0.750  13.375  20.049  0.00  0.00    +0.000 A 
ATOM     13  N   UNL     1      -1.713  14.107  20.765  0.00  0.00    +0.000 N 
ATOM     14  N   UNL     1      -0.566  12.078  20.334  0.00  0.00    +0.000 NA
ATOM     15  C   UNL     1       0.389  11.441  19.646  0.00  0.00    +0.000 A 
ATOM     16  H   UNL     1      -1.201  14.691  21.404  0.00  0.00    +0.000 HD
ENDROOT
BRANCH  13  17
ATOM     17  C   UNL     1      -2.919  13.585  21.284  0.00  0.00    +0.000 A 
ATOM     18  C   UNL     1      -3.914  13.166  20.368  0.00  0.00    +0.000 A 
ATOM     19  C   UNL     1      -5.131  12.629  20.783  0.00  0.00    +0.000 A 
ATOM     20  C   UNL     1      -5.405  12.525  22.138  0.00  0.00    +0.000 A 
ATOM     21  C   UNL     1      -4.462  12.969  23.064  0.00  0.00    +0.000 A 
ATOM     22  C   UNL     1      -3.229  13.517  22.655  0.00  0.00    +0.000 A 
BRANCH  22  23
ATOM     23  O   UNL     1      -2.408  13.806  23.713  0.00  0.00    +0.000 OA
ATOM     24  C   UNL     1      -2.949  14.519  24.814  0.00  0.00    +0.000 C 
ENDBRANCH  22  23
ENDBRANCH  13  17
BRANCH   1  26
ATOM     25  N   UNL     1       2.829   6.775  18.413  0.00  0.00    +0.000 N 
ATOM     26  C   UNL     1       2.391   6.808  19.733  0.00  0.00    +0.000 C 
ATOM     27  O   UNL     1       2.546   5.927  20.578  0.00  0.00    +0.000 OA
ATOM     28  H   UNL     1       2.322   7.436  17.828  0.00  0.00    +0.000 HD
BRANCH  25  34
ATOM     29  C   UNL     1       4.839   5.849  17.358  0.00  0.00    +0.000 A 
ATOM     30  C   UNL     1       5.515   4.731  16.838  0.00  0.00    +0.000 A 
ATOM     31  C   UNL     1       4.882   3.497  16.728  0.00  0.00    +0.000 A 
ATOM     32  C   UNL     1       3.541   3.380  17.075  0.00  0.00    +0.000 A 
ATOM     33  C   UNL     1       2.820   4.483  17.575  0.00  0.00    +0.000 A 
ATOM     34  C   UNL     1       3.506   5.699  17.806  0.00  0.00    +0.000 A 
BRANCH  29  36
ATOM     35  C   UNL     1       7.023   7.099  17.472  0.00  0.00    +0.000 C 
ATOM     36  C   UNL     1       5.522   7.196  17.207  0.00  0.00    +0.000 C 
ENDBRANCH  29  36
BRANCH  33  37
ATOM     37  C   UNL     1       1.338   4.275  17.817  0.00  0.00    +0.000 C 
ATOM     38  C   UNL     1       0.999   3.128  18.757  0.00  0.00    +0.000 C 
ENDBRANCH  33  37
ENDBRANCH  25  34
ENDBRANCH   1  26
TORSDOF 6
ENDMDL
MODEL 3
REMARK VINA RESULT:      -8.6      1.125      2.803
REMARK  Name = 
REMARK  10 active torsions:
REMARK  status: ('A' for Active; 'I' for Inactive)
REMARK    1  A    between atoms: C_1  and  C_2
REMARK    2  A    between atoms: C_2  and  C_3
REMARK    3  A    between atoms: C_7  and  C_8
REMARK    4  A    between atoms: C_8  and  C_9
REMARK    5  A    between atoms: C_10  and  N_11
REMARK    6  A    between atoms: C_12  and  C_14
REMARK    7  A    between atoms: N_16  and  C_17
REMARK    8  A    between atoms: N_26  and  C_27
REMARK    9  A    between atoms: C_32  and  O_33
REMARK   10  A    between atoms: O_33  and  C_34
REMARK                            x       y       z     vdW  Elec       q    Type
REMARK                         _______ _______ _______ _____ _____    ______ ____
ROOT
ATOM      1  C   UNL     1       1.392   7.897  20.297  0.00  0.00    +0.000 A 
ATOM      2  N   UNL     1       0.728   8.085  21.461  0.00  0.00    +0.000 NA
ATOM      3  N   UNL     1       0.220   9.330  21.375  0.00  0.00    +0.000 N 
ATOM      4  C   UNL     1      -0.359   9.922  22.559  0.00  0.00    +0.000 C 
ATOM      5  C   UNL     1       0.503   9.942  20.191  0.00  0.00    +0.000 A 
ATOM      6  C   UNL     1       1.281   9.050  19.475  0.00  0.00    +0.000 A 
ATOM      7  C   UNL     1       1.842   9.437  18.143  0.00  0.00    +0.000 C 
ATOM      8  C   UNL     1       2.107  10.972  18.090  0.00  0.00    +0.000 C 
ATOM      9  C   UNL     1       1.025  11.808  18.737  0.00  0.00    +0.000 A 
ATOM     10  C   UNL     1       0.817  13.140  18.479  0.00  0.00    +0.000 A 
ATOM     11  N   UNL     1      -0.077  13.898  19.153  0.00  0.00    +0.000 NA
ATOM     12  C   UNL     1      -0.834  13.290  20.082  0.00  0.00    +0.000 A 
ATOM     13  N   UNL     1      -1.774  14.081  20.765  0.00  0.00    +0.000 N 
ATOM     14  N   UNL     1      -0.684  12.003  20.429  0.00  0.00    +0.000 NA
ATOM     15  C   UNL     1       0.250  11.307  19.769  0.00  0.00    +0.000 A 
ATOM     16  H   UNL     1      -1.244  14.682  21.372  0.00  0.00    +0.000 HD
ENDROOT
BRANCH  13  17
ATOM     17  C   UNL     1      -2.991  13.618  21.312  0.00  0.00    +0.000 A 
ATOM     18  C   UNL     1      -4.000  13.180  20.422  0.00  0.00    +0.000 A 
ATOM     19  C   UNL     1      -5.229  12.697  20.868  0.00  0.00    +0.000 A 
ATOM     20  C   UNL     1      -5.501  12.668  22.227  0.00  0.00    +0.000 A 
ATOM     21  C   UNL     1      -4.542  13.134  23.126  0.00  0.00    +0.000 A 
ATOM     22  C   UNL     1      -3.297  13.627  22.686  0.00  0.00    +0.000 A 
BRANCH  22  23
ATOM     23  O   UNL     1      -2.463  13.947  23.726  0.00  0.00    +0.000 OA
ATOM     24  C   UNL     1      -3.013  14.608  24.854  0.00  0.00    +0.000 C 
ENDBRANCH  22  23
ENDBRANCH  13  17
BRANCH   1  26
ATOM     25  N   UNL     1       1.947   6.165  18.779  0.00  0.00    +0.000 N 
ATOM     26  C   UNL     1       2.128   6.632  20.076  0.00  0.00    +0.000 C 
ATOM     27  O   UNL     1       2.756   6.074  20.976  0.00  0.00    +0.000 OA
ATOM     28  H   UNL     1       1.150   6.604  18.324  0.00  0.00    +0.000 HD
BRANCH  25  34
ATOM     29  C   UNL     1       1.781   3.726  18.584  0.00  0.00    +0.000 A 
ATOM     30  C   UNL     1       2.242   2.534  17.996  0.00  0.00    +0.000 A 
ATOM     31  C   UNL     1       3.347   2.533  17.151  0.00  0.00    +0.000 A 
ATOM     32  C   UNL     1       4.048   3.713  16.935  0.00  0.00    +0.000 A 
ATOM     33  C   UNL     1       3.635   4.924  17.526  0.00  0.00    +0.000 A 
ATOM     34  C   UNL     1       2.436   4.941  18.278  0.00  0.00    +0.000 A 
BRANCH  29  36
ATOM     35  C   UNL     1       1.304   2.910  20.918  0.00  0.00    +0.000 C 
ATOM     36  C   UNL     1       0.736   3.593  19.676  0.00  0.00    +0.000 C 
ENDBRANCH  29  36
BRANCH  33  37
ATOM     37  C   UNL     1       4.533   6.127  17.316  0.00  0.00    +0.000 C 
ATOM     38  C   UNL     1       5.212   6.186  15.956  0.00  0.00    +0.000 C 
ENDBRANCH  33  37
ENDBRANCH  25  34
ENDBRANCH   1  26
TORSDOF 6
ENDMDL
MODEL 4
REMARK VINA RESULT:      -8.5      0.771      2.335
REMARK  Name = 
REMARK  10 active torsions:
REMARK  status: ('A' for Active; 'I' for Inactive)
REMARK    1  A    between atoms: C_1  and  C_2
REMARK    2  A    between atoms: C_2  and  C_3
REMARK    3  A    between atoms: C_7  and  C_8
REMARK    4  A    between atoms: C_8  and  C_9
REMARK    5  A    between atoms: C_10  and  N_11
REMARK    6  A    between atoms: C_12  and  C_14
REMARK    7  A    between atoms: N_16  and  C_17
REMARK    8  A    between atoms: N_26  and  C_27
REMARK    9  A    between atoms: C_32  and  O_33
REMARK   10  A    between atoms: O_33  and  C_34
REMARK                            x       y       z     vdW  Elec       q    Type
REMARK                         _______ _______ _______ _____ _____    ______ ____
ROOT
ATOM      1  C   UNL     1       1.381   7.949  20.505  0.00  0.00    +0.000 A 
ATOM      2  N   UNL     1       0.847   8.155  21.732  0.00  0.00    +0.000 NA
ATOM      3  N   UNL     1       0.328   9.397  21.681  0.00  0.00    +0.000 N 
ATOM      4  C   UNL     1      -0.120  10.007  22.913  0.00  0.00    +0.000 C 
ATOM      5  C   UNL     1       0.477   9.990  20.464  0.00  0.00    +0.000 A 
ATOM      6  C   UNL     1       1.175   9.087  19.681  0.00  0.00    +0.000 A 
ATOM      7  C   UNL     1       1.584   9.453  18.290  0.00  0.00    +0.000 C 
ATOM      8  C   UNL     1       1.835  10.988  18.183  0.00  0.00    +0.000 C 
ATOM      9  C   UNL     1       0.827  11.833  18.931  0.00  0.00    +0.000 A 
ATOM     10  C   UNL     1       0.586  13.159  18.675  0.00  0.00    +0.000 A 
ATOM     11  N   UNL     1      -0.231  13.926  19.431  0.00  0.00    +0.000 NA
ATOM     12  C   UNL     1      -0.880  13.332  20.447  0.00  0.00    +0.000 A 
ATOM     13  N   UNL     1      -1.742  14.132  21.216  0.00  0.00    +0.000 N 
ATOM     14  N   UNL     1      -0.686  12.052  20.797  0.00  0.00    +0.000 NA
ATOM     15  C   UNL     1       0.173  11.347  20.050  0.00  0.00    +0.000 A 
ATOM     16  H   UNL     1      -1.151  14.745  21.751  0.00  0.00    +0.000 HD
ENDROOT
BRANCH  13  17
ATOM     17  C   UNL     1      -2.890  13.675  21.902  0.00  0.00    +0.000 A 
ATOM     18  C   UNL     1      -2.825  13.563  23.311  0.00  0.00    +0.000 A 
ATOM     19  C   UNL     1      -3.907  13.131  24.075  0.00  0.00    +0.000 A 
ATOM     20  C   UNL     1      -5.085  12.763  23.445  0.00  0.00    +0.000 A 
ATOM     21  C   UNL     1      -5.164  12.822  22.054  0.00  0.00    +0.000 A 
ATOM     22  C   UNL     1      -4.075  13.254  21.271  0.00  0.00    +0.000 A 
BRANCH  22  23
ATOM     23  O   UNL     1      -4.385  13.328  19.938  0.00  0.00    +0.000 OA
ATOM     24  C   UNL     1      -4.566  12.120  19.218  0.00  0.00    +0.000 C 
ENDBRANCH  22  23
ENDBRANCH  13  17
BRANCH   1  26
ATOM     25  N   UNL     1       1.927   6.293  18.901  0.00  0.00    +0.000 N 
ATOM     26  C   UNL     1       2.093   6.682  20.226  0.00  0.00    +0.000 C 
ATOM     27  O   UNL     1       2.692   6.060  21.103  0.00  0.00    +0.000 OA
ATOM     28  H   UNL     1       1.148   6.775  18.458  0.00  0.00    +0.000 HD
BRANCH  25  34
ATOM     29  C   UNL     1       1.744   3.865  18.611  0.00  0.00    +0.000 A 
ATOM     30  C   UNL     1       2.187   2.696  17.965  0.00  0.00    +0.000 A 
ATOM     31  C   UNL     1       3.273   2.725  17.096  0.00  0.00    +0.000 A 
ATOM     32  C   UNL     1       3.975   3.910  16.913  0.00  0.00    +0.000 A 
ATOM     33  C   UNL     1       3.581   5.098  17.562  0.00  0.00    +0.000 A 
ATOM     34  C   UNL     1       2.399   5.089  18.340  0.00  0.00    +0.000 A 
BRANCH  29  36
ATOM     35  C   UNL     1       1.290   2.883  20.886  0.00  0.00    +0.000 C 
ATOM     36  C   UNL     1       0.724   3.691  19.721  0.00  0.00    +0.000 C 
ENDBRANCH  29  36
BRANCH  33  37
ATOM     37  C   UNL     1       4.479   6.305  17.381  0.00  0.00    +0.000 C 
ATOM     38  C   UNL     1       5.135   6.412  16.012  0.00  0.00    +0.000 C 
ENDBRANCH  33  37
ENDBRANCH  25  34
ENDBRANCH   1  26
TORSDOF 6
ENDMDL
MODEL 5
REMARK VINA RESULT:      -8.3      2.573      3.944
REMARK  Name = 
REMARK  10 active torsions:
REMARK  status: ('A' for Active; 'I' for Inactive)
REMARK    1  A    between atoms: C_1  and  C_2
REMARK    2  A    between atoms: C_2  and  C_3
REMARK    3  A    between atoms: C_7  and  C_8
REMARK    4  A    between atoms: C_8  and  C_9
REMARK    5  A    between atoms: C_10  and  N_11
REMARK    6  A    between atoms: C_12  and  C_14
REMARK    7  A    between atoms: N_16  and  C_17
REMARK    8  A    between atoms: N_26  and  C_27
REMARK    9  A    between atoms: C_32  and  O_33
REMARK   10  A    between atoms: O_33  and  C_34
REMARK                            x       y       z     vdW  Elec       q    Type
REMARK                         _______ _______ _______ _____ _____    ______ ____
ROOT
ATOM      1  C   UNL     1       1.641   8.877  19.193  0.00  0.00    +0.000 A 
ATOM      2  N   UNL     1       1.724   9.947  18.369  0.00  0.00    +0.000 NA
ATOM      3  N   UNL     1       1.219  10.974  19.081  0.00  0.00    +0.000 N 
ATOM      4  C   UNL     1       0.957  12.221  18.399  0.00  0.00    +0.000 C 
ATOM      5  C   UNL     1       0.843  10.617  20.340  0.00  0.00    +0.000 A 
ATOM      6  C   UNL     1       1.082   9.258  20.442  0.00  0.00    +0.000 A 
ATOM      7  C   UNL     1       0.703   8.516  21.683  0.00  0.00    +0.000 C 
ATOM      8  C   UNL     1      -0.540   9.175  22.354  0.00  0.00    +0.000 C 
ATOM      9  C   UNL     1      -0.518  10.688  22.343  0.00  0.00    +0.000 A 
ATOM     10  C   UNL     1      -1.252  11.479  23.191  0.00  0.00    +0.000 A 
ATOM     11  N   UNL     1      -1.309  12.826  23.088  0.00  0.00    +0.000 NA
ATOM     12  C   UNL     1      -0.558  13.411  22.140  0.00  0.00    +0.000 A 
ATOM     13  N   UNL     1      -0.609  14.814  22.054  0.00  0.00    +0.000 N 
ATOM     14  N   UNL     1       0.166  12.724  21.245  0.00  0.00    +0.000 NA
ATOM     15  C   UNL     1       0.149  11.390  21.354  0.00  0.00    +0.000 A 
ATOM     16  H   UNL     1      -1.518  15.037  21.685  0.00  0.00    +0.000 HD
ENDROOT
BRANCH  13  17
ATOM     17  C   UNL     1       0.435  15.643  21.587  0.00  0.00    +0.000 A 
ATOM     18  C   UNL     1       1.437  16.037  22.506  0.00  0.00    +0.000 A 
ATOM     19  C   UNL     1       2.511  16.845  22.137  0.00  0.00    +0.000 A 
ATOM     20  C   UNL     1       2.597  17.315  20.836  0.00  0.00    +0.000 A 
ATOM     21  C   UNL     1       1.602  16.980  19.920  0.00  0.00    +0.000 A 
ATOM     22  C   UNL     1       0.510  16.166  20.282  0.00  0.00    +0.000 A 
BRANCH  22  23
ATOM     23  O   UNL     1      -0.304  15.877  19.218  0.00  0.00    +0.000 OA
ATOM     24  C   UNL     1      -0.520  16.881  18.240  0.00  0.00    +0.000 C 
ENDBRANCH  22  23
ENDBRANCH  13  17
BRANCH   1  26
ATOM     25  N   UNL     1       2.857   6.894  19.642  0.00  0.00    +0.000 N 
ATOM     26  C   UNL     1       2.067   7.547  18.703  0.00  0.00    +0.000 C 
ATOM     27  O   UNL     1       1.782   7.143  17.576  0.00  0.00    +0.000 OA
ATOM     28  H   UNL     1       3.219   7.533  20.346  0.00  0.00    +0.000 HD
BRANCH  25  34
ATOM     29  C   UNL     1       4.671   5.565  18.662  0.00  0.00    +0.000 A 
ATOM     30  C   UNL     1       5.333   4.328  18.561  0.00  0.00    +0.000 A 
ATOM     31  C   UNL     1       4.834   3.193  19.191  0.00  0.00    +0.000 A 
ATOM     32  C   UNL     1       3.627   3.263  19.876  0.00  0.00    +0.000 A 
ATOM     33  C   UNL     1       2.917   4.477  19.979  0.00  0.00    +0.000 A 
ATOM     34  C   UNL     1       3.497   5.653  19.447  0.00  0.00    +0.000 A 
BRANCH  29  36
ATOM     35  C   UNL     1       5.049   6.274  16.275  0.00  0.00    +0.000 C 
ATOM     36  C   UNL     1       5.147   6.676  17.745  0.00  0.00    +0.000 C 
ENDBRANCH  29  36
BRANCH  33  37
ATOM     37  C   UNL     1       1.560   4.418  20.651  0.00  0.00    +0.000 C 
ATOM     38  C   UNL     1       1.159   3.042  21.161  0.00  0.00    +0.000 C 
ENDBRANCH  33  37
ENDBRANCH  25  34
ENDBRANCH   1  26
TORSDOF 6
ENDMDL
MODEL 6
REMARK VINA RESULT:      -8.1      2.763      4.264
REMARK  Name = 
REMARK  10 active torsions:
REMARK  status: ('A' for Active; 'I' for Inactive)
REMARK    1  A    between atoms: C_1  and  C_2
REMARK    2  A    between atoms: C_2  and  C_3
REMARK    3  A    between atoms: C_7  and  C_8
REMARK    4  A    between atoms: C_8  and  C_9
REMARK    5  A    between atoms: C_10  and  N_11
REMARK    6  A    between atoms: C_12  and  C_14
REMARK    7  A    between atoms: N_16  and  C_17
REMARK    8  A    between atoms: N_26  and  C_27
REMARK    9  A    between atoms: C_32  and  O_33
REMARK   10  A    between atoms: O_33  and  C_34
REMARK                            x       y       z     vdW  Elec       q    Type
REMARK                         _______ _______ _______ _____ _____    ______ ____
ROOT
ATOM      1  C   UNL     1       1.650   8.823  19.213  0.00  0.00    +0.000 A 
ATOM      2  N   UNL     1       1.728   9.891  18.386  0.00  0.00    +0.000 NA
ATOM      3  N   UNL     1       1.218  10.918  19.095  0.00  0.00    +0.000 N 
ATOM      4  C   UNL     1       0.950  12.162  18.411  0.00  0.00    +0.000 C 
ATOM      5  C   UNL     1       0.844  10.562  20.356  0.00  0.00    +0.000 A 
ATOM      6  C   UNL     1       1.089   9.205  20.461  0.00  0.00    +0.000 A 
ATOM      7  C   UNL     1       0.714   8.464  21.705  0.00  0.00    +0.000 C 
ATOM      8  C   UNL     1      -0.532   9.120  22.373  0.00  0.00    +0.000 C 
ATOM      9  C   UNL     1      -0.517  10.632  22.359  0.00  0.00    +0.000 A 
ATOM     10  C   UNL     1      -1.255  11.422  23.205  0.00  0.00    +0.000 A 
ATOM     11  N   UNL     1      -1.319  12.768  23.098  0.00  0.00    +0.000 NA
ATOM     12  C   UNL     1      -0.570  13.355  22.149  0.00  0.00    +0.000 A 
ATOM     13  N   UNL     1      -0.628  14.756  22.058  0.00  0.00    +0.000 N 
ATOM     14  N   UNL     1       0.157  12.669  21.255  0.00  0.00    +0.000 NA
ATOM     15  C   UNL     1       0.146  11.335  21.368  0.00  0.00    +0.000 A 
ATOM     16  H   UNL     1      -1.538  14.975  21.690  0.00  0.00    +0.000 HD
ENDROOT
BRANCH  13  17
ATOM     17  C   UNL     1       0.412  15.590  21.589  0.00  0.00    +0.000 A 
ATOM     18  C   UNL     1       0.536  15.782  20.192  0.00  0.00    +0.000 A 
ATOM     19  C   UNL     1       1.522  16.593  19.635  0.00  0.00    +0.000 A 
ATOM     20  C   UNL     1       2.443  17.215  20.463  0.00  0.00    +0.000 A 
ATOM     21  C   UNL     1       2.373  17.010  21.841  0.00  0.00    +0.000 A 
ATOM     22  C   UNL     1       1.382  16.189  22.415  0.00  0.00    +0.000 A 
BRANCH  22  23
ATOM     23  O   UNL     1       1.427  16.192  23.784  0.00  0.00    +0.000 OA
ATOM     24  C   UNL     1       0.783  17.249  24.479  0.00  0.00    +0.000 C 
ENDBRANCH  22  23
ENDBRANCH  13  17
BRANCH   1  26
ATOM     25  N   UNL     1       2.868   6.843  19.671  0.00  0.00    +0.000 N 
ATOM     26  C   UNL     1       2.082   7.494  18.727  0.00  0.00    +0.000 C 
ATOM     27  O   UNL     1       1.806   7.088  17.598  0.00  0.00    +0.000 OA
ATOM     28  H   UNL     1       3.223   7.483  20.377  0.00  0.00    +0.000 HD
BRANCH  25  34
ATOM     29  C   UNL     1       4.706   5.522  18.727  0.00  0.00    +0.000 A 
ATOM     30  C   UNL     1       5.370   4.285  18.632  0.00  0.00    +0.000 A 
ATOM     31  C   UNL     1       4.853   3.145  19.236  0.00  0.00    +0.000 A 
ATOM     32  C   UNL     1       3.627   3.209  19.889  0.00  0.00    +0.000 A 
ATOM     33  C   UNL     1       2.916   4.422  19.985  0.00  0.00    +0.000 A 
ATOM     34  C   UNL     1       3.512   5.603  19.481  0.00  0.00    +0.000 A 
BRANCH  29  36
ATOM     35  C   UNL     1       5.042   6.301  16.356  0.00  0.00    +0.000 C 
ATOM     36  C   UNL     1       5.208   6.642  17.835  0.00  0.00    +0.000 C 
ENDBRANCH  29  36
BRANCH  33  37
ATOM     37  C   UNL     1       1.541   4.358  20.620  0.00  0.00    +0.000 C 
ATOM     38  C   UNL     1       1.208   3.033  21.289  0.00  0.00    +0.000 C 
ENDBRANCH  33  37
ENDBRANCH  25  34
ENDBRANCH   1  26
TORSDOF 6
ENDMDL
MODEL 7
REMARK VINA RESULT:      -8.1      2.561      4.466
REMARK  Name = 
REMARK  10 active torsions:
REMARK  status: ('A' for Active; 'I' for Inactive)
REMARK    1  A    between atoms: C_1  and  C_2
REMARK    2  A    between atoms: C_2  and  C_3
REMARK    3  A    between atoms: C_7  and  C_8
REMARK    4  A    between atoms: C_8  and  C_9
REMARK    5  A    between atoms: C_10  and  N_11
REMARK    6  A    between atoms: C_12  and  C_14
REMARK    7  A    between atoms: N_16  and  C_17
REMARK    8  A    between atoms: N_26  and  C_27
REMARK    9  A    between atoms: C_32  and  O_33
REMARK   10  A    between atoms: O_33  and  C_34
REMARK                            x       y       z     vdW  Elec       q    Type
REMARK                         _______ _______ _______ _____ _____    ______ ____
ROOT
ATOM      1  C   UNL     1       1.704   8.662  19.134  0.00  0.00    +0.000 A 
ATOM      2  N   UNL     1       1.811   9.726  18.306  0.00  0.00    +0.000 NA
ATOM      3  N   UNL     1       1.324  10.766  19.011  0.00  0.00    +0.000 N 
ATOM      4  C   UNL     1       1.090  12.015  18.322  0.00  0.00    +0.000 C 
ATOM      5  C   UNL     1       0.935  10.423  20.270  0.00  0.00    +0.000 A 
ATOM      6  C   UNL     1       1.146   9.060  20.378  0.00  0.00    +0.000 A 
ATOM      7  C   UNL     1       0.747   8.331  21.622  0.00  0.00    +0.000 C 
ATOM      8  C   UNL     1      -0.486   9.018  22.283  0.00  0.00    +0.000 C 
ATOM      9  C   UNL     1      -0.434  10.530  22.266  0.00  0.00    +0.000 A 
ATOM     10  C   UNL     1      -1.156  11.339  23.107  0.00  0.00    +0.000 A 
ATOM     11  N   UNL     1      -1.186  12.686  22.998  0.00  0.00    +0.000 NA
ATOM     12  C   UNL     1      -0.419  13.252  22.051  0.00  0.00    +0.000 A 
ATOM     13  N   UNL     1      -0.441  14.655  21.958  0.00  0.00    +0.000 N 
ATOM     14  N   UNL     1       0.296  12.547  21.162  0.00  0.00    +0.000 NA
ATOM     15  C   UNL     1       0.252  11.214  21.277  0.00  0.00    +0.000 A 
ATOM     16  H   UNL     1      -1.344  14.895  21.585  0.00  0.00    +0.000 HD
ENDROOT
BRANCH  13  17
ATOM     17  C   UNL     1       0.621  15.462  21.493  0.00  0.00    +0.000 A 
ATOM     18  C   UNL     1       1.633  15.828  22.411  0.00  0.00    +0.000 A 
ATOM     19  C   UNL     1       2.725  16.613  22.044  0.00  0.00    +0.000 A 
ATOM     20  C   UNL     1       2.821  17.085  20.745  0.00  0.00    +0.000 A 
ATOM     21  C   UNL     1       1.816  16.776  19.828  0.00  0.00    +0.000 A 
ATOM     22  C   UNL     1       0.706  15.987  20.189  0.00  0.00    +0.000 A 
BRANCH  22  23
ATOM     23  O   UNL     1      -0.116  15.721  19.126  0.00  0.00    +0.000 OA
ATOM     24  C   UNL     1      -0.485  16.793  18.273  0.00  0.00    +0.000 C 
ENDBRANCH  22  23
ENDBRANCH  13  17
BRANCH   1  26
ATOM     25  N   UNL     1       2.877   6.657  19.598  0.00  0.00    +0.000 N 
ATOM     26  C   UNL     1       2.105   7.322  18.652  0.00  0.00    +0.000 C 
ATOM     27  O   UNL     1       1.818   6.918  17.525  0.00  0.00    +0.000 OA
ATOM     28  H   UNL     1       3.248   7.292  20.301  0.00  0.00    +0.000 HD
BRANCH  25  34
ATOM     29  C   UNL     1       2.999   4.253  20.070  0.00  0.00    +0.000 A 
ATOM     30  C   UNL     1       3.582   3.003  19.793  0.00  0.00    +0.000 A 
ATOM     31  C   UNL     1       4.651   2.890  18.910  0.00  0.00    +0.000 A 
ATOM     32  C   UNL     1       5.198   4.036  18.344  0.00  0.00    +0.000 A 
ATOM     33  C   UNL     1       4.661   5.310  18.616  0.00  0.00    +0.000 A 
ATOM     34  C   UNL     1       3.493   5.403  19.411  0.00  0.00    +0.000 A 
BRANCH  29  36
ATOM     35  C   UNL     1       1.580   2.914  21.663  0.00  0.00    +0.000 C 
ATOM     36  C   UNL     1       2.014   4.311  21.223  0.00  0.00    +0.000 C 
ENDBRANCH  29  36
BRANCH  33  37
ATOM     37  C   UNL     1       5.400   6.500  18.037  0.00  0.00    +0.000 C 
ATOM     38  C   UNL     1       5.242   6.679  16.534  0.00  0.00    +0.000 C 
ENDBRANCH  33  37
ENDBRANCH  25  34
ENDBRANCH   1  26
TORSDOF 6
ENDMDL
MODEL 8
REMARK VINA RESULT:      -8.0      2.140      3.834
REMARK  Name = 
REMARK  10 active torsions:
REMARK  status: ('A' for Active; 'I' for Inactive)
REMARK    1  A    between atoms: C_1  and  C_2
REMARK    2  A    between atoms: C_2  and  C_3
REMARK    3  A    between atoms: C_7  and  C_8
REMARK    4  A    between atoms: C_8  and  C_9
REMARK    5  A    between atoms: C_10  and  N_11
REMARK    6  A    between atoms: C_12  and  C_14
REMARK    7  A    between atoms: N_16  and  C_17
REMARK    8  A    between atoms: N_26  and  C_27
REMARK    9  A    between atoms: C_32  and  O_33
REMARK   10  A    between atoms: O_33  and  C_34
REMARK                            x       y       z     vdW  Elec       q    Type
REMARK                         _______ _______ _______ _____ _____    ______ ____
ROOT
ATOM      1  C   UNL     1       1.821   8.390  19.728  0.00  0.00    +0.000 A 
ATOM      2  N   UNL     1       1.751   9.263  18.696  0.00  0.00    +0.000 NA
ATOM      3  N   UNL     1       1.089  10.329  19.187  0.00  0.00    +0.000 N 
ATOM      4  C   UNL     1       0.649  11.352  18.265  0.00  0.00    +0.000 C 
ATOM      5  C   UNL     1       0.755  10.193  20.501  0.00  0.00    +0.000 A 
ATOM      6  C   UNL     1       1.195   8.937  20.880  0.00  0.00    +0.000 A 
ATOM      7  C   UNL     1       0.919   8.423  22.257  0.00  0.00    +0.000 C 
ATOM      8  C   UNL     1      -0.418   9.015  22.799  0.00  0.00    +0.000 C 
ATOM      9  C   UNL     1      -0.625  10.477  22.472  0.00  0.00    +0.000 A 
ATOM     10  C   UNL     1      -1.481  11.309  23.149  0.00  0.00    +0.000 A 
ATOM     11  N   UNL     1      -1.740  12.580  22.768  0.00  0.00    +0.000 NA
ATOM     12  C   UNL     1      -1.074  13.059  21.704  0.00  0.00    +0.000 A 
ATOM     13  N   UNL     1      -1.335  14.388  21.326  0.00  0.00    +0.000 N 
ATOM     14  N   UNL     1      -0.244  12.316  20.957  0.00  0.00    +0.000 NA
ATOM     15  C   UNL     1      -0.060  11.048  21.344  0.00  0.00    +0.000 A 
ATOM     16  H   UNL     1      -2.263  14.390  20.938  0.00  0.00    +0.000 HD
ENDROOT
BRANCH  13  17
ATOM     17  C   UNL     1      -0.423  15.249  20.676  0.00  0.00    +0.000 A 
ATOM     18  C   UNL     1      -0.649  15.553  19.312  0.00  0.00    +0.000 A 
ATOM     19  C   UNL     1       0.189  16.399  18.588  0.00  0.00    +0.000 A 
ATOM     20  C   UNL     1       1.305  16.944  19.202  0.00  0.00    +0.000 A 
ATOM     21  C   UNL     1       1.578  16.627  20.533  0.00  0.00    +0.000 A 
ATOM     22  C   UNL     1       0.739  15.770  21.273  0.00  0.00    +0.000 A 
BRANCH  22  23
ATOM     23  O   UNL     1       1.127  15.662  22.583  0.00  0.00    +0.000 OA
ATOM     24  C   UNL     1       1.647  16.811  23.231  0.00  0.00    +0.000 C 
ENDBRANCH  22  23
ENDBRANCH  13  17
BRANCH   1  26
ATOM     25  N   UNL     1       3.071   6.995  18.277  0.00  0.00    +0.000 N 
ATOM     26  C   UNL     1       2.450   7.067  19.518  0.00  0.00    +0.000 C 
ATOM     27  O   UNL     1       2.353   6.159  20.344  0.00  0.00    +0.000 OA
ATOM     28  H   UNL     1       2.754   7.730  17.650  0.00  0.00    +0.000 HD
BRANCH  25  34
ATOM     29  C   UNL     1       5.032   5.873  17.323  0.00  0.00    +0.000 A 
ATOM     30  C   UNL     1       5.633   4.684  16.870  0.00  0.00    +0.000 A 
ATOM     31  C   UNL     1       4.908   3.499  16.792  0.00  0.00    +0.000 A 
ATOM     32  C   UNL     1       3.554   3.501  17.102  0.00  0.00    +0.000 A 
ATOM     33  C   UNL     1       2.907   4.676  17.534  0.00  0.00    +0.000 A 
ATOM     34  C   UNL     1       3.680   5.845  17.735  0.00  0.00    +0.000 A 
BRANCH  29  36
ATOM     35  C   UNL     1       7.291   6.970  17.511  0.00  0.00    +0.000 C 
ATOM     36  C   UNL     1       5.822   7.155  17.137  0.00  0.00    +0.000 C 
ENDBRANCH  29  36
BRANCH  33  37
ATOM     37  C   UNL     1       1.407   4.594  17.738  0.00  0.00    +0.000 C 
ATOM     38  C   UNL     1       0.941   3.412  18.576  0.00  0.00    +0.000 C 
ENDBRANCH  33  37
ENDBRANCH  25  34
ENDBRANCH   1  26
TORSDOF 6
ENDMDL
MODEL 9
REMARK VINA RESULT:      -7.9      1.927      2.485
REMARK  Name = 
REMARK  10 active torsions:
REMARK  status: ('A' for Active; 'I' for Inactive)
REMARK    1  A    between atoms: C_1  and  C_2
REMARK    2  A    between atoms: C_2  and  C_3
REMARK    3  A    between atoms: C_7  and  C_8
REMARK    4  A    between atoms: C_8  and  C_9
REMARK    5  A    between atoms: C_10  and  N_11
REMARK    6  A    between atoms: C_12  and  C_14
REMARK    7  A    between atoms: N_16  and  C_17
REMARK    8  A    between atoms: N_26  and  C_27
REMARK    9  A    between atoms: C_32  and  O_33
REMARK   10  A    between atoms: O_33  and  C_34
REMARK                            x       y       z     vdW  Elec       q    Type
REMARK                         _______ _______ _______ _____ _____    ______ ____
ROOT
ATOM      1  C   UNL     1       1.511   8.441  19.699  0.00  0.00    +0.000 A 
ATOM      2  N   UNL     1       1.052   8.449  20.971  0.00  0.00    +0.000 NA
ATOM      3  N   UNL     1       0.751   9.738  21.225  0.00  0.00    +0.000 N 
ATOM      4  C   UNL     1       0.445  10.119  22.585  0.00  0.00    +0.000 C 
ATOM      5  C   UNL     1       0.969  10.557  20.158  0.00  0.00    +0.000 A 
ATOM      6  C   UNL     1       1.483   9.753  19.156  0.00  0.00    +0.000 A 
ATOM      7  C   UNL     1       1.913  10.352  17.855  0.00  0.00    +0.000 C 
ATOM      8  C   UNL     1       2.420  11.810  18.068  0.00  0.00    +0.000 C 
ATOM      9  C   UNL     1       1.591  12.616  19.044  0.00  0.00    +0.000 A 
ATOM     10  C   UNL     1       1.573  13.988  19.098  0.00  0.00    +0.000 A 
ATOM     11  N   UNL     1       0.918  14.686  20.052  0.00  0.00    +0.000 NA
ATOM     12  C   UNL     1       0.204  13.991  20.953  0.00  0.00    +0.000 A 
ATOM     13  N   UNL     1      -0.490  14.726  21.930  0.00  0.00    +0.000 N 
ATOM     14  N   UNL     1       0.184  12.651  21.004  0.00  0.00    +0.000 NA
ATOM     15  C   UNL     1       0.891  12.003  20.069  0.00  0.00    +0.000 A 
ATOM     16  H   UNL     1       0.211  15.099  22.548  0.00  0.00    +0.000 HD
ENDROOT
BRANCH  13  17
ATOM     17  C   UNL     1      -1.681  14.318  22.570  0.00  0.00    +0.000 A 
ATOM     18  C   UNL     1      -2.727  13.802  21.769  0.00  0.00    +0.000 A 
ATOM     19  C   UNL     1      -3.935  13.364  22.310  0.00  0.00    +0.000 A 
ATOM     20  C   UNL     1      -4.147  13.461  23.676  0.00  0.00    +0.000 A 
ATOM     21  C   UNL     1      -3.150  14.005  24.486  0.00  0.00    +0.000 A 
ATOM     22  C   UNL     1      -1.927  14.454  23.950  0.00  0.00    +0.000 A 
BRANCH  22  23
ATOM     23  O   UNL     1      -1.050  14.866  24.918  0.00  0.00    +0.000 OA
ATOM     24  C   UNL     1      -1.539  15.683  25.969  0.00  0.00    +0.000 C 
ENDBRANCH  22  23
ENDBRANCH  13  17
BRANCH   1  26
ATOM     25  N   UNL     1       2.751   6.447  20.015  0.00  0.00    +0.000 N 
ATOM     26  C   UNL     1       1.989   7.172  19.106  0.00  0.00    +0.000 C 
ATOM     27  O   UNL     1       1.764   6.871  17.934  0.00  0.00    +0.000 OA
ATOM     28  H   UNL     1       3.067   7.024  20.792  0.00  0.00    +0.000 HD
BRANCH  25  34
ATOM     29  C   UNL     1       4.614   5.248  18.963  0.00  0.00    +0.000 A 
ATOM     30  C   UNL     1       5.312   4.040  18.777  0.00  0.00    +0.000 A 
ATOM     31  C   UNL     1       4.836   2.847  19.310  0.00  0.00    +0.000 A 
ATOM     32  C   UNL     1       3.618   2.832  19.979  0.00  0.00    +0.000 A 
ATOM     33  C   UNL     1       2.874   4.014  20.165  0.00  0.00    +0.000 A 
ATOM     34  C   UNL     1       3.428   5.243  19.735  0.00  0.00    +0.000 A 
BRANCH  29  36
ATOM     35  C   UNL     1       4.976   6.162  16.645  0.00  0.00    +0.000 C 
ATOM     36  C   UNL     1       5.072   6.439  18.143  0.00  0.00    +0.000 C 
ENDBRANCH  29  36
BRANCH  33  37
ATOM     37  C   UNL     1       1.510   3.868  20.810  0.00  0.00    +0.000 C 
ATOM     38  C   UNL     1       1.351   2.640  21.694  0.00  0.00    +0.000 C 
ENDBRANCH  33  37
ENDBRANCH  25  34
ENDBRANCH   1  26
TORSDOF 6
ENDMDL
