MODEL 1
REMARK VINA RESULT:      -8.3      0.000      0.000
REMARK  Name = 
REMARK  8 active torsions:
REMARK  status: ('A' for Active; 'I' for Inactive)
REMARK    1  A    between atoms: C_1  and  C_2
REMARK    2  A    between atoms: C_5  and  N_6
REMARK    3  A    between atoms: N_9  and  C_10
REMARK    4  A    between atoms: C_12  and  C_13
REMARK    5  A    between atoms: C_13  and  C_14
REMARK    6  A    between atoms: C_13  and  C_15
REMARK    7  A    between atoms: C_13  and  C_16
REMARK    8  A    between atoms: N_18  and  C_19
REMARK                            x       y       z     vdW  Elec       q    Type
REMARK                         _______ _______ _______ _____ _____    ______ ____
ROOT
ATOM      1  C   UNL     1       3.347   6.823  18.034  0.00  0.00    +0.000 A 
ATOM      2  C   UNL     1       4.546   7.148  17.441  0.00  0.00    +0.000 A 
ATOM      3  C   UNL     1       5.414   6.062  17.714  0.00  0.00    +0.000 A 
ATOM      4  N   UNL     1       4.823   5.174  18.527  0.00  0.00    +0.000 NA
ATOM      5  N   UNL     1       3.523   5.563  18.586  0.00  0.00    +0.000 N 
ENDROOT
BRANCH   1   9
ATOM      6  N   UNL     1       0.693   9.024  19.077  0.00  0.00    +0.000 N 
ATOM      7  C   UNL     1       1.764   8.197  19.247  0.00  0.00    +0.000 C 
ATOM      8  O   UNL     1       2.395   7.971  20.267  0.00  0.00    +0.000 OA
ATOM      9  N   UNL     1       2.189   7.609  18.023  0.00  0.00    +0.000 N 
ATOM     10  H   UNL     1       0.108   8.914  18.261  0.00  0.00    +0.000 HD
ATOM     11  H   UNL     1       1.855   7.957  17.135  0.00  0.00    +0.000 HD
BRANCH   6  16
ATOM     12  C   UNL     1      -1.292  12.616  23.090  0.00  0.00    +0.000 C 
ATOM     13  C   UNL     1      -0.763  11.673  22.052  0.00  0.00    +0.000 A 
ATOM     14  C   UNL     1      -0.637  10.312  22.331  0.00  0.00    +0.000 A 
ATOM     15  C   UNL     1      -0.150   9.434  21.361  0.00  0.00    +0.000 A 
ATOM     16  C   UNL     1       0.216   9.894  20.091  0.00  0.00    +0.000 A 
ATOM     17  C   UNL     1       0.123  11.262  19.819  0.00  0.00    +0.000 A 
ATOM     18  C   UNL     1      -0.377  12.142  20.790  0.00  0.00    +0.000 A 
ENDBRANCH   6  16
ENDBRANCH   1   9
BRANCH   5  19
ATOM     19  C   UNL     1       2.518   4.665  19.037  0.00  0.00    +0.000 A 
ATOM     20  C   UNL     1       2.244   4.565  20.406  0.00  0.00    +0.000 A 
ATOM     21  C   UNL     1       1.283   3.657  20.858  0.00  0.00    +0.000 A 
ATOM     22  C   UNL     1       0.620   2.827  19.955  0.00  0.00    +0.000 A 
ATOM     23  C   UNL     1       0.912   2.901  18.596  0.00  0.00    +0.000 A 
ATOM     24  C   UNL     1       1.854   3.820  18.134  0.00  0.00    +0.000 A 
ENDBRANCH   5  19
BRANCH   3  25
ATOM     25  C   UNL     1       6.839   5.872  17.202  0.00  0.00    +0.000 C 
ATOM     26  C   UNL     1       7.630   7.187  17.339  0.00  0.00    +0.000 C 
ATOM     27  C   UNL     1       7.595   4.767  17.970  0.00  0.00    +0.000 C 
ATOM     28  C   UNL     1       6.820   5.464  15.711  0.00  0.00    +0.000 C 
ENDBRANCH   3  25
TORSDOF 4
ENDMDL
MODEL 2
REMARK VINA RESULT:      -8.2      1.391      1.551
REMARK  Name = 
REMARK  8 active torsions:
REMARK  status: ('A' for Active; 'I' for Inactive)
REMARK    1  A    between atoms: C_1  and  C_2
REMARK    2  A    between atoms: C_5  and  N_6
REMARK    3  A    between atoms: N_9  and  C_10
REMARK    4  A    between atoms: C_12  and  C_13
REMARK    5  A    between atoms: C_13  and  C_14
REMARK    6  A    between atoms: C_13  and  C_15
REMARK    7  A    between atoms: C_13  and  C_16
REMARK    8  A    between atoms: N_18  and  C_19
REMARK                            x       y       z     vdW  Elec       q    Type
REMARK                         _______ _______ _______ _____ _____    ______ ____
ROOT
ATOM      1  C   UNL     1       3.598   6.807  17.849  0.00  0.00    +0.000 A 
ATOM      2  C   UNL     1       4.901   7.103  17.522  0.00  0.00    +0.000 A 
ATOM      3  C   UNL     1       5.692   6.138  18.193  0.00  0.00    +0.000 A 
ATOM      4  N   UNL     1       4.932   5.365  18.982  0.00  0.00    +0.000 NA
ATOM      5  N   UNL     1       3.651   5.673  18.647  0.00  0.00    +0.000 N 
ENDROOT
BRANCH   1   9
ATOM      6  N   UNL     1       0.791   9.062  17.748  0.00  0.00    +0.000 N 
ATOM      7  C   UNL     1       1.806   8.363  18.331  0.00  0.00    +0.000 C 
ATOM      8  O   UNL     1       2.221   8.440  19.477  0.00  0.00    +0.000 OA
ATOM      9  N   UNL     1       2.465   7.503  17.410  0.00  0.00    +0.000 N 
ATOM     10  H   UNL     1       0.379   8.716  16.893  0.00  0.00    +0.000 HD
ATOM     11  H   UNL     1       2.314   7.593  16.415  0.00  0.00    +0.000 HD
BRANCH   6  16
ATOM     12  C   UNL     1      -2.013  13.337  20.359  0.00  0.00    +0.000 C 
ATOM     13  C   UNL     1      -1.272  12.230  19.670  0.00  0.00    +0.000 A 
ATOM     14  C   UNL     1       0.121  12.182  19.706  0.00  0.00    +0.000 A 
ATOM     15  C   UNL     1       0.809  11.148  19.069  0.00  0.00    +0.000 A 
ATOM     16  C   UNL     1       0.121  10.137  18.387  0.00  0.00    +0.000 A 
ATOM     17  C   UNL     1      -1.273  10.201  18.321  0.00  0.00    +0.000 A 
ATOM     18  C   UNL     1      -1.964  11.234  18.971  0.00  0.00    +0.000 A 
ENDBRANCH   6  16
ENDBRANCH   1   9
BRANCH   5  19
ATOM     19  C   UNL     1       2.583   4.803  18.991  0.00  0.00    +0.000 A 
ATOM     20  C   UNL     1       2.049   4.840  20.285  0.00  0.00    +0.000 A 
ATOM     21  C   UNL     1       1.023   3.961  20.640  0.00  0.00    +0.000 A 
ATOM     22  C   UNL     1       0.552   3.023  19.721  0.00  0.00    +0.000 A 
ATOM     23  C   UNL     1       1.102   2.960  18.444  0.00  0.00    +0.000 A 
ATOM     24  C   UNL     1       2.111   3.850  18.074  0.00  0.00    +0.000 A 
ENDBRANCH   5  19
BRANCH   3  25
ATOM     25  C   UNL     1       7.204   5.956  18.091  0.00  0.00    +0.000 C 
ATOM     26  C   UNL     1       7.847   7.212  17.473  0.00  0.00    +0.000 C 
ATOM     27  C   UNL     1       7.856   5.702  19.466  0.00  0.00    +0.000 C 
ATOM     28  C   UNL     1       7.536   4.742  17.194  0.00  0.00    +0.000 C 
ENDBRANCH   3  25
TORSDOF 4
ENDMDL
MODEL 3
REMARK VINA RESULT:      -8.2      0.106      1.263
REMARK  Name = 
REMARK  8 active torsions:
REMARK  status: ('A' for Active; 'I' for Inactive)
REMARK    1  A    between atoms: C_1  and  C_2
REMARK    2  A    between atoms: C_5  and  N_6
REMARK    3  A    between atoms: N_9  and  C_10
REMARK    4  A    between atoms: C_12  and  C_13
REMARK    5  A    between atoms: C_13  and  C_14
REMARK    6  A    between atoms: C_13  and  C_15
REMARK    7  A    between atoms: C_13  and  C_16
REMARK    8  A    between atoms: N_18  and  C_19
REMARK                            x       y       z     vdW  Elec       q    Type
REMARK                         _______ _______ _______ _____ _____    ______ ____
ROOT
ATOM      1  C   UNL     1       3.345   6.826  17.990  0.00  0.00    +0.000 A 
ATOM      2  C   UNL     1       4.555   7.160  17.425  0.00  0.00    +0.000 A 
ATOM      3  C   UNL     1       5.424   6.079  17.716  0.00  0.00    +0.000 A 
ATOM      4  N   UNL     1       4.821   5.187  18.516  0.00  0.00    +0.000 NA
ATOM      5  N   UNL     1       3.516   5.566  18.545  0.00  0.00    +0.000 N 
ENDROOT
BRANCH   1   9
ATOM      6  N   UNL     1       0.674   9.039  18.962  0.00  0.00    +0.000 N 
ATOM      7  C   UNL     1       1.749   8.224  19.158  0.00  0.00    +0.000 C 
ATOM      8  O   UNL     1       2.378   8.030  20.187  0.00  0.00    +0.000 OA
ATOM      9  N   UNL     1       2.181   7.604  17.953  0.00  0.00    +0.000 N 
ATOM     10  H   UNL     1       0.092   8.903  18.148  0.00  0.00    +0.000 HD
ATOM     11  H   UNL     1       1.848   7.925  17.055  0.00  0.00    +0.000 HD
BRANCH   6  16
ATOM     12  C   UNL     1      -1.235  12.592  23.046  0.00  0.00    +0.000 C 
ATOM     13  C   UNL     1      -0.747  11.669  21.970  0.00  0.00    +0.000 A 
ATOM     14  C   UNL     1      -0.453  12.159  20.697  0.00  0.00    +0.000 A 
ATOM     15  C   UNL     1       0.007  11.299  19.698  0.00  0.00    +0.000 A 
ATOM     16  C   UNL     1       0.188   9.934  19.950  0.00  0.00    +0.000 A 
ATOM     17  C   UNL     1      -0.138   9.435  21.214  0.00  0.00    +0.000 A 
ATOM     18  C   UNL     1      -0.588  10.301  22.220  0.00  0.00    +0.000 A 
ENDBRANCH   6  16
ENDBRANCH   1   9
BRANCH   5  19
ATOM     19  C   UNL     1       2.508   4.662  18.973  0.00  0.00    +0.000 A 
ATOM     20  C   UNL     1       2.151   4.613  20.326  0.00  0.00    +0.000 A 
ATOM     21  C   UNL     1       1.186   3.699  20.758  0.00  0.00    +0.000 A 
ATOM     22  C   UNL     1       0.602   2.813  19.853  0.00  0.00    +0.000 A 
ATOM     23  C   UNL     1       0.977   2.837  18.513  0.00  0.00    +0.000 A 
ATOM     24  C   UNL     1       1.923   3.761  18.069  0.00  0.00    +0.000 A 
ENDBRANCH   5  19
BRANCH   3  25
ATOM     25  C   UNL     1       6.860   5.899  17.237  0.00  0.00    +0.000 C 
ATOM     26  C   UNL     1       7.586   4.863  18.117  0.00  0.00    +0.000 C 
ATOM     27  C   UNL     1       6.933   5.427  15.769  0.00  0.00    +0.000 C 
ATOM     28  C   UNL     1       7.625   7.240  17.326  0.00  0.00    +0.000 C 
ENDBRANCH   3  25
TORSDOF 4
ENDMDL
MODEL 4
REMARK VINA RESULT:      -8.2      0.109      1.266
REMARK  Name = 
REMARK  8 active torsions:
REMARK  status: ('A' for Active; 'I' for Inactive)
REMARK    1  A    between atoms: C_1  and  C_2
REMARK    2  A    between atoms: C_5  and  N_6
REMARK    3  A    between atoms: N_9  and  C_10
REMARK    4  A    between atoms: C_12  and  C_13
REMARK    5  A    between atoms: C_13  and  C_14
REMARK    6  A    between atoms: C_13  and  C_15
REMARK    7  A    between atoms: C_13  and  C_16
REMARK    8  A    between atoms: N_18  and  C_19
REMARK                            x       y       z     vdW  Elec       q    Type
REMARK                         _______ _______ _______ _____ _____    ______ ____
ROOT
ATOM      1  C   UNL     1       3.373   6.730  18.079  0.00  0.00    +0.000 A 
ATOM      2  C   UNL     1       4.559   7.076  17.472  0.00  0.00    +0.000 A 
ATOM      3  C   UNL     1       5.452   6.009  17.743  0.00  0.00    +0.000 A 
ATOM      4  N   UNL     1       4.888   5.115  18.568  0.00  0.00    +0.000 NA
ATOM      5  N   UNL     1       3.580   5.477  18.638  0.00  0.00    +0.000 N 
ENDROOT
BRANCH   1   9
ATOM      6  N   UNL     1       0.692   8.894  19.129  0.00  0.00    +0.000 N 
ATOM      7  C   UNL     1       1.782   8.093  19.294  0.00  0.00    +0.000 C 
ATOM      8  O   UNL     1       2.435   7.898  20.307  0.00  0.00    +0.000 OA
ATOM      9  N   UNL     1       2.198   7.492  18.074  0.00  0.00    +0.000 N 
ATOM     10  H   UNL     1       0.095   8.758  18.325  0.00  0.00    +0.000 HD
ATOM     11  H   UNL     1       1.842   7.817  17.186  0.00  0.00    +0.000 HD
BRANCH   6  16
ATOM     12  C   UNL     1      -1.299  12.517  23.112  0.00  0.00    +0.000 C 
ATOM     13  C   UNL     1      -0.768  11.566  22.081  0.00  0.00    +0.000 A 
ATOM     14  C   UNL     1      -0.606  10.214  22.383  0.00  0.00    +0.000 A 
ATOM     15  C   UNL     1      -0.117   9.329  21.421  0.00  0.00    +0.000 A 
ATOM     16  C   UNL     1       0.214   9.773  20.135  0.00  0.00    +0.000 A 
ATOM     17  C   UNL     1       0.084  11.133  19.840  0.00  0.00    +0.000 A 
ATOM     18  C   UNL     1      -0.418  12.019  20.804  0.00  0.00    +0.000 A 
ENDBRANCH   6  16
ENDBRANCH   1   9
BRANCH   5  19
ATOM     19  C   UNL     1       2.599   4.562  19.105  0.00  0.00    +0.000 A 
ATOM     20  C   UNL     1       1.852   3.818  18.183  0.00  0.00    +0.000 A 
ATOM     21  C   UNL     1       0.860   2.944  18.635  0.00  0.00    +0.000 A 
ATOM     22  C   UNL     1       0.587   2.835  19.998  0.00  0.00    +0.000 A 
ATOM     23  C   UNL     1       1.305   3.596  20.916  0.00  0.00    +0.000 A 
ATOM     24  C   UNL     1       2.312   4.455  20.475  0.00  0.00    +0.000 A 
ENDBRANCH   5  19
BRANCH   3  25
ATOM     25  C   UNL     1       6.875   5.845  17.218  0.00  0.00    +0.000 C 
ATOM     26  C   UNL     1       7.640   4.819  18.077  0.00  0.00    +0.000 C 
ATOM     27  C   UNL     1       6.906   5.370  15.750  0.00  0.00    +0.000 C 
ATOM     28  C   UNL     1       7.625   7.195  17.281  0.00  0.00    +0.000 C 
ENDBRANCH   3  25
TORSDOF 4
ENDMDL
MODEL 5
REMARK VINA RESULT:      -8.2      0.106      1.342
REMARK  Name = 
REMARK  8 active torsions:
REMARK  status: ('A' for Active; 'I' for Inactive)
REMARK    1  A    between atoms: C_1  and  C_2
REMARK    2  A    between atoms: C_5  and  N_6
REMARK    3  A    between atoms: N_9  and  C_10
REMARK    4  A    between atoms: C_12  and  C_13
REMARK    5  A    between atoms: C_13  and  C_14
REMARK    6  A    between atoms: C_13  and  C_15
REMARK    7  A    between atoms: C_13  and  C_16
REMARK    8  A    between atoms: N_18  and  C_19
REMARK                            x       y       z     vdW  Elec       q    Type
REMARK                         _______ _______ _______ _____ _____    ______ ____
ROOT
ATOM      1  C   UNL     1       3.386   6.745  18.042  0.00  0.00    +0.000 A 
ATOM      2  C   UNL     1       4.580   7.088  17.450  0.00  0.00    +0.000 A 
ATOM      3  C   UNL     1       5.473   6.030  17.752  0.00  0.00    +0.000 A 
ATOM      4  N   UNL     1       4.900   5.146  18.582  0.00  0.00    +0.000 NA
ATOM      5  N   UNL     1       3.589   5.502  18.623  0.00  0.00    +0.000 N 
ENDROOT
BRANCH   1   9
ATOM      6  N   UNL     1       0.683   8.921  19.009  0.00  0.00    +0.000 N 
ATOM      7  C   UNL     1       1.775   8.129  19.206  0.00  0.00    +0.000 C 
ATOM      8  O   UNL     1       2.417   7.962  20.231  0.00  0.00    +0.000 OA
ATOM      9  N   UNL     1       2.207   7.501  18.005  0.00  0.00    +0.000 N 
ATOM     10  H   UNL     1       0.095   8.762  18.202  0.00  0.00    +0.000 HD
ATOM     11  H   UNL     1       1.859   7.802  17.106  0.00  0.00    +0.000 HD
BRANCH   6  16
ATOM     12  C   UNL     1      -1.257  12.493  23.062  0.00  0.00    +0.000 C 
ATOM     13  C   UNL     1      -0.761  11.565  21.994  0.00  0.00    +0.000 A 
ATOM     14  C   UNL     1      -0.461  12.048  20.720  0.00  0.00    +0.000 A 
ATOM     15  C   UNL     1       0.006  11.183  19.729  0.00  0.00    +0.000 A 
ATOM     16  C   UNL     1       0.189   9.820  19.989  0.00  0.00    +0.000 A 
ATOM     17  C   UNL     1      -0.143   9.328  21.254  0.00  0.00    +0.000 A 
ATOM     18  C   UNL     1      -0.601  10.198  22.253  0.00  0.00    +0.000 A 
ENDBRANCH   6  16
ENDBRANCH   1   9
BRANCH   5  19
ATOM     19  C   UNL     1       2.605   4.590  19.087  0.00  0.00    +0.000 A 
ATOM     20  C   UNL     1       1.892   3.813  18.166  0.00  0.00    +0.000 A 
ATOM     21  C   UNL     1       0.897   2.940  18.614  0.00  0.00    +0.000 A 
ATOM     22  C   UNL     1       0.588   2.865  19.971  0.00  0.00    +0.000 A 
ATOM     23  C   UNL     1       1.272   3.658  20.888  0.00  0.00    +0.000 A 
ATOM     24  C   UNL     1       2.282   4.515  20.451  0.00  0.00    +0.000 A 
ENDBRANCH   5  19
BRANCH   3  25
ATOM     25  C   UNL     1       6.906   5.866  17.254  0.00  0.00    +0.000 C 
ATOM     26  C   UNL     1       7.655   7.210  17.345  0.00  0.00    +0.000 C 
ATOM     27  C   UNL     1       7.692   4.816  18.067  0.00  0.00    +0.000 C 
ATOM     28  C   UNL     1       6.908   5.402  15.780  0.00  0.00    +0.000 C 
ENDBRANCH   3  25
TORSDOF 4
ENDMDL
MODEL 6
REMARK VINA RESULT:      -8.2      1.408      1.580
REMARK  Name = 
REMARK  8 active torsions:
REMARK  status: ('A' for Active; 'I' for Inactive)
REMARK    1  A    between atoms: C_1  and  C_2
REMARK    2  A    between atoms: C_5  and  N_6
REMARK    3  A    between atoms: N_9  and  C_10
REMARK    4  A    between atoms: C_12  and  C_13
REMARK    5  A    between atoms: C_13  and  C_14
REMARK    6  A    between atoms: C_13  and  C_15
REMARK    7  A    between atoms: C_13  and  C_16
REMARK    8  A    between atoms: N_18  and  C_19
REMARK                            x       y       z     vdW  Elec       q    Type
REMARK                         _______ _______ _______ _____ _____    ______ ____
ROOT
ATOM      1  C   UNL     1       3.564   6.796  17.850  0.00  0.00    +0.000 A 
ATOM      2  C   UNL     1       4.862   7.093  17.502  0.00  0.00    +0.000 A 
ATOM      3  C   UNL     1       5.664   6.129  18.161  0.00  0.00    +0.000 A 
ATOM      4  N   UNL     1       4.917   5.358  18.964  0.00  0.00    +0.000 NA
ATOM      5  N   UNL     1       3.631   5.664  18.649  0.00  0.00    +0.000 N 
ENDROOT
BRANCH   1   9
ATOM      6  N   UNL     1       0.770   9.069  17.780  0.00  0.00    +0.000 N 
ATOM      7  C   UNL     1       1.797   8.377  18.349  0.00  0.00    +0.000 C 
ATOM      8  O   UNL     1       2.246   8.476  19.479  0.00  0.00    +0.000 OA
ATOM      9  N   UNL     1       2.423   7.491  17.428  0.00  0.00    +0.000 N 
ATOM     10  H   UNL     1       0.331   8.707  16.945  0.00  0.00    +0.000 HD
ATOM     11  H   UNL     1       2.244   7.559  16.437  0.00  0.00    +0.000 HD
BRANCH   6  16
ATOM     12  C   UNL     1      -1.733  13.574  20.309  0.00  0.00    +0.000 C 
ATOM     13  C   UNL     1      -1.088  12.388  19.656  0.00  0.00    +0.000 A 
ATOM     14  C   UNL     1      -1.868  11.394  19.065  0.00  0.00    +0.000 A 
ATOM     15  C   UNL     1      -1.265  10.294  18.453  0.00  0.00    +0.000 A 
ATOM     16  C   UNL     1       0.128  10.164  18.413  0.00  0.00    +0.000 A 
ATOM     17  C   UNL     1       0.911  11.142  19.033  0.00  0.00    +0.000 A 
ATOM     18  C   UNL     1       0.306  12.253  19.638  0.00  0.00    +0.000 A 
ENDBRANCH   6  16
ENDBRANCH   1   9
BRANCH   5  19
ATOM     19  C   UNL     1       2.570   4.793  19.011  0.00  0.00    +0.000 A 
ATOM     20  C   UNL     1       2.082   4.804  20.324  0.00  0.00    +0.000 A 
ATOM     21  C   UNL     1       1.063   3.924  20.696  0.00  0.00    +0.000 A 
ATOM     22  C   UNL     1       0.553   3.010  19.774  0.00  0.00    +0.000 A 
ATOM     23  C   UNL     1       1.055   2.973  18.476  0.00  0.00    +0.000 A 
ATOM     24  C   UNL     1       2.058   3.864  18.091  0.00  0.00    +0.000 A 
ENDBRANCH   5  19
BRANCH   3  25
ATOM     25  C   UNL     1       7.174   5.949  18.036  0.00  0.00    +0.000 C 
ATOM     26  C   UNL     1       7.797   5.724  19.427  0.00  0.00    +0.000 C 
ATOM     27  C   UNL     1       7.548   4.752  17.136  0.00  0.00    +0.000 C 
ATOM     28  C   UNL     1       7.812   7.211  17.411  0.00  0.00    +0.000 C 
ENDBRANCH   3  25
TORSDOF 4
ENDMDL
MODEL 7
REMARK VINA RESULT:      -8.1      1.429      1.913
REMARK  Name = 
REMARK  8 active torsions:
REMARK  status: ('A' for Active; 'I' for Inactive)
REMARK    1  A    between atoms: C_1  and  C_2
REMARK    2  A    between atoms: C_5  and  N_6
REMARK    3  A    between atoms: N_9  and  C_10
REMARK    4  A    between atoms: C_12  and  C_13
REMARK    5  A    between atoms: C_13  and  C_14
REMARK    6  A    between atoms: C_13  and  C_15
REMARK    7  A    between atoms: C_13  and  C_16
REMARK    8  A    between atoms: N_18  and  C_19
REMARK                            x       y       z     vdW  Elec       q    Type
REMARK                         _______ _______ _______ _____ _____    ______ ____
ROOT
ATOM      1  C   UNL     1       3.593   6.711  17.845  0.00  0.00    +0.000 A 
ATOM      2  C   UNL     1       4.886   7.024  17.490  0.00  0.00    +0.000 A 
ATOM      3  C   UNL     1       5.704   6.076  18.153  0.00  0.00    +0.000 A 
ATOM      4  N   UNL     1       4.971   5.299  18.963  0.00  0.00    +0.000 NA
ATOM      5  N   UNL     1       3.680   5.585  18.650  0.00  0.00    +0.000 N 
ENDROOT
BRANCH   1   9
ATOM      6  N   UNL     1       0.793   8.974  17.751  0.00  0.00    +0.000 N 
ATOM      7  C   UNL     1       1.834   8.305  18.322  0.00  0.00    +0.000 C 
ATOM      8  O   UNL     1       2.307   8.448  19.438  0.00  0.00    +0.000 OA
ATOM      9  N   UNL     1       2.442   7.387  17.422  0.00  0.00    +0.000 N 
ATOM     10  H   UNL     1       0.336   8.580  16.939  0.00  0.00    +0.000 HD
ATOM     11  H   UNL     1       2.241   7.418  16.433  0.00  0.00    +0.000 HD
BRANCH   6  16
ATOM     12  C   UNL     1      -1.862  13.418  20.233  0.00  0.00    +0.000 C 
ATOM     13  C   UNL     1      -1.160  12.267  19.577  0.00  0.00    +0.000 A 
ATOM     14  C   UNL     1       0.233  12.190  19.583  0.00  0.00    +0.000 A 
ATOM     15  C   UNL     1       0.885  11.115  18.977  0.00  0.00    +0.000 A 
ATOM     16  C   UNL     1       0.161  10.091  18.356  0.00  0.00    +0.000 A 
ATOM     17  C   UNL     1      -1.234  10.181  18.319  0.00  0.00    +0.000 A 
ATOM     18  C   UNL     1      -1.888  11.255  18.938  0.00  0.00    +0.000 A 
ENDBRANCH   6  16
ENDBRANCH   1   9
BRANCH   5  19
ATOM     19  C   UNL     1       2.631   4.702  19.022  0.00  0.00    +0.000 A 
ATOM     20  C   UNL     1       2.160   3.760  18.098  0.00  0.00    +0.000 A 
ATOM     21  C   UNL     1       1.104   2.913  18.446  0.00  0.00    +0.000 A 
ATOM     22  C   UNL     1       0.495   3.025  19.695  0.00  0.00    +0.000 A 
ATOM     23  C   UNL     1       0.940   3.980  20.605  0.00  0.00    +0.000 A 
ATOM     24  C   UNL     1       2.008   4.815  20.274  0.00  0.00    +0.000 A 
ENDBRANCH   5  19
BRANCH   3  25
ATOM     25  C   UNL     1       7.216   5.916  18.023  0.00  0.00    +0.000 C 
ATOM     26  C   UNL     1       7.844   5.690  19.412  0.00  0.00    +0.000 C 
ATOM     27  C   UNL     1       7.604   4.729  17.116  0.00  0.00    +0.000 C 
ATOM     28  C   UNL     1       7.836   7.189  17.405  0.00  0.00    +0.000 C 
ENDBRANCH   3  25
TORSDOF 4
ENDMDL
MODEL 8
REMARK VINA RESULT:      -8.0      1.423      1.748
REMARK  Name = 
REMARK  8 active torsions:
REMARK  status: ('A' for Active; 'I' for Inactive)
REMARK    1  A    between atoms: C_1  and  C_2
REMARK    2  A    between atoms: C_5  and  N_6
REMARK    3  A    between atoms: N_9  and  C_10
REMARK    4  A    between atoms: C_12  and  C_13
REMARK    5  A    between atoms: C_13  and  C_14
REMARK    6  A    between atoms: C_13  and  C_15
REMARK    7  A    between atoms: C_13  and  C_16
REMARK    8  A    between atoms: N_18  and  C_19
REMARK                            x       y       z     vdW  Elec       q    Type
REMARK                         _______ _______ _______ _____ _____    ______ ____
ROOT
ATOM      1  C   UNL     1       3.578   6.773  17.870  0.00  0.00    +0.000 A 
ATOM      2  C   UNL     1       4.865   7.094  17.504  0.00  0.00    +0.000 A 
ATOM      3  C   UNL     1       5.695   6.146  18.152  0.00  0.00    +0.000 A 
ATOM      4  N   UNL     1       4.974   5.360  18.965  0.00  0.00    +0.000 NA
ATOM      5  N   UNL     1       3.678   5.641  18.667  0.00  0.00    +0.000 N 
ENDROOT
BRANCH   1   9
ATOM      6  N   UNL     1       0.775   9.033  17.812  0.00  0.00    +0.000 N 
ATOM      7  C   UNL     1       1.826   8.368  18.370  0.00  0.00    +0.000 C 
ATOM      8  O   UNL     1       2.319   8.518  19.476  0.00  0.00    +0.000 OA
ATOM      9  N   UNL     1       2.419   7.445  17.464  0.00  0.00    +0.000 N 
ATOM     10  H   UNL     1       0.304   8.634  17.012  0.00  0.00    +0.000 HD
ATOM     11  H   UNL     1       2.200   7.470  16.479  0.00  0.00    +0.000 HD
BRANCH   6  16
ATOM     12  C   UNL     1      -1.649  13.638  20.236  0.00  0.00    +0.000 C 
ATOM     13  C   UNL     1      -1.024  12.426  19.613  0.00  0.00    +0.000 A 
ATOM     14  C   UNL     1      -1.820  11.379  19.147  0.00  0.00    +0.000 A 
ATOM     15  C   UNL     1      -1.236  10.254  18.561  0.00  0.00    +0.000 A 
ATOM     16  C   UNL     1       0.153  10.153  18.423  0.00  0.00    +0.000 A 
ATOM     17  C   UNL     1       0.954  11.185  18.918  0.00  0.00    +0.000 A 
ATOM     18  C   UNL     1       0.367  12.320  19.496  0.00  0.00    +0.000 A 
ENDBRANCH   6  16
ENDBRANCH   1   9
BRANCH   5  19
ATOM     19  C   UNL     1       2.638   4.750  19.043  0.00  0.00    +0.000 A 
ATOM     20  C   UNL     1       2.105   3.869  18.095  0.00  0.00    +0.000 A 
ATOM     21  C   UNL     1       1.057   3.016  18.449  0.00  0.00    +0.000 A 
ATOM     22  C   UNL     1       0.517   3.062  19.734  0.00  0.00    +0.000 A 
ATOM     23  C   UNL     1       1.023   3.958  20.672  0.00  0.00    +0.000 A 
ATOM     24  C   UNL     1       2.084   4.798  20.332  0.00  0.00    +0.000 A 
ENDBRANCH   5  19
BRANCH   3  25
ATOM     25  C   UNL     1       7.206   5.994  18.006  0.00  0.00    +0.000 C 
ATOM     26  C   UNL     1       7.810   7.275  17.398  0.00  0.00    +0.000 C 
ATOM     27  C   UNL     1       7.901   5.724  19.357  0.00  0.00    +0.000 C 
ATOM     28  C   UNL     1       7.536   4.806  17.074  0.00  0.00    +0.000 C 
ENDBRANCH   3  25
TORSDOF 4
ENDMDL
MODEL 9
REMARK VINA RESULT:      -7.7      0.908      1.251
REMARK  Name = 
REMARK  8 active torsions:
REMARK  status: ('A' for Active; 'I' for Inactive)
REMARK    1  A    between atoms: C_1  and  C_2
REMARK    2  A    between atoms: C_5  and  N_6
REMARK    3  A    between atoms: N_9  and  C_10
REMARK    4  A    between atoms: C_12  and  C_13
REMARK    5  A    between atoms: C_13  and  C_14
REMARK    6  A    between atoms: C_13  and  C_15
REMARK    7  A    between atoms: C_13  and  C_16
REMARK    8  A    between atoms: N_18  and  C_19
REMARK                            x       y       z     vdW  Elec       q    Type
REMARK                         _______ _______ _______ _____ _____    ______ ____
ROOT
ATOM      1  C   UNL     1       3.385   7.026  17.863  0.00  0.00    +0.000 A 
ATOM      2  C   UNL     1       4.638   7.381  17.418  0.00  0.00    +0.000 A 
ATOM      3  C   UNL     1       5.519   6.396  17.932  0.00  0.00    +0.000 A 
ATOM      4  N   UNL     1       4.866   5.552  18.745  0.00  0.00    +0.000 NA
ATOM      5  N   UNL     1       3.550   5.845  18.571  0.00  0.00    +0.000 N 
ENDROOT
BRANCH   1   9
ATOM      6  N   UNL     1       0.510   9.164  18.239  0.00  0.00    +0.000 N 
ATOM      7  C   UNL     1       1.595   8.451  18.657  0.00  0.00    +0.000 C 
ATOM      8  O   UNL     1       2.107   8.427  19.765  0.00  0.00    +0.000 OA
ATOM      9  N   UNL     1       2.196   7.717  17.598  0.00  0.00    +0.000 N 
ATOM     10  H   UNL     1       0.035   8.890  17.390  0.00  0.00    +0.000 HD
ATOM     11  H   UNL     1       1.955   7.901  16.634  0.00  0.00    +0.000 HD
BRANCH   6  16
ATOM     12  C   UNL     1      -2.202  13.090  21.430  0.00  0.00    +0.000 C 
ATOM     13  C   UNL     1      -1.480  12.071  20.600  0.00  0.00    +0.000 A 
ATOM     14  C   UNL     1      -0.403  11.361  21.130  0.00  0.00    +0.000 A 
ATOM     15  C   UNL     1       0.264  10.408  20.357  0.00  0.00    +0.000 A 
ATOM     16  C   UNL     1      -0.133  10.140  19.042  0.00  0.00    +0.000 A 
ATOM     17  C   UNL     1      -1.191  10.874  18.497  0.00  0.00    +0.000 A 
ATOM     18  C   UNL     1      -1.868  11.823  19.277  0.00  0.00    +0.000 A 
ENDBRANCH   6  16
ENDBRANCH   1   9
BRANCH   5  19
ATOM     19  C   UNL     1       2.545   4.923  18.968  0.00  0.00    +0.000 A 
ATOM     20  C   UNL     1       2.126   4.889  20.304  0.00  0.00    +0.000 A 
ATOM     21  C   UNL     1       1.164   3.960  20.708  0.00  0.00    +0.000 A 
ATOM     22  C   UNL     1       0.645   3.043  19.794  0.00  0.00    +0.000 A 
ATOM     23  C   UNL     1       1.081   3.052  18.472  0.00  0.00    +0.000 A 
ATOM     24  C   UNL     1       2.025   3.991  18.056  0.00  0.00    +0.000 A 
ENDBRANCH   5  19
BRANCH   3  25
ATOM     25  C   UNL     1       7.013   6.265  17.656  0.00  0.00    +0.000 C 
ATOM     26  C   UNL     1       7.714   5.589  18.850  0.00  0.00    +0.000 C 
ATOM     27  C   UNL     1       7.304   5.435  16.388  0.00  0.00    +0.000 C 
ATOM     28  C   UNL     1       7.641   7.662  17.446  0.00  0.00    +0.000 C 
ENDBRANCH   3  25
TORSDOF 4
ENDMDL
