MODEL 1
REMARK VINA RESULT:      -9.2      0.000      0.000
REMARK  Name = 
REMARK  2 active torsions:
REMARK  status: ('A' for Active; 'I' for Inactive)
REMARK    1  A    between atoms: S_2  and  C_4
REMARK    2  A    between atoms: S_2  and  C_12
REMARK                            x       y       z     vdW  Elec       q    Type
REMARK                         _______ _______ _______ _____ _____    ______ ____
ROOT
ATOM      1  C   UNL     1       5.410   5.218  16.913  0.00  0.00    +0.000 A 
ATOM      2  C   UNL     1       4.894   6.379  17.533  0.00  0.00    +0.000 A 
ATOM      3  C   UNL     1       3.683   6.314  18.247  0.00  0.00    +0.000 A 
ATOM      4  C   UNL     1       3.014   5.090  18.294  0.00  0.00    +0.000 A 
ATOM      5  C   UNL     1       3.528   3.964  17.696  0.00  0.00    +0.000 A 
ATOM      6  C   UNL     1       4.724   3.999  17.001  0.00  0.00    +0.000 A 
ATOM      7  O   UNL     1       2.756   2.883  17.885  0.00  0.00    +0.000 OA
ATOM      8  C   UNL     1       1.524   3.324  18.319  0.00  0.00    +0.000 C 
ATOM      9  C   UNL     1       0.725   2.320  19.165  0.00  0.00    +0.000 C 
ATOM     10  N   UNL     1       1.258   2.194  20.525  0.00  0.00    +0.000 NA
ATOM     11  C   UNL     1       1.250   3.500  21.207  0.00  0.00    +0.000 C 
ATOM     12  C   UNL     1       2.209   4.462  20.505  0.00  0.00    +0.000 C 
ATOM     13  C   UNL     1       1.793   4.674  19.031  0.00  0.00    +0.000 C 
ATOM     14  H   UNL     1       2.231   1.807  20.493  0.00  0.00    +0.000 HD
ENDROOT
BRANCH   1  16
ATOM     15  O   UNL     1       7.853   4.229  16.719  0.00  0.00    +0.000 OA
ATOM     16  S   UNL     1       6.939   5.230  16.000  0.00  0.00    +0.000 S 
ATOM     17  O   UNL     1       7.724   6.525  16.266  0.00  0.00    +0.000 OA
BRANCH  16  18
ATOM     18  C   UNL     1       6.969   4.822  14.256  0.00  0.00    +0.000 A 
ATOM     19  C   UNL     1       6.305   3.675  13.799  0.00  0.00    +0.000 A 
ATOM     20  C   UNL     1       6.290   3.372  12.435  0.00  0.00    +0.000 A 
ATOM     21  F   UNL     1       5.641   2.266  11.996  0.00  0.00    +0.000 F 
ATOM     22  C   UNL     1       6.936   4.214  11.524  0.00  0.00    +0.000 A 
ATOM     23  C   UNL     1       7.596   5.359  11.978  0.00  0.00    +0.000 A 
ATOM     24  F   UNL     1       8.216   6.180  11.095  0.00  0.00    +0.000 F 
ATOM     25  C   UNL     1       7.614   5.664  13.345  0.00  0.00    +0.000 A 
ENDBRANCH  16  18
ENDBRANCH   1  16
TORSDOF 2
ENDMDL
MODEL 2
REMARK VINA RESULT:      -9.0      0.102      1.699
REMARK  Name = 
REMARK  2 active torsions:
REMARK  status: ('A' for Active; 'I' for Inactive)
REMARK    1  A    between atoms: S_2  and  C_4
REMARK    2  A    between atoms: S_2  and  C_12
REMARK                            x       y       z     vdW  Elec       q    Type
REMARK                         _______ _______ _______ _____ _____    ______ ____
ROOT
ATOM      1  C   UNL     1       5.380   5.216  16.903  0.00  0.00    +0.000 A 
ATOM      2  C   UNL     1       4.853   6.389  17.489  0.00  0.00    +0.000 A 
ATOM      3  C   UNL     1       3.657   6.327  18.229  0.00  0.00    +0.000 A 
ATOM      4  C   UNL     1       3.014   5.093  18.336  0.00  0.00    +0.000 A 
ATOM      5  C   UNL     1       3.540   3.956  17.771  0.00  0.00    +0.000 A 
ATOM      6  C   UNL     1       4.720   3.988  17.051  0.00  0.00    +0.000 A 
ATOM      7  O   UNL     1       2.794   2.868  18.016  0.00  0.00    +0.000 OA
ATOM      8  C   UNL     1       1.561   3.301  18.458  0.00  0.00    +0.000 C 
ATOM      9  C   UNL     1       0.800   2.314  19.356  0.00  0.00    +0.000 C 
ATOM     10  N   UNL     1       1.361   2.251  20.710  0.00  0.00    +0.000 NA
ATOM     11  C   UNL     1       1.340   3.581  21.342  0.00  0.00    +0.000 C 
ATOM     12  C   UNL     1       2.265   4.534  20.585  0.00  0.00    +0.000 C 
ATOM     13  C   UNL     1       1.816   4.682  19.113  0.00  0.00    +0.000 C 
ATOM     14  H   UNL     1       2.341   1.882  20.673  0.00  0.00    +0.000 HD
ENDROOT
BRANCH   1  16
ATOM     15  O   UNL     1       7.813   4.212  16.655  0.00  0.00    +0.000 OA
ATOM     16  S   UNL     1       6.890   5.223  15.960  0.00  0.00    +0.000 S 
ATOM     17  O   UNL     1       7.689   6.511  16.217  0.00  0.00    +0.000 OA
BRANCH  16  18
ATOM     18  C   UNL     1       6.884   4.824  14.214  0.00  0.00    +0.000 A 
ATOM     19  C   UNL     1       7.547   5.661  13.307  0.00  0.00    +0.000 A 
ATOM     20  C   UNL     1       7.582   5.334  11.949  0.00  0.00    +0.000 A 
ATOM     21  F   UNL     1       8.230   6.143  11.076  0.00  0.00    +0.000 F 
ATOM     22  C   UNL     1       6.954   4.170  11.493  0.00  0.00    +0.000 A 
ATOM     23  C   UNL     1       6.294   3.333  12.397  0.00  0.00    +0.000 A 
ATOM     24  F   UNL     1       5.692   2.200  11.958  0.00  0.00    +0.000 F 
ATOM     25  C   UNL     1       6.257   3.659  13.758  0.00  0.00    +0.000 A 
ENDBRANCH  16  18
ENDBRANCH   1  16
TORSDOF 2
ENDMDL
MODEL 3
REMARK VINA RESULT:      -8.5      4.445      5.828
REMARK  Name = 
REMARK  2 active torsions:
REMARK  status: ('A' for Active; 'I' for Inactive)
REMARK    1  A    between atoms: S_2  and  C_4
REMARK    2  A    between atoms: S_2  and  C_12
REMARK                            x       y       z     vdW  Elec       q    Type
REMARK                         _______ _______ _______ _____ _____    ______ ____
ROOT
ATOM      1  C   UNL     1       2.452   6.557  19.046  0.00  0.00    +0.000 A 
ATOM      2  C   UNL     1       1.939   6.641  20.360  0.00  0.00    +0.000 A 
ATOM      3  C   UNL     1       1.375   7.846  20.818  0.00  0.00    +0.000 A 
ATOM      4  C   UNL     1       1.369   8.940  19.950  0.00  0.00    +0.000 A 
ATOM      5  C   UNL     1       1.862   8.846  18.671  0.00  0.00    +0.000 A 
ATOM      6  C   UNL     1       2.408   7.668  18.193  0.00  0.00    +0.000 A 
ATOM      7  O   UNL     1       1.732   9.991  17.985  0.00  0.00    +0.000 OA
ATOM      8  C   UNL     1       1.466  10.993  18.895  0.00  0.00    +0.000 C 
ATOM      9  C   UNL     1       0.691  12.198  18.341  0.00  0.00    +0.000 C 
ATOM     10  N   UNL     1      -0.728  11.893  18.128  0.00  0.00    +0.000 NA
ATOM     11  C   UNL     1      -1.360  11.461  19.387  0.00  0.00    +0.000 C 
ATOM     12  C   UNL     1      -0.747  10.140  19.851  0.00  0.00    +0.000 C 
ATOM     13  C   UNL     1       0.772  10.293  20.091  0.00  0.00    +0.000 C 
ATOM     14  H   UNL     1      -0.827  11.149  17.397  0.00  0.00    +0.000 HD
ENDROOT
BRANCH   1  16
ATOM     15  O   UNL     1       2.082   4.423  17.532  0.00  0.00    +0.000 OA
ATOM     16  S   UNL     1       3.173   5.061  18.403  0.00  0.00    +0.000 S 
ATOM     17  O   UNL     1       3.279   3.990  19.500  0.00  0.00    +0.000 OA
BRANCH  16  18
ATOM     18  C   UNL     1       4.672   5.112  17.425  0.00  0.00    +0.000 A 
ATOM     19  C   UNL     1       4.832   4.226  16.351  0.00  0.00    +0.000 A 
ATOM     20  C   UNL     1       5.982   4.287  15.558  0.00  0.00    +0.000 A 
ATOM     21  F   UNL     1       6.129   3.432  14.516  0.00  0.00    +0.000 F 
ATOM     22  C   UNL     1       6.972   5.235  15.834  0.00  0.00    +0.000 A 
ATOM     23  C   UNL     1       6.813   6.121  16.903  0.00  0.00    +0.000 A 
ATOM     24  F   UNL     1       7.770   7.045  17.166  0.00  0.00    +0.000 F 
ATOM     25  C   UNL     1       5.663   6.060  17.699  0.00  0.00    +0.000 A 
ENDBRANCH  16  18
ENDBRANCH   1  16
TORSDOF 2
ENDMDL
MODEL 4
REMARK VINA RESULT:      -8.5      4.595      6.189
REMARK  Name = 
REMARK  2 active torsions:
REMARK  status: ('A' for Active; 'I' for Inactive)
REMARK    1  A    between atoms: S_2  and  C_4
REMARK    2  A    between atoms: S_2  and  C_12
REMARK                            x       y       z     vdW  Elec       q    Type
REMARK                         _______ _______ _______ _____ _____    ______ ____
ROOT
ATOM      1  C   UNL     1       2.369   6.441  19.239  0.00  0.00    +0.000 A 
ATOM      2  C   UNL     1       1.826   6.573  20.538  0.00  0.00    +0.000 A 
ATOM      3  C   UNL     1       1.288   7.805  20.952  0.00  0.00    +0.000 A 
ATOM      4  C   UNL     1       1.334   8.876  20.058  0.00  0.00    +0.000 A 
ATOM      5  C   UNL     1       1.855   8.736  18.793  0.00  0.00    +0.000 A 
ATOM      6  C   UNL     1       2.377   7.532  18.358  0.00  0.00    +0.000 A 
ATOM      7  O   UNL     1       1.775   9.867  18.077  0.00  0.00    +0.000 OA
ATOM      8  C   UNL     1       1.517  10.898  18.956  0.00  0.00    +0.000 C 
ATOM      9  C   UNL     1       0.790  12.111  18.353  0.00  0.00    +0.000 C 
ATOM     10  N   UNL     1      -0.631  11.842  18.112  0.00  0.00    +0.000 NA
ATOM     11  C   UNL     1      -1.306  11.460  19.365  0.00  0.00    +0.000 C 
ATOM     12  C   UNL     1      -0.743  10.133  19.877  0.00  0.00    +0.000 C 
ATOM     13  C   UNL     1       0.774  10.249  20.150  0.00  0.00    +0.000 C 
ATOM     14  H   UNL     1      -0.735  11.082  17.398  0.00  0.00    +0.000 HD
ENDROOT
BRANCH   1  16
ATOM     15  O   UNL     1       2.117   4.436  17.536  0.00  0.00    +0.000 OA
ATOM     16  S   UNL     1       3.060   4.910  18.650  0.00  0.00    +0.000 S 
ATOM     17  O   UNL     1       2.834   3.781  19.669  0.00  0.00    +0.000 OA
BRANCH  16  18
ATOM     18  C   UNL     1       4.727   4.847  17.999  0.00  0.00    +0.000 A 
ATOM     19  C   UNL     1       5.799   5.283  18.790  0.00  0.00    +0.000 A 
ATOM     20  C   UNL     1       7.108   5.197  18.304  0.00  0.00    +0.000 A 
ATOM     21  F   UNL     1       8.142   5.614  19.075  0.00  0.00    +0.000 F 
ATOM     22  C   UNL     1       7.348   4.676  17.029  0.00  0.00    +0.000 A 
ATOM     23  C   UNL     1       6.280   4.239  16.240  0.00  0.00    +0.000 A 
ATOM     24  F   UNL     1       6.513   3.727  15.007  0.00  0.00    +0.000 F 
ATOM     25  C   UNL     1       4.969   4.325  16.724  0.00  0.00    +0.000 A 
ENDBRANCH  16  18
ENDBRANCH   1  16
TORSDOF 2
ENDMDL
MODEL 5
REMARK VINA RESULT:      -8.4      4.905      6.390
REMARK  Name = 
REMARK  2 active torsions:
REMARK  status: ('A' for Active; 'I' for Inactive)
REMARK    1  A    between atoms: S_2  and  C_4
REMARK    2  A    between atoms: S_2  and  C_12
REMARK                            x       y       z     vdW  Elec       q    Type
REMARK                         _______ _______ _______ _____ _____    ______ ____
ROOT
ATOM      1  C   UNL     1       2.476   7.058  18.957  0.00  0.00    +0.000 A 
ATOM      2  C   UNL     1       2.506   7.808  17.760  0.00  0.00    +0.000 A 
ATOM      3  C   UNL     1       1.896   9.076  17.710  0.00  0.00    +0.000 A 
ATOM      4  C   UNL     1       1.251   9.540  18.858  0.00  0.00    +0.000 A 
ATOM      5  C   UNL     1       1.236   8.807  20.021  0.00  0.00    +0.000 A 
ATOM      6  C   UNL     1       1.840   7.565  20.099  0.00  0.00    +0.000 A 
ATOM      7  O   UNL     1       0.600   9.440  21.018  0.00  0.00    +0.000 OA
ATOM      8  C   UNL     1      -0.135  10.464  20.458  0.00  0.00    +0.000 C 
ATOM      9  C   UNL     1      -0.421  11.654  21.388  0.00  0.00    +0.000 C 
ATOM     10  N   UNL     1       0.763  12.495  21.591  0.00  0.00    +0.000 NA
ATOM     11  C   UNL     1       1.261  13.009  20.303  0.00  0.00    +0.000 C 
ATOM     12  C   UNL     1       1.756  11.851  19.436  0.00  0.00    +0.000 C 
ATOM     13  C   UNL     1       0.613  10.848  19.156  0.00  0.00    +0.000 C 
ATOM     14  H   UNL     1       1.512  11.946  22.077  0.00  0.00    +0.000 HD
ENDROOT
BRANCH   1  16
ATOM     15  O   UNL     1       2.278   4.489  18.369  0.00  0.00    +0.000 OA
ATOM     16  S   UNL     1       3.232   5.451  19.090  0.00  0.00    +0.000 S 
ATOM     17  O   UNL     1       3.106   4.906  20.521  0.00  0.00    +0.000 OA
BRANCH  16  18
ATOM     18  C   UNL     1       4.876   5.155  18.444  0.00  0.00    +0.000 A 
ATOM     19  C   UNL     1       5.031   4.583  17.174  0.00  0.00    +0.000 A 
ATOM     20  C   UNL     1       6.311   4.386  16.647  0.00  0.00    +0.000 A 
ATOM     21  F   UNL     1       6.456   3.839  15.415  0.00  0.00    +0.000 F 
ATOM     22  C   UNL     1       7.437   4.762  17.386  0.00  0.00    +0.000 A 
ATOM     23  C   UNL     1       7.283   5.334  18.651  0.00  0.00    +0.000 A 
ATOM     24  F   UNL     1       8.375   5.706  19.365  0.00  0.00    +0.000 F 
ATOM     25  C   UNL     1       6.003   5.531  19.182  0.00  0.00    +0.000 A 
ENDBRANCH  16  18
ENDBRANCH   1  16
TORSDOF 2
ENDMDL
MODEL 6
REMARK VINA RESULT:      -8.4      4.933      6.483
REMARK  Name = 
REMARK  2 active torsions:
REMARK  status: ('A' for Active; 'I' for Inactive)
REMARK    1  A    between atoms: S_2  and  C_4
REMARK    2  A    between atoms: S_2  and  C_12
REMARK                            x       y       z     vdW  Elec       q    Type
REMARK                         _______ _______ _______ _____ _____    ______ ____
ROOT
ATOM      1  C   UNL     1       2.483   7.103  18.958  0.00  0.00    +0.000 A 
ATOM      2  C   UNL     1       2.514   7.873  17.773  0.00  0.00    +0.000 A 
ATOM      3  C   UNL     1       1.892   9.135  17.740  0.00  0.00    +0.000 A 
ATOM      4  C   UNL     1       1.235   9.574  18.890  0.00  0.00    +0.000 A 
ATOM      5  C   UNL     1       1.219   8.822  20.041  0.00  0.00    +0.000 A 
ATOM      6  C   UNL     1       1.834   7.585  20.103  0.00  0.00    +0.000 A 
ATOM      7  O   UNL     1       0.569   9.433  21.043  0.00  0.00    +0.000 OA
ATOM      8  C   UNL     1      -0.172  10.459  20.495  0.00  0.00    +0.000 C 
ATOM      9  C   UNL     1      -0.476  11.630  21.442  0.00  0.00    +0.000 C 
ATOM     10  N   UNL     1       0.699  12.479  21.668  0.00  0.00    +0.000 NA
ATOM     11  C   UNL     1       1.201  13.019  20.392  0.00  0.00    +0.000 C 
ATOM     12  C   UNL     1       1.712  11.880  19.509  0.00  0.00    +0.000 C 
ATOM     13  C   UNL     1       0.582  10.871  19.205  0.00  0.00    +0.000 C 
ATOM     14  H   UNL     1       1.449  11.930  22.150  0.00  0.00    +0.000 HD
ENDROOT
BRANCH   1  16
ATOM     15  O   UNL     1       2.305   4.539  18.343  0.00  0.00    +0.000 OA
ATOM     16  S   UNL     1       3.253   5.502  19.070  0.00  0.00    +0.000 S 
ATOM     17  O   UNL     1       3.140   4.940  20.496  0.00  0.00    +0.000 OA
BRANCH  16  18
ATOM     18  C   UNL     1       4.897   5.227  18.414  0.00  0.00    +0.000 A 
ATOM     19  C   UNL     1       6.018   5.545  19.192  0.00  0.00    +0.000 A 
ATOM     20  C   UNL     1       7.304   5.295  18.703  0.00  0.00    +0.000 A 
ATOM     21  F   UNL     1       8.385   5.598  19.461  0.00  0.00    +0.000 F 
ATOM     22  C   UNL     1       7.472   4.725  17.437  0.00  0.00    +0.000 A 
ATOM     23  C   UNL     1       6.354   4.404  16.661  0.00  0.00    +0.000 A 
ATOM     24  F   UNL     1       6.517   3.845  15.437  0.00  0.00    +0.000 F 
ATOM     25  C   UNL     1       5.066   4.655  17.148  0.00  0.00    +0.000 A 
ENDBRANCH  16  18
ENDBRANCH   1  16
TORSDOF 2
ENDMDL
MODEL 7
REMARK VINA RESULT:      -8.3      1.450      1.920
REMARK  Name = 
REMARK  2 active torsions:
REMARK  status: ('A' for Active; 'I' for Inactive)
REMARK    1  A    between atoms: S_2  and  C_4
REMARK    2  A    between atoms: S_2  and  C_12
REMARK                            x       y       z     vdW  Elec       q    Type
REMARK                         _______ _______ _______ _____ _____    ______ ____
ROOT
ATOM      1  C   UNL     1       5.092   4.974  16.163  0.00  0.00    +0.000 A 
ATOM      2  C   UNL     1       4.813   6.214  16.781  0.00  0.00    +0.000 A 
ATOM      3  C   UNL     1       3.786   6.305  17.740  0.00  0.00    +0.000 A 
ATOM      4  C   UNL     1       3.054   5.152  18.029  0.00  0.00    +0.000 A 
ATOM      5  C   UNL     1       3.339   3.949  17.429  0.00  0.00    +0.000 A 
ATOM      6  C   UNL     1       4.351   3.830  16.495  0.00  0.00    +0.000 A 
ATOM      7  O   UNL     1       2.548   2.957  17.867  0.00  0.00    +0.000 OA
ATOM      8  C   UNL     1       1.477   3.535  18.516  0.00  0.00    +0.000 C 
ATOM      9  C   UNL     1       0.811   2.663  19.592  0.00  0.00    +0.000 C 
ATOM     10  N   UNL     1       1.618   2.577  20.813  0.00  0.00    +0.000 NA
ATOM     11  C   UNL     1       1.858   3.919  21.372  0.00  0.00    +0.000 C 
ATOM     12  C   UNL     1       2.709   4.742  20.404  0.00  0.00    +0.000 C 
ATOM     13  C   UNL     1       1.997   4.897  19.041  0.00  0.00    +0.000 C 
ATOM     14  H   UNL     1       2.529   2.102  20.606  0.00  0.00    +0.000 HD
ENDROOT
BRANCH   1  16
ATOM     15  O   UNL     1       7.521   4.059  15.668  0.00  0.00    +0.000 OA
ATOM     16  S   UNL     1       6.379   4.788  14.947  0.00  0.00    +0.000 S 
ATOM     17  O   UNL     1       7.071   6.133  14.675  0.00  0.00    +0.000 OA
BRANCH  16  18
ATOM     18  C   UNL     1       6.074   3.915  13.414  0.00  0.00    +0.000 A 
ATOM     19  C   UNL     1       7.138   3.298  12.741  0.00  0.00    +0.000 A 
ATOM     20  C   UNL     1       6.901   2.580  11.565  0.00  0.00    +0.000 A 
ATOM     21  F   UNL     1       7.932   1.980  10.922  0.00  0.00    +0.000 F 
ATOM     22  C   UNL     1       5.601   2.475  11.060  0.00  0.00    +0.000 A 
ATOM     23  C   UNL     1       4.539   3.087  11.731  0.00  0.00    +0.000 A 
ATOM     24  F   UNL     1       3.277   2.979  11.245  0.00  0.00    +0.000 F 
ATOM     25  C   UNL     1       4.774   3.808  12.908  0.00  0.00    +0.000 A 
ENDBRANCH  16  18
ENDBRANCH   1  16
TORSDOF 2
ENDMDL
MODEL 8
REMARK VINA RESULT:      -8.3      6.449      8.478
REMARK  Name = 
REMARK  2 active torsions:
REMARK  status: ('A' for Active; 'I' for Inactive)
REMARK    1  A    between atoms: S_2  and  C_4
REMARK    2  A    between atoms: S_2  and  C_12
REMARK                            x       y       z     vdW  Elec       q    Type
REMARK                         _______ _______ _______ _____ _____    ______ ____
ROOT
ATOM      1  C   UNL     1       1.689   8.838  18.990  0.00  0.00    +0.000 A 
ATOM      2  C   UNL     1       2.430   8.664  17.799  0.00  0.00    +0.000 A 
ATOM      3  C   UNL     1       3.083   7.442  17.552  0.00  0.00    +0.000 A 
ATOM      4  C   UNL     1       2.992   6.441  18.521  0.00  0.00    +0.000 A 
ATOM      5  C   UNL     1       2.261   6.616  19.671  0.00  0.00    +0.000 A 
ATOM      6  C   UNL     1       1.599   7.803  19.931  0.00  0.00    +0.000 A 
ATOM      7  O   UNL     1       2.267   5.528  20.455  0.00  0.00    +0.000 OA
ATOM      8  C   UNL     1       3.290   4.710  20.022  0.00  0.00    +0.000 C 
ATOM      9  C   UNL     1       3.109   3.214  20.321  0.00  0.00    +0.000 C 
ATOM     10  N   UNL     1       2.117   2.589  19.439  0.00  0.00    +0.000 NA
ATOM     11  C   UNL     1       2.507   2.747  18.027  0.00  0.00    +0.000 C 
ATOM     12  C   UNL     1       2.487   4.227  17.642  0.00  0.00    +0.000 C 
ATOM     13  C   UNL     1       3.472   5.035  18.517  0.00  0.00    +0.000 C 
ATOM     14  H   UNL     1       1.174   3.015  19.605  0.00  0.00    +0.000 HD
ENDROOT
BRANCH   1  16
ATOM     15  O   UNL     1       1.740  11.476  18.833  0.00  0.00    +0.000 OA
ATOM     16  S   UNL     1       0.835  10.356  19.363  0.00  0.00    +0.000 S 
ATOM     17  O   UNL     1       0.904  10.666  20.867  0.00  0.00    +0.000 OA
BRANCH  16  18
ATOM     18  C   UNL     1      -0.814  10.660  18.732  0.00  0.00    +0.000 A 
ATOM     19  C   UNL     1      -1.272   9.950  17.613  0.00  0.00    +0.000 A 
ATOM     20  C   UNL     1      -2.572  10.152  17.140  0.00  0.00    +0.000 A 
ATOM     21  F   UNL     1      -3.013   9.458  16.062  0.00  0.00    +0.000 F 
ATOM     22  C   UNL     1      -3.417  11.061  17.784  0.00  0.00    +0.000 A 
ATOM     23  C   UNL     1      -2.962  11.768  18.900  0.00  0.00    +0.000 A 
ATOM     24  F   UNL     1      -3.783  12.644  19.529  0.00  0.00    +0.000 F 
ATOM     25  C   UNL     1      -1.660  11.568  19.375  0.00  0.00    +0.000 A 
ENDBRANCH  16  18
ENDBRANCH   1  16
TORSDOF 2
ENDMDL
MODEL 9
REMARK VINA RESULT:      -8.3      1.464      1.633
REMARK  Name = 
REMARK  2 active torsions:
REMARK  status: ('A' for Active; 'I' for Inactive)
REMARK    1  A    between atoms: S_2  and  C_4
REMARK    2  A    between atoms: S_2  and  C_12
REMARK                            x       y       z     vdW  Elec       q    Type
REMARK                         _______ _______ _______ _____ _____    ______ ____
ROOT
ATOM      1  C   UNL     1       5.079   4.977  16.160  0.00  0.00    +0.000 A 
ATOM      2  C   UNL     1       4.807   6.216  16.784  0.00  0.00    +0.000 A 
ATOM      3  C   UNL     1       3.787   6.306  17.750  0.00  0.00    +0.000 A 
ATOM      4  C   UNL     1       3.054   5.154  18.040  0.00  0.00    +0.000 A 
ATOM      5  C   UNL     1       3.333   3.951  17.436  0.00  0.00    +0.000 A 
ATOM      6  C   UNL     1       4.339   3.834  16.494  0.00  0.00    +0.000 A 
ATOM      7  O   UNL     1       2.544   2.960  17.876  0.00  0.00    +0.000 OA
ATOM      8  C   UNL     1       1.478   3.538  18.534  0.00  0.00    +0.000 C 
ATOM      9  C   UNL     1       0.818   2.664  19.612  0.00  0.00    +0.000 C 
ATOM     10  N   UNL     1       1.633   2.573  20.827  0.00  0.00    +0.000 NA
ATOM     11  C   UNL     1       1.879   3.914  21.388  0.00  0.00    +0.000 C 
ATOM     12  C   UNL     1       2.725   4.738  20.417  0.00  0.00    +0.000 C 
ATOM     13  C   UNL     1       2.004   4.898  19.059  0.00  0.00    +0.000 C 
ATOM     14  H   UNL     1       2.542   2.097  20.613  0.00  0.00    +0.000 HD
ENDROOT
BRANCH   1  16
ATOM     15  O   UNL     1       7.530   4.121  15.664  0.00  0.00    +0.000 OA
ATOM     16  S   UNL     1       6.358   4.792  14.935  0.00  0.00    +0.000 S 
ATOM     17  O   UNL     1       7.006   6.149  14.613  0.00  0.00    +0.000 OA
BRANCH  16  18
ATOM     18  C   UNL     1       6.063   3.863  13.433  0.00  0.00    +0.000 A 
ATOM     19  C   UNL     1       4.765   3.780  12.911  0.00  0.00    +0.000 A 
ATOM     20  C   UNL     1       4.533   3.091  11.717  0.00  0.00    +0.000 A 
ATOM     21  F   UNL     1       3.277   3.019  11.212  0.00  0.00    +0.000 F 
ATOM     22  C   UNL     1       5.597   2.484  11.042  0.00  0.00    +0.000 A 
ATOM     23  C   UNL     1       6.892   2.568  11.560  0.00  0.00    +0.000 A 
ATOM     24  F   UNL     1       7.925   1.987  10.902  0.00  0.00    +0.000 F 
ATOM     25  C   UNL     1       7.126   3.256  12.757  0.00  0.00    +0.000 A 
ENDBRANCH  16  18
ENDBRANCH   1  16
TORSDOF 2
ENDMDL
