MODEL 1
REMARK VINA RESULT:      -6.8      0.000      0.000
REMARK  Name = 
REMARK  5 active torsions:
REMARK  status: ('A' for Active; 'I' for Inactive)
REMARK    1  A    between atoms: C_2  and  C_13
REMARK    2  A    between atoms: N_3  and  C_4
REMARK    3  A    between atoms: C_16  and  O_17
REMARK    4  A    between atoms: O_17  and  C_18
REMARK    5  A    between atoms: C_18  and  C_19
REMARK                            x       y       z     vdW  Elec       q    Type
REMARK                         _______ _______ _______ _____ _____    ______ ____
ROOT
ATOM      1  O   UNL     1       1.814   8.730  17.863  0.00  0.00    +0.000 OA
ATOM      2  C   UNL     1       1.886   8.259  18.995  0.00  0.00    +0.000 C 
ATOM      3  N   UNL     1       2.496   7.048  19.275  0.00  0.00    +0.000 N 
ATOM      4  H   UNL     1       2.257   6.584  20.145  0.00  0.00    +0.000 HD
ENDROOT
BRANCH   3   5
ATOM      5  C   UNL     1       3.025   6.230  18.183  0.00  0.00    +0.000 C 
ATOM      6  C   UNL     1       2.882   4.725  18.481  0.00  0.00    +0.000 C 
ATOM      7  C   UNL     1       3.274   3.903  17.250  0.00  0.00    +0.000 C 
ATOM      8  C   UNL     1       4.572   4.365  16.672  0.00  0.00    +0.000 A 
ATOM      9  N   UNL     1       5.340   3.721  15.820  0.00  0.00    +0.000 NA
ATOM     10  C   UNL     1       6.387   4.572  15.559  0.00  0.00    +0.000 A 
ATOM     11  C   UNL     1       6.256   5.743  16.270  0.00  0.00    +0.000 A 
ATOM     12  N   UNL     1       5.095   5.594  16.963  0.00  0.00    +0.000 N 
ATOM     13  C   UNL     1       4.506   6.545  17.884  0.00  0.00    +0.000 C 
ENDBRANCH   3   5
BRANCH   2  14
ATOM     14  C   UNL     1       1.282   8.997  20.120  0.00  0.00    +0.000 A 
ATOM     15  C   UNL     1       1.308   8.449  21.405  0.00  0.00    +0.000 A 
ATOM     16  C   UNL     1       0.693   9.133  22.453  0.00  0.00    +0.000 A 
ATOM     17  C   UNL     1       0.044  10.324  22.168  0.00  0.00    +0.000 A 
ATOM     18  N   UNL     1      -0.003  10.875  20.934  0.00  0.00    +0.000 NA
ATOM     19  C   UNL     1       0.611  10.196  19.937  0.00  0.00    +0.000 A 
BRANCH  17  20
ATOM     20  O   UNL     1      -0.558  10.977  23.226  0.00  0.00    +0.000 OA
BRANCH  20  21
ATOM     21  C   UNL     1      -1.272  12.141  22.801  0.00  0.00    +0.000 C 
BRANCH  21  22
ATOM     22  C   UNL     1      -2.704  12.017  23.233  0.00  0.00    +0.000 C 
ATOM     23  C   UNL     1      -3.445  13.191  23.820  0.00  0.00    +0.000 C 
ATOM     24  C   UNL     1      -3.788  12.708  22.439  0.00  0.00    +0.000 C 
ENDBRANCH  21  22
ENDBRANCH  20  21
ENDBRANCH  17  20
ENDBRANCH   2  14
TORSDOF 5
ENDMDL
MODEL 2
REMARK VINA RESULT:      -6.7      2.308      9.709
REMARK  Name = 
REMARK  5 active torsions:
REMARK  status: ('A' for Active; 'I' for Inactive)
REMARK    1  A    between atoms: C_2  and  C_13
REMARK    2  A    between atoms: N_3  and  C_4
REMARK    3  A    between atoms: C_16  and  O_17
REMARK    4  A    between atoms: O_17  and  C_18
REMARK    5  A    between atoms: C_18  and  C_19
REMARK                            x       y       z     vdW  Elec       q    Type
REMARK                         _______ _______ _______ _____ _____    ______ ____
ROOT
ATOM      1  O   UNL     1       2.225   6.264  19.522  0.00  0.00    +0.000 OA
ATOM      2  C   UNL     1       2.699   6.964  18.632  0.00  0.00    +0.000 C 
ATOM      3  N   UNL     1       2.308   8.273  18.406  0.00  0.00    +0.000 N 
ATOM      4  H   UNL     1       2.503   8.678  17.497  0.00  0.00    +0.000 HD
ENDROOT
BRANCH   3   5
ATOM      5  C   UNL     1       1.226   8.855  19.201  0.00  0.00    +0.000 C 
ATOM      6  C   UNL     1       0.972  10.327  18.821  0.00  0.00    +0.000 C 
ATOM      7  C   UNL     1      -0.277  10.849  19.536  0.00  0.00    +0.000 C 
ATOM      8  C   UNL     1      -0.257  10.514  20.991  0.00  0.00    +0.000 A 
ATOM      9  N   UNL     1      -0.995  11.044  21.943  0.00  0.00    +0.000 NA
ATOM     10  C   UNL     1      -0.642  10.377  23.090  0.00  0.00    +0.000 A 
ATOM     11  C   UNL     1       0.330   9.437  22.833  0.00  0.00    +0.000 A 
ATOM     12  N   UNL     1       0.554   9.535  21.495  0.00  0.00    +0.000 N 
ATOM     13  C   UNL     1       1.506   8.769  20.716  0.00  0.00    +0.000 C 
ENDBRANCH   3   5
BRANCH   2  14
ATOM     14  C   UNL     1       3.724   6.393  17.738  0.00  0.00    +0.000 A 
ATOM     15  C   UNL     1       3.859   5.006  17.630  0.00  0.00    +0.000 A 
ATOM     16  C   UNL     1       4.861   4.477  16.819  0.00  0.00    +0.000 A 
ATOM     17  C   UNL     1       5.715   5.356  16.173  0.00  0.00    +0.000 A 
ATOM     18  N   UNL     1       5.613   6.702  16.263  0.00  0.00    +0.000 NA
ATOM     19  C   UNL     1       4.624   7.189  17.048  0.00  0.00    +0.000 A 
BRANCH  17  20
ATOM     20  O   UNL     1       6.700   4.802  15.378  0.00  0.00    +0.000 OA
BRANCH  20  21
ATOM     21  C   UNL     1       6.226   3.662  14.656  0.00  0.00    +0.000 C 
BRANCH  21  22
ATOM     22  C   UNL     1       5.899   4.078  13.252  0.00  0.00    +0.000 C 
ATOM     23  C   UNL     1       6.896   3.905  12.135  0.00  0.00    +0.000 C 
ATOM     24  C   UNL     1       5.680   3.024  12.191  0.00  0.00    +0.000 C 
ENDBRANCH  21  22
ENDBRANCH  20  21
ENDBRANCH  17  20
ENDBRANCH   2  14
TORSDOF 5
ENDMDL
MODEL 3
REMARK VINA RESULT:      -6.7      2.964      9.706
REMARK  Name = 
REMARK  5 active torsions:
REMARK  status: ('A' for Active; 'I' for Inactive)
REMARK    1  A    between atoms: C_2  and  C_13
REMARK    2  A    between atoms: N_3  and  C_4
REMARK    3  A    between atoms: C_16  and  O_17
REMARK    4  A    between atoms: O_17  and  C_18
REMARK    5  A    between atoms: C_18  and  C_19
REMARK                            x       y       z     vdW  Elec       q    Type
REMARK                         _______ _______ _______ _____ _____    ______ ____
ROOT
ATOM      1  O   UNL     1       2.362   7.113  19.375  0.00  0.00    +0.000 OA
ATOM      2  C   UNL     1       2.830   7.529  18.320  0.00  0.00    +0.000 C 
ATOM      3  N   UNL     1       2.493   8.755  17.770  0.00  0.00    +0.000 N 
ATOM      4  H   UNL     1       2.668   8.898  16.782  0.00  0.00    +0.000 HD
ENDROOT
BRANCH   3   5
ATOM      5  C   UNL     1       1.475   9.585  18.416  0.00  0.00    +0.000 C 
ATOM      6  C   UNL     1       0.112   9.465  17.706  0.00  0.00    +0.000 C 
ATOM      7  C   UNL     1      -0.968  10.197  18.508  0.00  0.00    +0.000 C 
ATOM      8  C   UNL     1      -0.523  11.566  18.904  0.00  0.00    +0.000 A 
ATOM      9  N   UNL     1      -1.276  12.559  19.328  0.00  0.00    +0.000 NA
ATOM     10  C   UNL     1      -0.404  13.583  19.605  0.00  0.00    +0.000 A 
ATOM     11  C   UNL     1       0.893  13.211  19.337  0.00  0.00    +0.000 A 
ATOM     12  N   UNL     1       0.796  11.926  18.900  0.00  0.00    +0.000 N 
ATOM     13  C   UNL     1       1.884  11.072  18.468  0.00  0.00    +0.000 C 
ENDBRANCH   3   5
BRANCH   2  14
ATOM     14  C   UNL     1       3.788   6.688  17.578  0.00  0.00    +0.000 A 
ATOM     15  C   UNL     1       3.589   5.307  17.504  0.00  0.00    +0.000 A 
ATOM     16  C   UNL     1       4.525   4.515  16.841  0.00  0.00    +0.000 A 
ATOM     17  C   UNL     1       5.644   5.131  16.305  0.00  0.00    +0.000 A 
ATOM     18  N   UNL     1       5.866   6.464  16.366  0.00  0.00    +0.000 NA
ATOM     19  C   UNL     1       4.937   7.211  17.006  0.00  0.00    +0.000 A 
BRANCH  17  20
ATOM     20  O   UNL     1       6.554   4.321  15.656  0.00  0.00    +0.000 OA
BRANCH  20  21
ATOM     21  C   UNL     1       6.653   4.634  14.263  0.00  0.00    +0.000 C 
BRANCH  21  22
ATOM     22  C   UNL     1       6.100   3.488  13.467  0.00  0.00    +0.000 C 
ATOM     23  C   UNL     1       5.102   3.718  12.361  0.00  0.00    +0.000 C 
ATOM     24  C   UNL     1       6.509   3.314  12.023  0.00  0.00    +0.000 C 
ENDBRANCH  21  22
ENDBRANCH  20  21
ENDBRANCH  17  20
ENDBRANCH   2  14
TORSDOF 5
ENDMDL
MODEL 4
REMARK VINA RESULT:      -6.7      2.294      9.746
REMARK  Name = 
REMARK  5 active torsions:
REMARK  status: ('A' for Active; 'I' for Inactive)
REMARK    1  A    between atoms: C_2  and  C_13
REMARK    2  A    between atoms: N_3  and  C_4
REMARK    3  A    between atoms: C_16  and  O_17
REMARK    4  A    between atoms: O_17  and  C_18
REMARK    5  A    between atoms: C_18  and  C_19
REMARK                            x       y       z     vdW  Elec       q    Type
REMARK                         _______ _______ _______ _____ _____    ______ ____
ROOT
ATOM      1  O   UNL     1       1.828   5.852  19.194  0.00  0.00    +0.000 OA
ATOM      2  C   UNL     1       2.607   6.637  18.663  0.00  0.00    +0.000 C 
ATOM      3  N   UNL     1       2.484   8.013  18.762  0.00  0.00    +0.000 N 
ATOM      4  H   UNL     1       2.957   8.585  18.071  0.00  0.00    +0.000 HD
ENDROOT
BRANCH   3   5
ATOM      5  C   UNL     1       1.337   8.591  19.464  0.00  0.00    +0.000 C 
ATOM      6  C   UNL     1       1.015  10.008  18.952  0.00  0.00    +0.000 C 
ATOM      7  C   UNL     1      -0.292  10.510  19.573  0.00  0.00    +0.000 C 
ATOM      8  C   UNL     1      -0.315  10.296  21.051  0.00  0.00    +0.000 A 
ATOM      9  N   UNL     1      -1.123  10.855  21.927  0.00  0.00    +0.000 NA
ATOM     10  C   UNL     1      -0.781  10.307  23.139  0.00  0.00    +0.000 A 
ATOM     11  C   UNL     1       0.253   9.410  22.998  0.00  0.00    +0.000 A 
ATOM     12  N   UNL     1       0.529   9.412  21.666  0.00  0.00    +0.000 N 
ATOM     13  C   UNL     1       1.556   8.646  20.991  0.00  0.00    +0.000 C 
ENDBRANCH   3   5
BRANCH   2  14
ATOM     14  C   UNL     1       3.726   6.107  17.861  0.00  0.00    +0.000 A 
ATOM     15  C   UNL     1       4.344   6.919  16.907  0.00  0.00    +0.000 A 
ATOM     16  C   UNL     1       5.369   6.394  16.122  0.00  0.00    +0.000 A 
ATOM     17  C   UNL     1       5.715   5.064  16.297  0.00  0.00    +0.000 A 
ATOM     18  N   UNL     1       5.130   4.252  17.208  0.00  0.00    +0.000 NA
ATOM     19  C   UNL     1       4.145   4.790  17.965  0.00  0.00    +0.000 A 
BRANCH  17  20
ATOM     20  O   UNL     1       6.732   4.572  15.504  0.00  0.00    +0.000 OA
BRANCH  20  21
ATOM     21  C   UNL     1       6.278   3.528  14.637  0.00  0.00    +0.000 C 
BRANCH  21  22
ATOM     22  C   UNL     1       6.114   4.084  13.253  0.00  0.00    +0.000 C 
ATOM     23  C   UNL     1       6.605   3.327  12.045  0.00  0.00    +0.000 C 
ATOM     24  C   UNL     1       5.129   3.444  12.302  0.00  0.00    +0.000 C 
ENDBRANCH  21  22
ENDBRANCH  20  21
ENDBRANCH  17  20
ENDBRANCH   2  14
TORSDOF 5
ENDMDL
MODEL 5
REMARK VINA RESULT:      -6.7      2.089      2.521
REMARK  Name = 
REMARK  5 active torsions:
REMARK  status: ('A' for Active; 'I' for Inactive)
REMARK    1  A    between atoms: C_2  and  C_13
REMARK    2  A    between atoms: N_3  and  C_4
REMARK    3  A    between atoms: C_16  and  O_17
REMARK    4  A    between atoms: O_17  and  C_18
REMARK    5  A    between atoms: C_18  and  C_19
REMARK                            x       y       z     vdW  Elec       q    Type
REMARK                         _______ _______ _______ _____ _____    ______ ____
ROOT
ATOM      1  O   UNL     1       2.115   8.253  18.810  0.00  0.00    +0.000 OA
ATOM      2  C   UNL     1       1.763   7.942  19.944  0.00  0.00    +0.000 C 
ATOM      3  N   UNL     1       1.980   6.688  20.490  0.00  0.00    +0.000 N 
ATOM      4  H   UNL     1       1.411   6.409  21.282  0.00  0.00    +0.000 HD
ENDROOT
BRANCH   3   5
ATOM      5  C   UNL     1       2.586   5.636  19.673  0.00  0.00    +0.000 C 
ATOM      6  C   UNL     1       1.628   5.154  18.567  0.00  0.00    +0.000 C 
ATOM      7  C   UNL     1       2.353   4.190  17.623  0.00  0.00    +0.000 C 
ATOM      8  C   UNL     1       3.104   3.143  18.379  0.00  0.00    +0.000 A 
ATOM      9  N   UNL     1       3.581   2.009  17.913  0.00  0.00    +0.000 NA
ATOM     10  C   UNL     1       4.224   1.421  18.975  0.00  0.00    +0.000 A 
ATOM     11  C   UNL     1       4.127   2.204  20.102  0.00  0.00    +0.000 A 
ATOM     12  N   UNL     1       3.419   3.295  19.701  0.00  0.00    +0.000 N 
ATOM     13  C   UNL     1       3.025   4.423  20.521  0.00  0.00    +0.000 C 
ENDBRANCH   3   5
BRANCH   2  14
ATOM     14  C   UNL     1       1.059   8.937  20.775  0.00  0.00    +0.000 A 
ATOM     15  C   UNL     1       0.237   9.892  20.171  0.00  0.00    +0.000 A 
ATOM     16  C   UNL     1      -0.387  10.856  20.961  0.00  0.00    +0.000 A 
ATOM     17  C   UNL     1      -0.137  10.851  22.324  0.00  0.00    +0.000 A 
ATOM     18  N   UNL     1       0.658   9.944  22.935  0.00  0.00    +0.000 NA
ATOM     19  C   UNL     1       1.243   9.012  22.147  0.00  0.00    +0.000 A 
BRANCH  17  20
ATOM     20  O   UNL     1      -0.767  11.820  23.079  0.00  0.00    +0.000 OA
BRANCH  20  21
ATOM     21  C   UNL     1      -2.137  11.494  23.333  0.00  0.00    +0.000 C 
BRANCH  21  22
ATOM     22  C   UNL     1      -2.910  12.766  23.526  0.00  0.00    +0.000 C 
ATOM     23  C   UNL     1      -4.257  12.965  22.878  0.00  0.00    +0.000 C 
ATOM     24  C   UNL     1      -4.168  12.757  24.363  0.00  0.00    +0.000 C 
ENDBRANCH  21  22
ENDBRANCH  20  21
ENDBRANCH  17  20
ENDBRANCH   2  14
TORSDOF 5
ENDMDL
MODEL 6
REMARK VINA RESULT:      -6.7      0.872      1.286
REMARK  Name = 
REMARK  5 active torsions:
REMARK  status: ('A' for Active; 'I' for Inactive)
REMARK    1  A    between atoms: C_2  and  C_13
REMARK    2  A    between atoms: N_3  and  C_4
REMARK    3  A    between atoms: C_16  and  O_17
REMARK    4  A    between atoms: O_17  and  C_18
REMARK    5  A    between atoms: C_18  and  C_19
REMARK                            x       y       z     vdW  Elec       q    Type
REMARK                         _______ _______ _______ _____ _____    ______ ____
ROOT
ATOM      1  O   UNL     1       2.087   8.583  17.685  0.00  0.00    +0.000 OA
ATOM      2  C   UNL     1       2.099   8.076  18.803  0.00  0.00    +0.000 C 
ATOM      3  N   UNL     1       2.704   6.861  19.079  0.00  0.00    +0.000 N 
ATOM      4  H   UNL     1       2.421   6.368  19.918  0.00  0.00    +0.000 HD
ENDROOT
BRANCH   3   5
ATOM      5  C   UNL     1       3.302   6.084  17.992  0.00  0.00    +0.000 C 
ATOM      6  C   UNL     1       3.138   4.569  18.224  0.00  0.00    +0.000 C 
ATOM      7  C   UNL     1       3.608   3.793  16.990  0.00  0.00    +0.000 C 
ATOM      8  C   UNL     1       4.941   4.271  16.516  0.00  0.00    +0.000 A 
ATOM      9  N   UNL     1       5.762   3.657  15.691  0.00  0.00    +0.000 NA
ATOM     10  C   UNL     1       6.825   4.513  15.532  0.00  0.00    +0.000 A 
ATOM     11  C   UNL     1       6.650   5.657  16.276  0.00  0.00    +0.000 A 
ATOM     12  N   UNL     1       5.446   5.486  16.887  0.00  0.00    +0.000 N 
ATOM     13  C   UNL     1       4.800   6.404  17.803  0.00  0.00    +0.000 C 
ENDBRANCH   3   5
BRANCH   2  14
ATOM     14  C   UNL     1       1.425   8.772  19.915  0.00  0.00    +0.000 A 
ATOM     15  C   UNL     1       0.831  10.019  19.697  0.00  0.00    +0.000 A 
ATOM     16  C   UNL     1       0.238  10.689  20.765  0.00  0.00    +0.000 A 
ATOM     17  C   UNL     1       0.292  10.104  22.020  0.00  0.00    +0.000 A 
ATOM     18  N   UNL     1       0.865   8.903  22.262  0.00  0.00    +0.000 NA
ATOM     19  C   UNL     1       1.424   8.267  21.205  0.00  0.00    +0.000 A 
BRANCH  17  20
ATOM     20  O   UNL     1      -0.302  10.793  23.058  0.00  0.00    +0.000 OA
BRANCH  20  21
ATOM     21  C   UNL     1      -1.436  11.548  22.621  0.00  0.00    +0.000 C 
BRANCH  21  22
ATOM     22  C   UNL     1      -1.334  12.940  23.172  0.00  0.00    +0.000 C 
ATOM     23  C   UNL     1      -1.850  14.125  22.395  0.00  0.00    +0.000 C 
ATOM     24  C   UNL     1      -2.584  13.660  23.621  0.00  0.00    +0.000 C 
ENDBRANCH  21  22
ENDBRANCH  20  21
ENDBRANCH  17  20
ENDBRANCH   2  14
TORSDOF 5
ENDMDL
MODEL 7
REMARK VINA RESULT:      -6.6      3.120      9.734
REMARK  Name = 
REMARK  5 active torsions:
REMARK  status: ('A' for Active; 'I' for Inactive)
REMARK    1  A    between atoms: C_2  and  C_13
REMARK    2  A    between atoms: N_3  and  C_4
REMARK    3  A    between atoms: C_16  and  O_17
REMARK    4  A    between atoms: O_17  and  C_18
REMARK    5  A    between atoms: C_18  and  C_19
REMARK                            x       y       z     vdW  Elec       q    Type
REMARK                         _______ _______ _______ _____ _____    ______ ____
ROOT
ATOM      1  O   UNL     1       2.369   7.139  19.571  0.00  0.00    +0.000 OA
ATOM      2  C   UNL     1       2.740   7.368  18.423  0.00  0.00    +0.000 C 
ATOM      3  N   UNL     1       2.448   8.542  17.750  0.00  0.00    +0.000 N 
ATOM      4  H   UNL     1       2.513   8.540  16.738  0.00  0.00    +0.000 HD
ENDROOT
BRANCH   3   5
ATOM      5  C   UNL     1       1.594   9.548  18.382  0.00  0.00    +0.000 C 
ATOM      6  C   UNL     1       0.139   9.450  17.884  0.00  0.00    +0.000 C 
ATOM      7  C   UNL     1      -0.761  10.389  18.693  0.00  0.00    +0.000 C 
ATOM      8  C   UNL     1      -0.169  11.755  18.805  0.00  0.00    +0.000 A 
ATOM      9  N   UNL     1      -0.781  12.864  19.161  0.00  0.00    +0.000 NA
ATOM     10  C   UNL     1       0.191  13.834  19.156  0.00  0.00    +0.000 A 
ATOM     11  C   UNL     1       1.407  13.309  18.784  0.00  0.00    +0.000 A 
ATOM     12  N   UNL     1       1.159  11.988  18.573  0.00  0.00    +0.000 N 
ATOM     13  C   UNL     1       2.110  10.983  18.144  0.00  0.00    +0.000 C 
ENDBRANCH   3   5
BRANCH   2  14
ATOM     14  C   UNL     1       3.522   6.344  17.704  0.00  0.00    +0.000 A 
ATOM     15  C   UNL     1       4.596   6.729  16.897  0.00  0.00    +0.000 A 
ATOM     16  C   UNL     1       5.299   5.758  16.185  0.00  0.00    +0.000 A 
ATOM     17  C   UNL     1       4.878   4.441  16.280  0.00  0.00    +0.000 A 
ATOM     18  N   UNL     1       3.839   4.040  17.048  0.00  0.00    +0.000 NA
ATOM     19  C   UNL     1       3.181   5.001  17.737  0.00  0.00    +0.000 A 
BRANCH  17  20
ATOM     20  O   UNL     1       5.593   3.503  15.561  0.00  0.00    +0.000 OA
BRANCH  20  21
ATOM     21  C   UNL     1       6.515   4.112  14.654  0.00  0.00    +0.000 C 
BRANCH  21  22
ATOM     22  C   UNL     1       5.976   3.991  13.259  0.00  0.00    +0.000 C 
ATOM     23  C   UNL     1       6.835   4.307  12.061  0.00  0.00    +0.000 C 
ATOM     24  C   UNL     1       6.469   2.881  12.360  0.00  0.00    +0.000 C 
ENDBRANCH  21  22
ENDBRANCH  20  21
ENDBRANCH  17  20
ENDBRANCH   2  14
TORSDOF 5
ENDMDL
MODEL 8
REMARK VINA RESULT:      -6.5      2.074      2.310
REMARK  Name = 
REMARK  5 active torsions:
REMARK  status: ('A' for Active; 'I' for Inactive)
REMARK    1  A    between atoms: C_2  and  C_13
REMARK    2  A    between atoms: N_3  and  C_4
REMARK    3  A    between atoms: C_16  and  O_17
REMARK    4  A    between atoms: O_17  and  C_18
REMARK    5  A    between atoms: C_18  and  C_19
REMARK                            x       y       z     vdW  Elec       q    Type
REMARK                         _______ _______ _______ _____ _____    ______ ____
ROOT
ATOM      1  O   UNL     1       2.073   8.069  18.457  0.00  0.00    +0.000 OA
ATOM      2  C   UNL     1       1.855   7.851  19.645  0.00  0.00    +0.000 C 
ATOM      3  N   UNL     1       2.124   6.637  20.256  0.00  0.00    +0.000 N 
ATOM      4  H   UNL     1       1.650   6.428  21.128  0.00  0.00    +0.000 HD
ENDROOT
BRANCH   3   5
ATOM      5  C   UNL     1       2.621   5.516  19.457  0.00  0.00    +0.000 C 
ATOM      6  C   UNL     1       1.528   4.951  18.530  0.00  0.00    +0.000 C 
ATOM      7  C   UNL     1       2.126   3.907  17.583  0.00  0.00    +0.000 C 
ATOM      8  C   UNL     1       2.973   2.921  18.318  0.00  0.00    +0.000 A 
ATOM      9  N   UNL     1       3.390   1.749  17.889  0.00  0.00    +0.000 NA
ATOM     10  C   UNL     1       4.169   1.246  18.903  0.00  0.00    +0.000 A 
ATOM     11  C   UNL     1       4.218   2.121  19.964  0.00  0.00    +0.000 A 
ATOM     12  N   UNL     1       3.460   3.180  19.570  0.00  0.00    +0.000 N 
ATOM     13  C   UNL     1       3.173   4.374  20.337  0.00  0.00    +0.000 C 
ENDBRANCH   3   5
BRANCH   2  14
ATOM     14  C   UNL     1       1.262   8.917  20.474  0.00  0.00    +0.000 A 
ATOM     15  C   UNL     1       0.870   8.641  21.787  0.00  0.00    +0.000 A 
ATOM     16  C   UNL     1       0.267   9.643  22.546  0.00  0.00    +0.000 A 
ATOM     17  C   UNL     1       0.047  10.875  21.950  0.00  0.00    +0.000 A 
ATOM     18  N   UNL     1       0.410  11.168  20.681  0.00  0.00    +0.000 NA
ATOM     19  C   UNL     1       1.003  10.181  19.970  0.00  0.00    +0.000 A 
BRANCH  17  20
ATOM     20  O   UNL     1      -0.554  11.846  22.727  0.00  0.00    +0.000 OA
BRANCH  20  21
ATOM     21  C   UNL     1      -1.820  11.417  23.236  0.00  0.00    +0.000 C 
BRANCH  21  22
ATOM     22  C   UNL     1      -2.694  12.620  23.440  0.00  0.00    +0.000 C 
ATOM     23  C   UNL     1      -4.034  12.735  22.759  0.00  0.00    +0.000 C 
ATOM     24  C   UNL     1      -3.969  12.492  24.240  0.00  0.00    +0.000 C 
ENDBRANCH  21  22
ENDBRANCH  20  21
ENDBRANCH  17  20
ENDBRANCH   2  14
TORSDOF 5
ENDMDL
MODEL 9
REMARK VINA RESULT:      -6.5      2.398      9.393
REMARK  Name = 
REMARK  5 active torsions:
REMARK  status: ('A' for Active; 'I' for Inactive)
REMARK    1  A    between atoms: C_2  and  C_13
REMARK    2  A    between atoms: N_3  and  C_4
REMARK    3  A    between atoms: C_16  and  O_17
REMARK    4  A    between atoms: O_17  and  C_18
REMARK    5  A    between atoms: C_18  and  C_19
REMARK                            x       y       z     vdW  Elec       q    Type
REMARK                         _______ _______ _______ _____ _____    ______ ____
ROOT
ATOM      1  O   UNL     1       1.391   7.705  20.923  0.00  0.00    +0.000 OA
ATOM      2  C   UNL     1       1.809   7.905  19.786  0.00  0.00    +0.000 C 
ATOM      3  N   UNL     1       1.399   8.972  19.004  0.00  0.00    +0.000 N 
ATOM      4  H   UNL     1       1.538   8.908  18.001  0.00  0.00    +0.000 HD
ENDROOT
BRANCH   3   5
ATOM      5  C   UNL     1       0.363   9.880  19.498  0.00  0.00    +0.000 C 
ATOM      6  C   UNL     1      -0.638  10.255  18.388  0.00  0.00    +0.000 C 
ATOM      7  C   UNL     1      -1.805  11.053  18.977  0.00  0.00    +0.000 C 
ATOM      8  C   UNL     1      -1.324  12.155  19.863  0.00  0.00    +0.000 A 
ATOM      9  N   UNL     1      -2.009  13.195  20.287  0.00  0.00    +0.000 NA
ATOM     10  C   UNL     1      -1.149  13.888  21.104  0.00  0.00    +0.000 A 
ATOM     11  C   UNL     1       0.076  13.265  21.169  0.00  0.00    +0.000 A 
ATOM     12  N   UNL     1      -0.058  12.164  20.381  0.00  0.00    +0.000 N 
ATOM     13  C   UNL     1       0.959  11.172  20.095  0.00  0.00    +0.000 C 
ENDBRANCH   3   5
BRANCH   2  14
ATOM     14  C   UNL     1       2.783   6.963  19.202  0.00  0.00    +0.000 A 
ATOM     15  C   UNL     1       3.361   7.241  17.961  0.00  0.00    +0.000 A 
ATOM     16  C   UNL     1       4.244   6.322  17.397  0.00  0.00    +0.000 A 
ATOM     17  C   UNL     1       4.489   5.141  18.081  0.00  0.00    +0.000 A 
ATOM     18  N   UNL     1       3.939   4.843  19.280  0.00  0.00    +0.000 NA
ATOM     19  C   UNL     1       3.094   5.758  19.811  0.00  0.00    +0.000 A 
BRANCH  17  20
ATOM     20  O   UNL     1       5.366   4.250  17.496  0.00  0.00    +0.000 OA
BRANCH  20  21
ATOM     21  C   UNL     1       6.332   4.910  16.673  0.00  0.00    +0.000 C 
BRANCH  21  22
ATOM     22  C   UNL     1       6.541   4.102  15.426  0.00  0.00    +0.000 C 
ATOM     23  C   UNL     1       5.582   4.197  14.266  0.00  0.00    +0.000 C 
ATOM     24  C   UNL     1       6.956   4.793  14.147  0.00  0.00    +0.000 C 
ENDBRANCH  21  22
ENDBRANCH  20  21
ENDBRANCH  17  20
ENDBRANCH   2  14
TORSDOF 5
ENDMDL
