MODEL 1
REMARK VINA RESULT:      -7.8      0.000      0.000
REMARK  Name = 
REMARK  6 active torsions:
REMARK  status: ('A' for Active; 'I' for Inactive)
REMARK    1  A    between atoms: C_2  and  C_10
REMARK    2  A    between atoms: N_3  and  C_4
REMARK    3  A    between atoms: C_4  and  C_5
REMARK    4  A    between atoms: C_12  and  S_13
REMARK    5  A    between atoms: S_13  and  N_16
REMARK    6  A    between atoms: C_24  and  N_25
REMARK                            x       y       z     vdW  Elec       q    Type
REMARK                         _______ _______ _______ _____ _____    ______ ____
ROOT
ATOM      1  C   UNL     1       1.033   8.848  20.154  0.00  0.00    +0.000 A 
ATOM      2  C   UNL     1       1.711   7.605  20.043  0.00  0.00    +0.000 A 
ATOM      3  C   UNL     1       2.440   7.281  18.896  0.00  0.00    +0.000 A 
ATOM      4  C   UNL     1       2.489   8.192  17.849  0.00  0.00    +0.000 A 
ATOM      5  C   UNL     1       1.834   9.427  17.968  0.00  0.00    +0.000 A 
ATOM      6  C   UNL     1       1.115   9.820  19.121  0.00  0.00    +0.000 A 
ENDROOT
BRANCH   6   7
ATOM      7  N   UNL     1       0.605  11.104  19.143  0.00  0.00    +0.000 N 
ATOM      8  C   UNL     1      -0.764  11.529  18.870  0.00  0.00    +0.000 C 
ATOM      9  C   UNL     1      -0.565  12.848  18.132  0.00  0.00    +0.000 C 
ATOM     10  C   UNL     1       0.604  13.473  18.878  0.00  0.00    +0.000 C 
ATOM     11  C   UNL     1       1.467  12.282  19.305  0.00  0.00    +0.000 C 
ENDBRANCH   6   7
BRANCH   1  13
ATOM     12  O   UNL     1      -0.637   8.084  21.668  0.00  0.00    +0.000 OA
ATOM     13  C   UNL     1       0.117   8.991  21.334  0.00  0.00    +0.000 C 
ATOM     14  N   UNL     1       0.210  10.171  22.049  0.00  0.00    +0.000 N 
ATOM     15  H   UNL     1       0.768  10.940  21.707  0.00  0.00    +0.000 HD
BRANCH  14  16
ATOM     16  C   UNL     1      -0.682  10.442  23.154  0.00  0.00    +0.000 C 
BRANCH  16  17
ATOM     17  C   UNL     1      -1.275  11.801  22.964  0.00  0.00    +0.000 A 
ATOM     18  C   UNL     1      -0.670  12.924  22.431  0.00  0.00    +0.000 A 
ATOM     19  C   UNL     1      -1.538  14.052  22.415  0.00  0.00    +0.000 A 
ATOM     20  C   UNL     1      -2.776  13.755  22.936  0.00  0.00    +0.000 A 
ATOM     21  S   UNL     1      -2.888  12.124  23.440  0.00  0.00    +0.000 S 
ENDBRANCH  16  17
ENDBRANCH  14  16
ENDBRANCH   1  13
BRANCH   3  22
ATOM     22  S   UNL     1       3.513   5.853  18.881  0.00  0.00    +0.000 S 
ATOM     23  O   UNL     1       4.810   6.320  18.418  0.00  0.00    +0.000 OA
ATOM     24  O   UNL     1       3.383   5.234  20.179  0.00  0.00    +0.000 OA
BRANCH  22  25
ATOM     25  N   UNL     1       2.927   4.781  17.730  0.00  0.00    +0.000 NA
ATOM     26  C   UNL     1       1.510   4.364  17.730  0.00  0.00    +0.000 C 
ATOM     27  C   UNL     1       1.348   3.034  18.471  0.00  0.00    +0.000 C 
ATOM     28  O   UNL     1       2.223   2.015  17.960  0.00  0.00    +0.000 OA
ATOM     29  C   UNL     1       3.602   2.415  17.921  0.00  0.00    +0.000 C 
ATOM     30  C   UNL     1       3.790   3.728  17.160  0.00  0.00    +0.000 C 
ENDBRANCH  22  25
ENDBRANCH   3  22
TORSDOF 6
ENDMDL
MODEL 2
REMARK VINA RESULT:      -7.6      0.940      1.012
REMARK  Name = 
REMARK  6 active torsions:
REMARK  status: ('A' for Active; 'I' for Inactive)
REMARK    1  A    between atoms: C_2  and  C_10
REMARK    2  A    between atoms: N_3  and  C_4
REMARK    3  A    between atoms: C_4  and  C_5
REMARK    4  A    between atoms: C_12  and  S_13
REMARK    5  A    between atoms: S_13  and  N_16
REMARK    6  A    between atoms: C_24  and  N_25
REMARK                            x       y       z     vdW  Elec       q    Type
REMARK                         _______ _______ _______ _____ _____    ______ ____
ROOT
ATOM      1  C   UNL     1       1.302   9.222  20.334  0.00  0.00    +0.000 A 
ATOM      2  C   UNL     1       1.817   7.907  20.178  0.00  0.00    +0.000 A 
ATOM      3  C   UNL     1       2.115   7.396  18.911  0.00  0.00    +0.000 A 
ATOM      4  C   UNL     1       1.891   8.189  17.795  0.00  0.00    +0.000 A 
ATOM      5  C   UNL     1       1.398   9.493  17.953  0.00  0.00    +0.000 A 
ATOM      6  C   UNL     1       1.117  10.074  19.212  0.00  0.00    +0.000 A 
ENDROOT
BRANCH   6   7
ATOM      7  N   UNL     1       0.734  11.401  19.228  0.00  0.00    +0.000 N 
ATOM      8  C   UNL     1      -0.561  11.964  18.862  0.00  0.00    +0.000 C 
ATOM      9  C   UNL     1      -0.177  13.270  18.175  0.00  0.00    +0.000 C 
ATOM     10  C   UNL     1       0.985  13.762  19.025  0.00  0.00    +0.000 C 
ATOM     11  C   UNL     1       1.691  12.484  19.486  0.00  0.00    +0.000 C 
ENDBRANCH   6   7
BRANCH   1  13
ATOM     12  O   UNL     1       1.537   9.408  22.695  0.00  0.00    +0.000 OA
ATOM     13  C   UNL     1       0.825   9.577  21.712  0.00  0.00    +0.000 C 
ATOM     14  N   UNL     1      -0.430  10.150  21.803  0.00  0.00    +0.000 N 
ATOM     15  H   UNL     1      -1.037  10.197  20.996  0.00  0.00    +0.000 HD
BRANCH  14  16
ATOM     16  C   UNL     1      -1.015  10.457  23.089  0.00  0.00    +0.000 C 
BRANCH  16  17
ATOM     17  C   UNL     1      -1.528  11.860  23.055  0.00  0.00    +0.000 A 
ATOM     18  C   UNL     1      -0.865  12.996  22.629  0.00  0.00    +0.000 A 
ATOM     19  C   UNL     1      -1.664  14.168  22.750  0.00  0.00    +0.000 A 
ATOM     20  C   UNL     1      -2.910  13.890  23.266  0.00  0.00    +0.000 A 
ATOM     21  S   UNL     1      -3.111  12.224  23.599  0.00  0.00    +0.000 S 
ENDBRANCH  16  17
ENDBRANCH  14  16
ENDBRANCH   1  13
BRANCH   3  22
ATOM     22  S   UNL     1       3.021   5.866  18.746  0.00  0.00    +0.000 S 
ATOM     23  O   UNL     1       3.749   5.954  17.491  0.00  0.00    +0.000 OA
ATOM     24  O   UNL     1       3.732   5.678  19.989  0.00  0.00    +0.000 OA
BRANCH  22  25
ATOM     25  N   UNL     1       1.906   4.621  18.590  0.00  0.00    +0.000 NA
ATOM     26  C   UNL     1       1.254   4.030  19.777  0.00  0.00    +0.000 C 
ATOM     27  C   UNL     1       2.000   2.769  20.219  0.00  0.00    +0.000 C 
ATOM     28  O   UNL     1       2.157   1.824  19.149  0.00  0.00    +0.000 OA
ATOM     29  C   UNL     1       2.759   2.389  17.974  0.00  0.00    +0.000 C 
ATOM     30  C   UNL     1       2.011   3.635  17.497  0.00  0.00    +0.000 C 
ENDBRANCH  22  25
ENDBRANCH   3  22
TORSDOF 6
ENDMDL
MODEL 3
REMARK VINA RESULT:      -7.4      0.939      1.194
REMARK  Name = 
REMARK  6 active torsions:
REMARK  status: ('A' for Active; 'I' for Inactive)
REMARK    1  A    between atoms: C_2  and  C_10
REMARK    2  A    between atoms: N_3  and  C_4
REMARK    3  A    between atoms: C_4  and  C_5
REMARK    4  A    between atoms: C_12  and  S_13
REMARK    5  A    between atoms: S_13  and  N_16
REMARK    6  A    between atoms: C_24  and  N_25
REMARK                            x       y       z     vdW  Elec       q    Type
REMARK                         _______ _______ _______ _____ _____    ______ ____
ROOT
ATOM      1  C   UNL     1       1.271   9.212  20.497  0.00  0.00    +0.000 A 
ATOM      2  C   UNL     1       1.743   7.874  20.566  0.00  0.00    +0.000 A 
ATOM      3  C   UNL     1       2.105   7.177  19.410  0.00  0.00    +0.000 A 
ATOM      4  C   UNL     1       1.988   7.807  18.179  0.00  0.00    +0.000 A 
ATOM      5  C   UNL     1       1.538   9.135  18.115  0.00  0.00    +0.000 A 
ATOM      6  C   UNL     1       1.196   9.898  19.256  0.00  0.00    +0.000 A 
ENDROOT
BRANCH   6   7
ATOM      7  N   UNL     1       0.865  11.224  19.056  0.00  0.00    +0.000 N 
ATOM      8  C   UNL     1       1.660  12.405  19.376  0.00  0.00    +0.000 C 
ATOM      9  C   UNL     1       0.606  13.401  19.847  0.00  0.00    +0.000 C 
ATOM     10  C   UNL     1      -0.550  13.135  18.896  0.00  0.00    +0.000 C 
ATOM     11  C   UNL     1      -0.472  11.634  18.607  0.00  0.00    +0.000 C 
ENDBRANCH   6   7
BRANCH   1  13
ATOM     12  O   UNL     1       1.387   9.806  22.799  0.00  0.00    +0.000 OA
ATOM     13  C   UNL     1       0.717   9.776  21.773  0.00  0.00    +0.000 C 
ATOM     14  N   UNL     1      -0.560  10.303  21.712  0.00  0.00    +0.000 N 
ATOM     15  H   UNL     1      -1.129  10.186  20.885  0.00  0.00    +0.000 HD
BRANCH  14  16
ATOM     16  C   UNL     1      -1.216  10.798  22.902  0.00  0.00    +0.000 C 
BRANCH  16  17
ATOM     17  C   UNL     1      -1.610  12.221  22.669  0.00  0.00    +0.000 A 
ATOM     18  C   UNL     1      -0.975  13.362  23.123  0.00  0.00    +0.000 A 
ATOM     19  C   UNL     1      -1.642  14.553  22.715  0.00  0.00    +0.000 A 
ATOM     20  C   UNL     1      -2.763  14.282  21.964  0.00  0.00    +0.000 A 
ATOM     21  S   UNL     1      -3.006  12.602  21.753  0.00  0.00    +0.000 S 
ENDBRANCH  16  17
ENDBRANCH  14  16
ENDBRANCH   1  13
BRANCH   3  22
ATOM     22  S   UNL     1       2.959   5.613  19.529  0.00  0.00    +0.000 S 
ATOM     23  O   UNL     1       4.380   5.916  19.463  0.00  0.00    +0.000 OA
ATOM     24  O   UNL     1       2.412   4.937  20.682  0.00  0.00    +0.000 OA
BRANCH  22  25
ATOM     25  N   UNL     1       2.576   4.712  18.166  0.00  0.00    +0.000 NA
ATOM     26  C   UNL     1       1.341   3.902  18.111  0.00  0.00    +0.000 C 
ATOM     27  C   UNL     1       1.641   2.451  18.496  0.00  0.00    +0.000 C 
ATOM     28  O   UNL     1       2.705   1.887  17.712  0.00  0.00    +0.000 OA
ATOM     29  C   UNL     1       3.904   2.678  17.727  0.00  0.00    +0.000 C 
ATOM     30  C   UNL     1       3.632   4.127  17.317  0.00  0.00    +0.000 C 
ENDBRANCH  22  25
ENDBRANCH   3  22
TORSDOF 6
ENDMDL
MODEL 4
REMARK VINA RESULT:      -7.3      0.856      1.264
REMARK  Name = 
REMARK  6 active torsions:
REMARK  status: ('A' for Active; 'I' for Inactive)
REMARK    1  A    between atoms: C_2  and  C_10
REMARK    2  A    between atoms: N_3  and  C_4
REMARK    3  A    between atoms: C_4  and  C_5
REMARK    4  A    between atoms: C_12  and  S_13
REMARK    5  A    between atoms: S_13  and  N_16
REMARK    6  A    between atoms: C_24  and  N_25
REMARK                            x       y       z     vdW  Elec       q    Type
REMARK                         _______ _______ _______ _____ _____    ______ ____
ROOT
ATOM      1  C   UNL     1       1.079   8.738  20.118  0.00  0.00    +0.000 A 
ATOM      2  C   UNL     1       1.731   7.480  20.014  0.00  0.00    +0.000 A 
ATOM      3  C   UNL     1       2.445   7.130  18.865  0.00  0.00    +0.000 A 
ATOM      4  C   UNL     1       2.504   8.030  17.809  0.00  0.00    +0.000 A 
ATOM      5  C   UNL     1       1.874   9.279  17.921  0.00  0.00    +0.000 A 
ATOM      6  C   UNL     1       1.172   9.698  19.075  0.00  0.00    +0.000 A 
ENDROOT
BRANCH   6   7
ATOM      7  N   UNL     1       0.688  10.991  19.088  0.00  0.00    +0.000 N 
ATOM      8  C   UNL     1      -0.695  11.433  18.936  0.00  0.00    +0.000 C 
ATOM      9  C   UNL     1      -0.550  12.713  18.120  0.00  0.00    +0.000 C 
ATOM     10  C   UNL     1       0.699  13.345  18.714  0.00  0.00    +0.000 C 
ATOM     11  C   UNL     1       1.581  12.157  19.107  0.00  0.00    +0.000 C 
ENDBRANCH   6   7
BRANCH   1  13
ATOM     12  O   UNL     1      -0.616   8.033  21.634  0.00  0.00    +0.000 OA
ATOM     13  C   UNL     1       0.175   8.909  21.303  0.00  0.00    +0.000 C 
ATOM     14  N   UNL     1       0.320  10.079  22.027  0.00  0.00    +0.000 N 
ATOM     15  H   UNL     1       0.909  10.827  21.688  0.00  0.00    +0.000 HD
BRANCH  14  16
ATOM     16  C   UNL     1      -0.555  10.379  23.138  0.00  0.00    +0.000 C 
BRANCH  16  17
ATOM     17  C   UNL     1      -1.169  11.722  22.909  0.00  0.00    +0.000 A 
ATOM     18  C   UNL     1      -0.589  12.833  22.326  0.00  0.00    +0.000 A 
ATOM     19  C   UNL     1      -1.473  13.948  22.284  0.00  0.00    +0.000 A 
ATOM     20  C   UNL     1      -2.698  13.654  22.838  0.00  0.00    +0.000 A 
ATOM     21  S   UNL     1      -2.778  12.041  23.402  0.00  0.00    +0.000 S 
ENDBRANCH  16  17
ENDBRANCH  14  16
ENDBRANCH   1  13
BRANCH   3  22
ATOM     22  S   UNL     1       3.488   5.681  18.856  0.00  0.00    +0.000 S 
ATOM     23  O   UNL     1       3.571   5.244  17.472  0.00  0.00    +0.000 OA
ATOM     24  O   UNL     1       4.686   6.038  19.579  0.00  0.00    +0.000 OA
BRANCH  22  25
ATOM     25  N   UNL     1       2.700   4.474  19.715  0.00  0.00    +0.000 NA
ATOM     26  C   UNL     1       3.431   3.284  20.199  0.00  0.00    +0.000 C 
ATOM     27  C   UNL     1       3.275   2.127  19.209  0.00  0.00    +0.000 C 
ATOM     28  O   UNL     1       1.899   1.845  18.910  0.00  0.00    +0.000 OA
ATOM     29  C   UNL     1       1.164   2.998  18.469  0.00  0.00    +0.000 C 
ATOM     30  C   UNL     1       1.281   4.158  19.459  0.00  0.00    +0.000 C 
ENDBRANCH  22  25
ENDBRANCH   3  22
TORSDOF 6
ENDMDL
MODEL 5
REMARK VINA RESULT:      -7.3      1.297      1.591
REMARK  Name = 
REMARK  6 active torsions:
REMARK  status: ('A' for Active; 'I' for Inactive)
REMARK    1  A    between atoms: C_2  and  C_10
REMARK    2  A    between atoms: N_3  and  C_4
REMARK    3  A    between atoms: C_4  and  C_5
REMARK    4  A    between atoms: C_12  and  S_13
REMARK    5  A    between atoms: S_13  and  N_16
REMARK    6  A    between atoms: C_24  and  N_25
REMARK                            x       y       z     vdW  Elec       q    Type
REMARK                         _______ _______ _______ _____ _____    ______ ____
ROOT
ATOM      1  C   UNL     1       1.313   9.378  20.283  0.00  0.00    +0.000 A 
ATOM      2  C   UNL     1       1.723   8.021  20.195  0.00  0.00    +0.000 A 
ATOM      3  C   UNL     1       2.045   7.444  18.963  0.00  0.00    +0.000 A 
ATOM      4  C   UNL     1       1.951   8.214  17.813  0.00  0.00    +0.000 A 
ATOM      5  C   UNL     1       1.562   9.560  17.904  0.00  0.00    +0.000 A 
ATOM      6  C   UNL     1       1.263  10.203  19.128  0.00  0.00    +0.000 A 
ENDROOT
BRANCH   6   7
ATOM      7  N   UNL     1       0.993  11.557  19.083  0.00  0.00    +0.000 N 
ATOM      8  C   UNL     1       1.810  12.652  19.597  0.00  0.00    +0.000 C 
ATOM      9  C   UNL     1       0.766  13.625  20.134  0.00  0.00    +0.000 C 
ATOM     10  C   UNL     1      -0.340  13.533  19.094  0.00  0.00    +0.000 C 
ATOM     11  C   UNL     1      -0.299  12.078  18.618  0.00  0.00    +0.000 C 
ENDBRANCH   6   7
BRANCH   1  13
ATOM     12  O   UNL     1       1.454   9.668  22.641  0.00  0.00    +0.000 OA
ATOM     13  C   UNL     1       0.793   9.818  21.620  0.00  0.00    +0.000 C 
ATOM     14  N   UNL     1      -0.439  10.445  21.628  0.00  0.00    +0.000 N 
ATOM     15  H   UNL     1      -1.009  10.477  20.794  0.00  0.00    +0.000 HD
BRANCH  14  16
ATOM     16  C   UNL     1      -1.066  10.836  22.872  0.00  0.00    +0.000 C 
BRANCH  16  17
ATOM     17  C   UNL     1      -1.598  12.224  22.719  0.00  0.00    +0.000 A 
ATOM     18  C   UNL     1      -1.142  13.379  23.327  0.00  0.00    +0.000 A 
ATOM     19  C   UNL     1      -1.901  14.524  22.954  0.00  0.00    +0.000 A 
ATOM     20  C   UNL     1      -2.912  14.207  22.076  0.00  0.00    +0.000 A 
ATOM     21  S   UNL     1      -2.941  12.538  21.703  0.00  0.00    +0.000 S 
ENDBRANCH  16  17
ENDBRANCH  14  16
ENDBRANCH   1  13
BRANCH   3  22
ATOM     22  S   UNL     1       2.826   5.839  18.895  0.00  0.00    +0.000 S 
ATOM     23  O   UNL     1       3.340   5.691  17.544  0.00  0.00    +0.000 OA
ATOM     24  O   UNL     1       3.722   5.775  20.026  0.00  0.00    +0.000 OA
BRANCH  22  25
ATOM     25  N   UNL     1       1.634   4.677  19.107  0.00  0.00    +0.000 NA
ATOM     26  C   UNL     1       1.113   4.358  20.453  0.00  0.00    +0.000 C 
ATOM     27  C   UNL     1       1.841   3.140  21.029  0.00  0.00    +0.000 C 
ATOM     28  O   UNL     1       1.804   2.012  20.141  0.00  0.00    +0.000 OA
ATOM     29  C   UNL     1       2.277   2.312  18.818  0.00  0.00    +0.000 C 
ATOM     30  C   UNL     1       1.541   3.507  18.211  0.00  0.00    +0.000 C 
ENDBRANCH  22  25
ENDBRANCH   3  22
TORSDOF 6
ENDMDL
MODEL 6
REMARK VINA RESULT:      -7.2      1.675      2.051
REMARK  Name = 
REMARK  6 active torsions:
REMARK  status: ('A' for Active; 'I' for Inactive)
REMARK    1  A    between atoms: C_2  and  C_10
REMARK    2  A    between atoms: N_3  and  C_4
REMARK    3  A    between atoms: C_4  and  C_5
REMARK    4  A    between atoms: C_12  and  S_13
REMARK    5  A    between atoms: S_13  and  N_16
REMARK    6  A    between atoms: C_24  and  N_25
REMARK                            x       y       z     vdW  Elec       q    Type
REMARK                         _______ _______ _______ _____ _____    ______ ____
ROOT
ATOM      1  C   UNL     1       1.318   9.235  20.331  0.00  0.00    +0.000 A 
ATOM      2  C   UNL     1       1.842   7.923  20.176  0.00  0.00    +0.000 A 
ATOM      3  C   UNL     1       2.147   7.414  18.911  0.00  0.00    +0.000 A 
ATOM      4  C   UNL     1       1.922   8.205  17.793  0.00  0.00    +0.000 A 
ATOM      5  C   UNL     1       1.420   9.507  17.950  0.00  0.00    +0.000 A 
ATOM      6  C   UNL     1       1.132  10.085  19.208  0.00  0.00    +0.000 A 
ENDROOT
BRANCH   6   7
ATOM      7  N   UNL     1       0.741  11.410  19.223  0.00  0.00    +0.000 N 
ATOM      8  C   UNL     1      -0.572  11.961  18.904  0.00  0.00    +0.000 C 
ATOM      9  C   UNL     1      -0.225  13.260  18.185  0.00  0.00    +0.000 C 
ATOM     10  C   UNL     1       0.968  13.770  18.978  0.00  0.00    +0.000 C 
ATOM     11  C   UNL     1       1.701  12.503  19.426  0.00  0.00    +0.000 C 
ENDBRANCH   6   7
BRANCH   1  13
ATOM     12  O   UNL     1       1.553   9.445  22.690  0.00  0.00    +0.000 OA
ATOM     13  C   UNL     1       0.835   9.587  21.707  0.00  0.00    +0.000 C 
ATOM     14  N   UNL     1      -0.435  10.127  21.797  0.00  0.00    +0.000 N 
ATOM     15  H   UNL     1      -1.045  10.151  20.991  0.00  0.00    +0.000 HD
BRANCH  14  16
ATOM     16  C   UNL     1      -1.026  10.426  23.082  0.00  0.00    +0.000 C 
BRANCH  16  17
ATOM     17  C   UNL     1      -1.505  11.842  23.065  0.00  0.00    +0.000 A 
ATOM     18  C   UNL     1      -0.810  12.969  22.669  0.00  0.00    +0.000 A 
ATOM     19  C   UNL     1      -1.583  14.158  22.799  0.00  0.00    +0.000 A 
ATOM     20  C   UNL     1      -2.842  13.900  23.292  0.00  0.00    +0.000 A 
ATOM     21  S   UNL     1      -3.087  12.234  23.592  0.00  0.00    +0.000 S 
ENDBRANCH  16  17
ENDBRANCH  14  16
ENDBRANCH   1  13
BRANCH   3  22
ATOM     22  S   UNL     1       3.062   5.889  18.748  0.00  0.00    +0.000 S 
ATOM     23  O   UNL     1       3.230   5.367  20.095  0.00  0.00    +0.000 OA
ATOM     24  O   UNL     1       2.378   5.108  17.744  0.00  0.00    +0.000 OA
BRANCH  22  25
ATOM     25  N   UNL     1       4.590   6.266  18.165  0.00  0.00    +0.000 NA
ATOM     26  C   UNL     1       4.802   6.582  16.737  0.00  0.00    +0.000 C 
ATOM     27  C   UNL     1       5.258   5.333  15.978  0.00  0.00    +0.000 C 
ATOM     28  O   UNL     1       6.405   4.716  16.582  0.00  0.00    +0.000 OA
ATOM     29  C   UNL     1       6.229   4.430  17.979  0.00  0.00    +0.000 C 
ATOM     30  C   UNL     1       5.802   5.672  18.762  0.00  0.00    +0.000 C 
ENDBRANCH  22  25
ENDBRANCH   3  22
TORSDOF 6
ENDMDL
MODEL 7
REMARK VINA RESULT:      -7.2      1.518      2.190
REMARK  Name = 
REMARK  6 active torsions:
REMARK  status: ('A' for Active; 'I' for Inactive)
REMARK    1  A    between atoms: C_2  and  C_10
REMARK    2  A    between atoms: N_3  and  C_4
REMARK    3  A    between atoms: C_4  and  C_5
REMARK    4  A    between atoms: C_12  and  S_13
REMARK    5  A    between atoms: S_13  and  N_16
REMARK    6  A    between atoms: C_24  and  N_25
REMARK                            x       y       z     vdW  Elec       q    Type
REMARK                         _______ _______ _______ _____ _____    ______ ____
ROOT
ATOM      1  C   UNL     1       1.181   8.868  19.932  0.00  0.00    +0.000 A 
ATOM      2  C   UNL     1       1.845   7.627  19.740  0.00  0.00    +0.000 A 
ATOM      3  C   UNL     1       2.542   7.358  18.559  0.00  0.00    +0.000 A 
ATOM      4  C   UNL     1       2.572   8.321  17.560  0.00  0.00    +0.000 A 
ATOM      5  C   UNL     1       1.930   9.553  17.759  0.00  0.00    +0.000 A 
ATOM      6  C   UNL     1       1.244   9.892  18.949  0.00  0.00    +0.000 A 
ENDROOT
BRANCH   6   7
ATOM      7  N   UNL     1       0.745  11.176  19.050  0.00  0.00    +0.000 N 
ATOM      8  C   UNL     1      -0.623  11.627  18.818  0.00  0.00    +0.000 C 
ATOM      9  C   UNL     1      -0.420  12.985  18.155  0.00  0.00    +0.000 C 
ATOM     10  C   UNL     1       0.763  13.556  18.922  0.00  0.00    +0.000 C 
ATOM     11  C   UNL     1       1.619  12.335  19.270  0.00  0.00    +0.000 C 
ENDBRANCH   6   7
BRANCH   1  13
ATOM     12  O   UNL     1      -0.422   8.020  21.474  0.00  0.00    +0.000 OA
ATOM     13  C   UNL     1       0.296   8.955  21.141  0.00  0.00    +0.000 C 
ATOM     14  N   UNL     1       0.376  10.120  21.882  0.00  0.00    +0.000 N 
ATOM     15  H   UNL     1       0.902  10.914  21.543  0.00  0.00    +0.000 HD
BRANCH  14  16
ATOM     16  C   UNL     1      -0.490  10.339  23.019  0.00  0.00    +0.000 C 
BRANCH  16  17
ATOM     17  C   UNL     1      -1.122  11.686  22.883  0.00  0.00    +0.000 A 
ATOM     18  C   UNL     1      -0.567  12.833  22.345  0.00  0.00    +0.000 A 
ATOM     19  C   UNL     1      -1.461  13.941  22.390  0.00  0.00    +0.000 A 
ATOM     20  C   UNL     1      -2.667  13.605  22.963  0.00  0.00    +0.000 A 
ATOM     21  S   UNL     1      -2.718  11.962  23.439  0.00  0.00    +0.000 S 
ENDBRANCH  16  17
ENDBRANCH  14  16
ENDBRANCH   1  13
BRANCH   3  22
ATOM     22  S   UNL     1       3.602   5.926  18.442  0.00  0.00    +0.000 S 
ATOM     23  O   UNL     1       4.322   5.845  19.703  0.00  0.00    +0.000 OA
ATOM     24  O   UNL     1       2.762   4.832  18.013  0.00  0.00    +0.000 OA
BRANCH  22  25
ATOM     25  N   UNL     1       4.733   6.219  17.238  0.00  0.00    +0.000 NA
ATOM     26  C   UNL     1       5.015   5.209  16.197  0.00  0.00    +0.000 C 
ATOM     27  C   UNL     1       6.237   4.372  16.586  0.00  0.00    +0.000 C 
ATOM     28  O   UNL     1       7.382   5.186  16.890  0.00  0.00    +0.000 OA
ATOM     29  C   UNL     1       7.117   6.195  17.877  0.00  0.00    +0.000 C 
ATOM     30  C   UNL     1       5.918   7.062  17.493  0.00  0.00    +0.000 C 
ENDBRANCH  22  25
ENDBRANCH   3  22
TORSDOF 6
ENDMDL
MODEL 8
REMARK VINA RESULT:      -6.8      1.795      2.243
REMARK  Name = 
REMARK  6 active torsions:
REMARK  status: ('A' for Active; 'I' for Inactive)
REMARK    1  A    between atoms: C_2  and  C_10
REMARK    2  A    between atoms: N_3  and  C_4
REMARK    3  A    between atoms: C_4  and  C_5
REMARK    4  A    between atoms: C_12  and  S_13
REMARK    5  A    between atoms: S_13  and  N_16
REMARK    6  A    between atoms: C_24  and  N_25
REMARK                            x       y       z     vdW  Elec       q    Type
REMARK                         _______ _______ _______ _____ _____    ______ ____
ROOT
ATOM      1  C   UNL     1       1.219   9.492  20.333  0.00  0.00    +0.000 A 
ATOM      2  C   UNL     1       1.614   8.130  20.240  0.00  0.00    +0.000 A 
ATOM      3  C   UNL     1       1.947   7.559  19.009  0.00  0.00    +0.000 A 
ATOM      4  C   UNL     1       1.879   8.340  17.863  0.00  0.00    +0.000 A 
ATOM      5  C   UNL     1       1.505   9.689  17.960  0.00  0.00    +0.000 A 
ATOM      6  C   UNL     1       1.196  10.327  19.185  0.00  0.00    +0.000 A 
ENDROOT
BRANCH   6   7
ATOM      7  N   UNL     1       0.943  11.684  19.146  0.00  0.00    +0.000 N 
ATOM      8  C   UNL     1       1.761  12.764  19.688  0.00  0.00    +0.000 C 
ATOM      9  C   UNL     1       0.717  13.745  20.212  0.00  0.00    +0.000 C 
ATOM     10  C   UNL     1      -0.367  13.676  19.147  0.00  0.00    +0.000 C 
ATOM     11  C   UNL     1      -0.333  12.225  18.659  0.00  0.00    +0.000 C 
ENDBRANCH   6   7
BRANCH   1  13
ATOM     12  O   UNL     1       1.312   9.724  22.700  0.00  0.00    +0.000 OA
ATOM     13  C   UNL     1       0.685   9.927  21.666  0.00  0.00    +0.000 C 
ATOM     14  N   UNL     1      -0.516  10.612  21.657  0.00  0.00    +0.000 N 
ATOM     15  H   UNL     1      -1.061  10.689  20.810  0.00  0.00    +0.000 HD
BRANCH  14  16
ATOM     16  C   UNL     1      -1.156  11.005  22.892  0.00  0.00    +0.000 C 
BRANCH  16  17
ATOM     17  C   UNL     1      -1.866  12.302  22.667  0.00  0.00    +0.000 A 
ATOM     18  C   UNL     1      -2.966  12.539  21.864  0.00  0.00    +0.000 A 
ATOM     19  C   UNL     1      -3.367  13.905  21.883  0.00  0.00    +0.000 A 
ATOM     20  C   UNL     1      -2.561  14.666  22.698  0.00  0.00    +0.000 A 
ATOM     21  S   UNL     1      -1.329  13.735  23.436  0.00  0.00    +0.000 S 
ENDBRANCH  16  17
ENDBRANCH  14  16
ENDBRANCH   1  13
BRANCH   3  22
ATOM     22  S   UNL     1       2.710   5.946  18.939  0.00  0.00    +0.000 S 
ATOM     23  O   UNL     1       2.712   5.435  20.300  0.00  0.00    +0.000 OA
ATOM     24  O   UNL     1       2.032   5.220  17.890  0.00  0.00    +0.000 OA
BRANCH  22  25
ATOM     25  N   UNL     1       4.311   6.153  18.481  0.00  0.00    +0.000 NA
ATOM     26  C   UNL     1       4.668   6.454  17.079  0.00  0.00    +0.000 C 
ATOM     27  C   UNL     1       5.039   5.167  16.337  0.00  0.00    +0.000 C 
ATOM     28  O   UNL     1       6.060   4.420  17.018  0.00  0.00    +0.000 OA
ATOM     29  C   UNL     1       5.745   4.146  18.392  0.00  0.00    +0.000 C 
ATOM     30  C   UNL     1       5.399   5.423  19.160  0.00  0.00    +0.000 C 
ENDBRANCH  22  25
ENDBRANCH   3  22
TORSDOF 6
ENDMDL
MODEL 9
REMARK VINA RESULT:      -6.8      5.958      9.695
REMARK  Name = 
REMARK  6 active torsions:
REMARK  status: ('A' for Active; 'I' for Inactive)
REMARK    1  A    between atoms: C_2  and  C_10
REMARK    2  A    between atoms: N_3  and  C_4
REMARK    3  A    between atoms: C_4  and  C_5
REMARK    4  A    between atoms: C_12  and  S_13
REMARK    5  A    between atoms: S_13  and  N_16
REMARK    6  A    between atoms: C_24  and  N_25
REMARK                            x       y       z     vdW  Elec       q    Type
REMARK                         _______ _______ _______ _____ _____    ______ ____
ROOT
ATOM      1  C   UNL     1       5.459   4.930  16.655  0.00  0.00    +0.000 A 
ATOM      2  C   UNL     1       4.452   3.938  16.799  0.00  0.00    +0.000 A 
ATOM      3  C   UNL     1       4.188   3.355  18.042  0.00  0.00    +0.000 A 
ATOM      4  C   UNL     1       4.932   3.753  19.144  0.00  0.00    +0.000 A 
ATOM      5  C   UNL     1       5.913   4.745  19.003  0.00  0.00    +0.000 A 
ATOM      6  C   UNL     1       6.194   5.395  17.777  0.00  0.00    +0.000 A 
ENDROOT
BRANCH   6   7
ATOM      7  N   UNL     1       7.115   6.424  17.802  0.00  0.00    +0.000 N 
ATOM      8  C   UNL     1       8.342   6.511  18.586  0.00  0.00    +0.000 C 
ATOM      9  C   UNL     1       8.392   7.987  18.968  0.00  0.00    +0.000 C 
ATOM     10  C   UNL     1       7.898   8.674  17.704  0.00  0.00    +0.000 C 
ATOM     11  C   UNL     1       6.875   7.699  17.114  0.00  0.00    +0.000 C 
ENDBRANCH   6   7
BRANCH   1  13
ATOM     12  O   UNL     1       5.287   6.309  14.722  0.00  0.00    +0.000 OA
ATOM     13  C   UNL     1       5.792   5.322  15.245  0.00  0.00    +0.000 C 
ATOM     14  N   UNL     1       6.732   4.544  14.594  0.00  0.00    +0.000 N 
ATOM     15  H   UNL     1       7.068   3.685  15.005  0.00  0.00    +0.000 HD
BRANCH  14  16
ATOM     16  C   UNL     1       7.066   4.788  13.208  0.00  0.00    +0.000 C 
BRANCH  16  17
ATOM     17  C   UNL     1       6.621   3.612  12.399  0.00  0.00    +0.000 A 
ATOM     18  C   UNL     1       7.411   2.693  11.733  0.00  0.00    +0.000 A 
ATOM     19  C   UNL     1       6.640   1.707  11.053  0.00  0.00    +0.000 A 
ATOM     20  C   UNL     1       5.288   1.906  11.221  0.00  0.00    +0.000 A 
ATOM     21  S   UNL     1       4.955   3.273  12.195  0.00  0.00    +0.000 S 
ENDBRANCH  16  17
ENDBRANCH  14  16
ENDBRANCH   1  13
BRANCH   3  22
ATOM     22  S   UNL     1       2.744   2.329  18.269  0.00  0.00    +0.000 S 
ATOM     23  O   UNL     1       2.185   2.110  16.944  0.00  0.00    +0.000 OA
ATOM     24  O   UNL     1       3.165   1.207  19.076  0.00  0.00    +0.000 OA
BRANCH  22  25
ATOM     25  N   UNL     1       1.618   3.210  19.147  0.00  0.00    +0.000 NA
ATOM     26  C   UNL     1       1.423   4.654  18.901  0.00  0.00    +0.000 C 
ATOM     27  C   UNL     1       2.248   5.478  19.893  0.00  0.00    +0.000 C 
ATOM     28  O   UNL     1       1.987   5.111  21.258  0.00  0.00    +0.000 OA
ATOM     29  C   UNL     1       2.140   3.705  21.508  0.00  0.00    +0.000 C 
ATOM     30  C   UNL     1       1.301   2.863  20.546  0.00  0.00    +0.000 C 
ENDBRANCH  22  25
ENDBRANCH   3  22
TORSDOF 6
ENDMDL
