MODEL 1
REMARK VINA RESULT:      -9.0      0.000      0.000
REMARK  Name = 
REMARK  6 active torsions:
REMARK  status: ('A' for Active; 'I' for Inactive)
REMARK    1  A    between atoms: C_1  and  C_2
REMARK    2  A    between atoms: N_4  and  C_5
REMARK    3  A    between atoms: C_5  and  C_6
REMARK    4  A    between atoms: C_12  and  C_13
REMARK    5  A    between atoms: C_14  and  C_15
REMARK    6  A    between atoms: N_17  and  C_18
REMARK                            x       y       z     vdW  Elec       q    Type
REMARK                         _______ _______ _______ _____ _____    ______ ____
ROOT
ATOM      1  C   UNL     1       1.727   3.514  17.837  0.00  0.00    +0.000 C 
ATOM      2  C   UNL     1       2.924   4.369  17.618  0.00  0.00    +0.000 A 
ATOM      3  N   UNL     1       3.909   3.740  16.918  0.00  0.00    +0.000 NA
ATOM      4  N   UNL     1       4.858   4.668  16.698  0.00  0.00    +0.000 N 
ATOM      5  C   UNL     1       4.474   5.884  17.267  0.00  0.00    +0.000 A 
ATOM      6  C   UNL     1       5.348   7.084  17.124  0.00  0.00    +0.000 C 
ATOM      7  C   UNL     1       3.220   5.767  17.947  0.00  0.00    +0.000 A 
ENDROOT
BRANCH   7   8
ATOM      8  C   UNL     1       2.516   7.048  18.714  0.00  0.00    +0.000 C 
ATOM      9  O   UNL     1       2.254   6.927  19.908  0.00  0.00    +0.000 OA
ATOM     10  N   UNL     1       2.149   8.289  18.070  0.00  0.00    +0.000 N 
ATOM     11  H   UNL     1       2.391   8.194  17.092  0.00  0.00    +0.000 HD
BRANCH  10  12
ATOM     12  C   UNL     1       1.901  10.018  18.437  0.00  0.00    +0.000 C 
ATOM     13  C   UNL     1       0.428   9.549  18.490  0.00  0.00    +0.000 C 
ATOM     14  C   UNL     1      -0.607  10.529  18.820  0.00  0.00    +0.000 C 
ATOM     15  C   UNL     1      -0.927  11.932  19.050  0.00  0.00    +0.000 C 
ATOM     16  C   UNL     1       0.352  12.613  18.646  0.00  0.00    +0.000 A 
ATOM     17  C   UNL     1       0.094  14.024  18.714  0.00  0.00    +0.000 A 
ATOM     18  C   UNL     1       1.144  14.881  18.611  0.00  0.00    +0.000 A 
ATOM     19  C   UNL     1       2.432  14.302  18.465  0.00  0.00    +0.000 A 
ATOM     20  C   UNL     1       2.766  12.878  18.347  0.00  0.00    +0.000 A 
ATOM     21  C   UNL     1       1.674  11.869  18.344  0.00  0.00    +0.000 A 
ENDBRANCH  10  12
ENDBRANCH   7   8
BRANCH   4  22
ATOM     22  C   UNL     1       6.164   4.245  16.128  0.00  0.00    +0.000 C 
BRANCH  22  23
ATOM     23  C   UNL     1       6.361   4.382  14.619  0.00  0.00    +0.000 A 
ATOM     24  C   UNL     1       7.426   5.128  14.068  0.00  0.00    +0.000 A 
ATOM     25  C   UNL     1       7.746   5.045  12.701  0.00  0.00    +0.000 A 
ATOM     26  C   UNL     1       7.026   4.200  11.862  0.00  0.00    +0.000 A 
ATOM     27  C   UNL     1       5.948   3.486  12.378  0.00  0.00    +0.000 A 
ATOM     28  C   UNL     1       5.609   3.589  13.736  0.00  0.00    +0.000 A 
ENDBRANCH  22  23
ENDBRANCH   4  22
TORSDOF 4
ENDMDL
MODEL 2
REMARK VINA RESULT:      -8.8      2.056      2.935
REMARK  Name = 
REMARK  6 active torsions:
REMARK  status: ('A' for Active; 'I' for Inactive)
REMARK    1  A    between atoms: C_1  and  C_2
REMARK    2  A    between atoms: N_4  and  C_5
REMARK    3  A    between atoms: C_5  and  C_6
REMARK    4  A    between atoms: C_12  and  C_13
REMARK    5  A    between atoms: C_14  and  C_15
REMARK    6  A    between atoms: N_17  and  C_18
REMARK                            x       y       z     vdW  Elec       q    Type
REMARK                         _______ _______ _______ _____ _____    ______ ____
ROOT
ATOM      1  C   UNL     1       4.687   2.675  19.830  0.00  0.00    +0.000 C 
ATOM      2  C   UNL     1       4.798   3.870  18.950  0.00  0.00    +0.000 A 
ATOM      3  N   UNL     1       5.901   3.846  18.151  0.00  0.00    +0.000 NA
ATOM      4  N   UNL     1       5.796   4.915  17.341  0.00  0.00    +0.000 N 
ATOM      5  C   UNL     1       4.627   5.619  17.634  0.00  0.00    +0.000 A 
ATOM      6  C   UNL     1       4.267   6.830  16.841  0.00  0.00    +0.000 C 
ATOM      7  C   UNL     1       3.922   5.025  18.730  0.00  0.00    +0.000 A 
ENDROOT
BRANCH   7   8
ATOM      8  C   UNL     1       2.501   5.645  19.296  0.00  0.00    +0.000 C 
ATOM      9  O   UNL     1       1.685   4.862  19.774  0.00  0.00    +0.000 OA
ATOM     10  N   UNL     1       2.131   7.041  19.231  0.00  0.00    +0.000 N 
ATOM     11  H   UNL     1       2.891   7.525  18.771  0.00  0.00    +0.000 HD
BRANCH  10  12
ATOM     12  C   UNL     1       1.108   8.241  20.067  0.00  0.00    +0.000 C 
ATOM     13  C   UNL     1       1.575   9.113  18.878  0.00  0.00    +0.000 C 
ATOM     14  C   UNL     1       1.076  10.485  18.777  0.00  0.00    +0.000 C 
ATOM     15  C   UNL     1       0.331  11.560  19.420  0.00  0.00    +0.000 C 
ATOM     16  C   UNL     1       0.119  11.009  20.804  0.00  0.00    +0.000 A 
ATOM     17  C   UNL     1      -0.502  12.058  21.563  0.00  0.00    +0.000 A 
ATOM     18  C   UNL     1      -1.004  11.760  22.790  0.00  0.00    +0.000 A 
ATOM     19  C   UNL     1      -0.894  10.411  23.217  0.00  0.00    +0.000 A 
ATOM     20  C   UNL     1      -0.241   9.299  22.517  0.00  0.00    +0.000 A 
ATOM     21  C   UNL     1       0.430   9.550  21.214  0.00  0.00    +0.000 A 
ENDBRANCH  10  12
ENDBRANCH   7   8
BRANCH   4  22
ATOM     22  C   UNL     1       6.950   5.284  16.480  0.00  0.00    +0.000 C 
BRANCH  22  23
ATOM     23  C   UNL     1       6.967   4.756  15.046  0.00  0.00    +0.000 A 
ATOM     24  C   UNL     1       6.000   3.844  14.572  0.00  0.00    +0.000 A 
ATOM     25  C   UNL     1       5.873   3.558  13.200  0.00  0.00    +0.000 A 
ATOM     26  C   UNL     1       6.694   4.195  12.274  0.00  0.00    +0.000 A 
ATOM     27  C   UNL     1       7.681   5.067  12.725  0.00  0.00    +0.000 A 
ATOM     28  C   UNL     1       7.828   5.331  14.095  0.00  0.00    +0.000 A 
ENDBRANCH  22  23
ENDBRANCH   4  22
TORSDOF 4
ENDMDL
MODEL 3
REMARK VINA RESULT:      -8.8      2.170      2.869
REMARK  Name = 
REMARK  6 active torsions:
REMARK  status: ('A' for Active; 'I' for Inactive)
REMARK    1  A    between atoms: C_1  and  C_2
REMARK    2  A    between atoms: N_4  and  C_5
REMARK    3  A    between atoms: C_5  and  C_6
REMARK    4  A    between atoms: C_12  and  C_13
REMARK    5  A    between atoms: C_14  and  C_15
REMARK    6  A    between atoms: N_17  and  C_18
REMARK                            x       y       z     vdW  Elec       q    Type
REMARK                         _______ _______ _______ _____ _____    ______ ____
ROOT
ATOM      1  C   UNL     1       1.315   4.339  18.430  0.00  0.00    +0.000 C 
ATOM      2  C   UNL     1       2.550   4.961  17.882  0.00  0.00    +0.000 A 
ATOM      3  N   UNL     1       3.419   4.052  17.358  0.00  0.00    +0.000 NA
ATOM      4  N   UNL     1       4.414   4.767  16.801  0.00  0.00    +0.000 N 
ATOM      5  C   UNL     1       4.175   6.131  16.982  0.00  0.00    +0.000 A 
ATOM      6  C   UNL     1       5.124   7.135  16.418  0.00  0.00    +0.000 C 
ATOM      7  C   UNL     1       2.980   6.355  17.738  0.00  0.00    +0.000 A 
ENDROOT
BRANCH   7   8
ATOM      8  C   UNL     1       2.448   7.874  18.104  0.00  0.00    +0.000 C 
ATOM      9  O   UNL     1       2.396   8.696  17.193  0.00  0.00    +0.000 OA
ATOM     10  N   UNL     1       2.078   8.317  19.429  0.00  0.00    +0.000 N 
ATOM     11  H   UNL     1       2.227   7.534  20.052  0.00  0.00    +0.000 HD
BRANCH  10  12
ATOM     12  C   UNL     1       1.037   9.514  20.247  0.00  0.00    +0.000 C 
ATOM     13  C   UNL     1       1.317   8.580  21.448  0.00  0.00    +0.000 C 
ATOM     14  C   UNL     1       0.746   8.925  22.750  0.00  0.00    +0.000 C 
ATOM     15  C   UNL     1      -0.153   9.799  23.493  0.00  0.00    +0.000 C 
ATOM     16  C   UNL     1      -0.839  10.554  22.387  0.00  0.00    +0.000 A 
ATOM     17  C   UNL     1      -1.848  11.358  23.015  0.00  0.00    +0.000 A 
ATOM     18  C   UNL     1      -2.476  12.307  22.273  0.00  0.00    +0.000 A 
ATOM     19  C   UNL     1      -2.060  12.444  20.923  0.00  0.00    +0.000 A 
ATOM     20  C   UNL     1      -1.069  11.635  20.204  0.00  0.00    +0.000 A 
ATOM     21  C   UNL     1      -0.403  10.505  20.903  0.00  0.00    +0.000 A 
ENDBRANCH  10  12
ENDBRANCH   7   8
BRANCH   4  22
ATOM     22  C   UNL     1       5.627   4.060  16.317  0.00  0.00    +0.000 C 
BRANCH  22  23
ATOM     23  C   UNL     1       6.028   4.251  14.855  0.00  0.00    +0.000 A 
ATOM     24  C   UNL     1       7.207   4.934  14.485  0.00  0.00    +0.000 A 
ATOM     25  C   UNL     1       7.695   4.889  13.166  0.00  0.00    +0.000 A 
ATOM     26  C   UNL     1       7.029   4.144  12.198  0.00  0.00    +0.000 A 
ATOM     27  C   UNL     1       5.843   3.497  12.533  0.00  0.00    +0.000 A 
ATOM     28  C   UNL     1       5.340   3.563  13.841  0.00  0.00    +0.000 A 
ENDBRANCH  22  23
ENDBRANCH   4  22
TORSDOF 4
ENDMDL
MODEL 4
REMARK VINA RESULT:      -8.8      4.814      7.182
REMARK  Name = 
REMARK  6 active torsions:
REMARK  status: ('A' for Active; 'I' for Inactive)
REMARK    1  A    between atoms: C_1  and  C_2
REMARK    2  A    between atoms: N_4  and  C_5
REMARK    3  A    between atoms: C_5  and  C_6
REMARK    4  A    between atoms: C_12  and  C_13
REMARK    5  A    between atoms: C_14  and  C_15
REMARK    6  A    between atoms: N_17  and  C_18
REMARK                            x       y       z     vdW  Elec       q    Type
REMARK                         _______ _______ _______ _____ _____    ______ ____
ROOT
ATOM      1  C   UNL     1       8.249   5.363  20.403  0.00  0.00    +0.000 C 
ATOM      2  C   UNL     1       7.289   5.473  19.272  0.00  0.00    +0.000 A 
ATOM      3  N   UNL     1       6.311   4.526  19.307  0.00  0.00    +0.000 NA
ATOM      4  N   UNL     1       5.465   4.829  18.305  0.00  0.00    +0.000 N 
ATOM      5  C   UNL     1       5.916   5.965  17.631  0.00  0.00    +0.000 A 
ATOM      6  C   UNL     1       5.124   6.524  16.497  0.00  0.00    +0.000 C 
ATOM      7  C   UNL     1       7.155   6.435  18.173  0.00  0.00    +0.000 A 
ENDROOT
BRANCH   7   8
ATOM      8  C   UNL     1       7.924   7.767  17.575  0.00  0.00    +0.000 C 
ATOM      9  O   UNL     1       8.295   7.735  16.405  0.00  0.00    +0.000 OA
ATOM     10  N   UNL     1       8.229   8.953  18.343  0.00  0.00    +0.000 N 
ATOM     11  H   UNL     1       7.897   8.786  19.284  0.00  0.00    +0.000 HD
BRANCH  10  12
ATOM     12  C   UNL     1       8.507  10.704  18.132  0.00  0.00    +0.000 C 
ATOM     13  C   UNL     1       9.693  10.385  19.072  0.00  0.00    +0.000 C 
ATOM     14  C   UNL     1      10.605  11.468  19.440  0.00  0.00    +0.000 C 
ATOM     15  C   UNL     1      10.876  12.900  19.398  0.00  0.00    +0.000 C 
ATOM     16  C   UNL     1       9.589  13.443  18.840  0.00  0.00    +0.000 A 
ATOM     17  C   UNL     1       9.707  14.874  18.880  0.00  0.00    +0.000 A 
ATOM     18  C   UNL     1       8.774  15.620  18.233  0.00  0.00    +0.000 A 
ATOM     19  C   UNL     1       7.756  14.913  17.539  0.00  0.00    +0.000 A 
ATOM     20  C   UNL     1       7.550  13.462  17.488  0.00  0.00    +0.000 A 
ATOM     21  C   UNL     1       8.458  12.567  18.251  0.00  0.00    +0.000 A 
ENDBRANCH  10  12
ENDBRANCH   7   8
BRANCH   4  22
ATOM     22  C   UNL     1       4.391   3.864  17.951  0.00  0.00    +0.000 C 
BRANCH  22  23
ATOM     23  C   UNL     1       3.071   3.955  18.714  0.00  0.00    +0.000 A 
ATOM     24  C   UNL     1       2.033   3.016  18.529  0.00  0.00    +0.000 A 
ATOM     25  C   UNL     1       0.933   2.958  19.404  0.00  0.00    +0.000 A 
ATOM     26  C   UNL     1       0.860   3.821  20.494  0.00  0.00    +0.000 A 
ATOM     27  C   UNL     1       1.853   4.781  20.670  0.00  0.00    +0.000 A 
ATOM     28  C   UNL     1       2.936   4.859  19.782  0.00  0.00    +0.000 A 
ENDBRANCH  22  23
ENDBRANCH   4  22
TORSDOF 4
ENDMDL
MODEL 5
REMARK VINA RESULT:      -8.7      2.060      2.743
REMARK  Name = 
REMARK  6 active torsions:
REMARK  status: ('A' for Active; 'I' for Inactive)
REMARK    1  A    between atoms: C_1  and  C_2
REMARK    2  A    between atoms: N_4  and  C_5
REMARK    3  A    between atoms: C_5  and  C_6
REMARK    4  A    between atoms: C_12  and  C_13
REMARK    5  A    between atoms: C_14  and  C_15
REMARK    6  A    between atoms: N_17  and  C_18
REMARK                            x       y       z     vdW  Elec       q    Type
REMARK                         _______ _______ _______ _____ _____    ______ ____
ROOT
ATOM      1  C   UNL     1       4.487   2.596  20.060  0.00  0.00    +0.000 C 
ATOM      2  C   UNL     1       4.633   3.835  19.250  0.00  0.00    +0.000 A 
ATOM      3  N   UNL     1       5.690   3.791  18.392  0.00  0.00    +0.000 NA
ATOM      4  N   UNL     1       5.617   4.915  17.655  0.00  0.00    +0.000 N 
ATOM      5  C   UNL     1       4.515   5.673  18.054  0.00  0.00    +0.000 A 
ATOM      6  C   UNL     1       4.199   6.953  17.357  0.00  0.00    +0.000 C 
ATOM      7  C   UNL     1       3.828   5.057  19.148  0.00  0.00    +0.000 A 
ENDROOT
BRANCH   7   8
ATOM      8  C   UNL     1       2.483   5.729  19.828  0.00  0.00    +0.000 C 
ATOM      9  O   UNL     1       1.851   5.053  20.635  0.00  0.00    +0.000 OA
ATOM     10  N   UNL     1       1.972   7.043  19.509  0.00  0.00    +0.000 N 
ATOM     11  H   UNL     1       2.582   7.431  18.801  0.00  0.00    +0.000 HD
BRANCH  10  12
ATOM     12  C   UNL     1       1.008   8.364  20.225  0.00  0.00    +0.000 C 
ATOM     13  C   UNL     1       1.575   9.119  19.000  0.00  0.00    +0.000 C 
ATOM     14  C   UNL     1       1.178  10.512  18.791  0.00  0.00    +0.000 C 
ATOM     15  C   UNL     1       0.489  11.677  19.333  0.00  0.00    +0.000 C 
ATOM     16  C   UNL     1       0.194  11.236  20.741  0.00  0.00    +0.000 A 
ATOM     17  C   UNL     1      -0.377  12.374  21.406  0.00  0.00    +0.000 A 
ATOM     18  C   UNL     1      -0.939  12.195  22.630  0.00  0.00    +0.000 A 
ATOM     19  C   UNL     1      -0.939  10.874  23.148  0.00  0.00    +0.000 A 
ATOM     20  C   UNL     1      -0.343   9.676  22.548  0.00  0.00    +0.000 A 
ATOM     21  C   UNL     1       0.387   9.791  21.258  0.00  0.00    +0.000 A 
ENDBRANCH  10  12
ENDBRANCH   7   8
BRANCH   4  22
ATOM     22  C   UNL     1       6.749   5.263  16.756  0.00  0.00    +0.000 C 
BRANCH  22  23
ATOM     23  C   UNL     1       6.588   4.979  15.264  0.00  0.00    +0.000 A 
ATOM     24  C   UNL     1       7.576   5.340  14.322  0.00  0.00    +0.000 A 
ATOM     25  C   UNL     1       7.539   4.859  13.001  0.00  0.00    +0.000 A 
ATOM     26  C   UNL     1       6.528   3.990  12.601  0.00  0.00    +0.000 A 
ATOM     27  C   UNL     1       5.522   3.653  13.503  0.00  0.00    +0.000 A 
ATOM     28  C   UNL     1       5.542   4.155  14.813  0.00  0.00    +0.000 A 
ENDBRANCH  22  23
ENDBRANCH   4  22
TORSDOF 4
ENDMDL
MODEL 6
REMARK VINA RESULT:      -8.7      5.209      7.341
REMARK  Name = 
REMARK  6 active torsions:
REMARK  status: ('A' for Active; 'I' for Inactive)
REMARK    1  A    between atoms: C_1  and  C_2
REMARK    2  A    between atoms: N_4  and  C_5
REMARK    3  A    between atoms: C_5  and  C_6
REMARK    4  A    between atoms: C_12  and  C_13
REMARK    5  A    between atoms: C_14  and  C_15
REMARK    6  A    between atoms: N_17  and  C_18
REMARK                            x       y       z     vdW  Elec       q    Type
REMARK                         _______ _______ _______ _____ _____    ______ ____
ROOT
ATOM      1  C   UNL     1       8.427   5.372  20.198  0.00  0.00    +0.000 C 
ATOM      2  C   UNL     1       7.584   5.554  18.986  0.00  0.00    +0.000 A 
ATOM      3  N   UNL     1       6.842   4.453  18.681  0.00  0.00    +0.000 NA
ATOM      4  N   UNL     1       6.053   4.810  17.651  0.00  0.00    +0.000 N 
ATOM      5  C   UNL     1       6.304   6.138  17.300  0.00  0.00    +0.000 A 
ATOM      6  C   UNL     1       5.523   6.780  16.203  0.00  0.00    +0.000 C 
ATOM      7  C   UNL     1       7.348   6.701  18.103  0.00  0.00    +0.000 A 
ENDROOT
BRANCH   7   8
ATOM      8  C   UNL     1       7.856   8.259  17.912  0.00  0.00    +0.000 C 
ATOM      9  O   UNL     1       7.550   8.837  16.873  0.00  0.00    +0.000 OA
ATOM     10  N   UNL     1       8.672   8.979  18.865  0.00  0.00    +0.000 N 
ATOM     11  H   UNL     1       8.864   8.341  19.626  0.00  0.00    +0.000 HD
BRANCH  10  12
ATOM     12  C   UNL     1       9.025  10.643  19.403  0.00  0.00    +0.000 C 
ATOM     13  C   UNL     1       9.987  10.574  18.193  0.00  0.00    +0.000 C 
ATOM     14  C   UNL     1      10.781  11.757  17.861  0.00  0.00    +0.000 C 
ATOM     15  C   UNL     1      11.200  13.095  18.262  0.00  0.00    +0.000 C 
ATOM     16  C   UNL     1      10.651  13.187  19.660  0.00  0.00    +0.000 A 
ATOM     17  C   UNL     1      11.126  14.432  20.195  0.00  0.00    +0.000 A 
ATOM     18  C   UNL     1      10.602  14.875  21.369  0.00  0.00    +0.000 A 
ATOM     19  C   UNL     1       9.597  14.070  21.966  0.00  0.00    +0.000 A 
ATOM     20  C   UNL     1       9.093  12.773  21.500  0.00  0.00    +0.000 A 
ATOM     21  C   UNL     1       9.679  12.156  20.281  0.00  0.00    +0.000 A 
ENDBRANCH  10  12
ENDBRANCH   7   8
BRANCH   4  22
ATOM     22  C   UNL     1       5.262   3.765  16.951  0.00  0.00    +0.000 C 
BRANCH  22  23
ATOM     23  C   UNL     1       3.839   3.500  17.441  0.00  0.00    +0.000 A 
ATOM     24  C   UNL     1       3.459   2.262  18.004  0.00  0.00    +0.000 A 
ATOM     25  C   UNL     1       2.232   2.110  18.675  0.00  0.00    +0.000 A 
ATOM     26  C   UNL     1       1.371   3.194  18.816  0.00  0.00    +0.000 A 
ATOM     27  C   UNL     1       1.710   4.413  18.234  0.00  0.00    +0.000 A 
ATOM     28  C   UNL     1       2.921   4.560  17.540  0.00  0.00    +0.000 A 
ENDBRANCH  22  23
ENDBRANCH   4  22
TORSDOF 4
ENDMDL
MODEL 7
REMARK VINA RESULT:      -8.7      5.252      7.289
REMARK  Name = 
REMARK  6 active torsions:
REMARK  status: ('A' for Active; 'I' for Inactive)
REMARK    1  A    between atoms: C_1  and  C_2
REMARK    2  A    between atoms: N_4  and  C_5
REMARK    3  A    between atoms: C_5  and  C_6
REMARK    4  A    between atoms: C_12  and  C_13
REMARK    5  A    between atoms: C_14  and  C_15
REMARK    6  A    between atoms: N_17  and  C_18
REMARK                            x       y       z     vdW  Elec       q    Type
REMARK                         _______ _______ _______ _____ _____    ______ ____
ROOT
ATOM      1  C   UNL     1       8.422   5.510  20.221  0.00  0.00    +0.000 C 
ATOM      2  C   UNL     1       7.335   5.621  19.211  0.00  0.00    +0.000 A 
ATOM      3  N   UNL     1       6.469   4.571  19.240  0.00  0.00    +0.000 NA
ATOM      4  N   UNL     1       5.489   4.873  18.368  0.00  0.00    +0.000 N 
ATOM      5  C   UNL     1       5.744   6.114  17.781  0.00  0.00    +0.000 A 
ATOM      6  C   UNL     1       4.776   6.688  16.801  0.00  0.00    +0.000 C 
ATOM      7  C   UNL     1       6.981   6.665  18.244  0.00  0.00    +0.000 A 
ENDROOT
BRANCH   7   8
ATOM      8  C   UNL     1       7.538   8.128  17.721  0.00  0.00    +0.000 C 
ATOM      9  O   UNL     1       6.979   8.641  16.755  0.00  0.00    +0.000 OA
ATOM     10  N   UNL     1       8.665   8.830  18.294  0.00  0.00    +0.000 N 
ATOM     11  H   UNL     1       9.026   8.247  19.038  0.00  0.00    +0.000 HD
BRANCH  10  12
ATOM     12  C   UNL     1       9.307  10.483  18.495  0.00  0.00    +0.000 C 
ATOM     13  C   UNL     1       9.079  10.133  19.984  0.00  0.00    +0.000 C 
ATOM     14  C   UNL     1       9.443  11.121  20.999  0.00  0.00    +0.000 C 
ATOM     15  C   UNL     1       9.883  12.485  21.270  0.00  0.00    +0.000 C 
ATOM     16  C   UNL     1       9.782  13.120  19.909  0.00  0.00    +0.000 A 
ATOM     17  C   UNL     1      10.074  14.514  20.095  0.00  0.00    +0.000 A 
ATOM     18  C   UNL     1      10.268  15.287  18.995  0.00  0.00    +0.000 A 
ATOM     19  C   UNL     1      10.189  14.640  17.734  0.00  0.00    +0.000 A 
ATOM     20  C   UNL     1       9.857  13.236  17.467  0.00  0.00    +0.000 A 
ATOM     21  C   UNL     1       9.526  12.334  18.601  0.00  0.00    +0.000 A 
ENDBRANCH  10  12
ENDBRANCH   7   8
BRANCH   4  22
ATOM     22  C   UNL     1       4.487   3.832  18.019  0.00  0.00    +0.000 C 
BRANCH  22  23
ATOM     23  C   UNL     1       3.274   3.676  18.935  0.00  0.00    +0.000 A 
ATOM     24  C   UNL     1       2.918   4.662  19.881  0.00  0.00    +0.000 A 
ATOM     25  C   UNL     1       1.674   4.630  20.538  0.00  0.00    +0.000 A 
ATOM     26  C   UNL     1       0.754   3.628  20.246  0.00  0.00    +0.000 A 
ATOM     27  C   UNL     1       1.101   2.625  19.346  0.00  0.00    +0.000 A 
ATOM     28  C   UNL     1       2.352   2.639  18.711  0.00  0.00    +0.000 A 
ENDBRANCH  22  23
ENDBRANCH   4  22
TORSDOF 4
ENDMDL
MODEL 8
REMARK VINA RESULT:      -8.7      3.382     10.059
REMARK  Name = 
REMARK  6 active torsions:
REMARK  status: ('A' for Active; 'I' for Inactive)
REMARK    1  A    between atoms: C_1  and  C_2
REMARK    2  A    between atoms: N_4  and  C_5
REMARK    3  A    between atoms: C_5  and  C_6
REMARK    4  A    between atoms: C_12  and  C_13
REMARK    5  A    between atoms: C_14  and  C_15
REMARK    6  A    between atoms: N_17  and  C_18
REMARK                            x       y       z     vdW  Elec       q    Type
REMARK                         _______ _______ _______ _____ _____    ______ ____
ROOT
ATOM      1  C   UNL     1      -1.352  11.480  22.977  0.00  0.00    +0.000 C 
ATOM      2  C   UNL     1      -0.682  11.557  21.651  0.00  0.00    +0.000 A 
ATOM      3  N   UNL     1      -1.014  12.675  20.948  0.00  0.00    +0.000 NA
ATOM      4  N   UNL     1      -0.246  12.661  19.844  0.00  0.00    +0.000 N 
ATOM      5  C   UNL     1       0.567  11.526  19.846  0.00  0.00    +0.000 A 
ATOM      6  C   UNL     1       1.541  11.304  18.738  0.00  0.00    +0.000 C 
ATOM      7  C   UNL     1       0.308  10.703  20.989  0.00  0.00    +0.000 A 
ENDROOT
BRANCH   7   8
ATOM      8  C   UNL     1       1.126   9.294  21.255  0.00  0.00    +0.000 C 
ATOM      9  O   UNL     1       1.426   9.017  22.414  0.00  0.00    +0.000 OA
ATOM     10  N   UNL     1       1.550   8.382  20.217  0.00  0.00    +0.000 N 
ATOM     11  H   UNL     1       1.263   8.787  19.336  0.00  0.00    +0.000 HD
BRANCH  10  12
ATOM     12  C   UNL     1       1.927   6.656  19.961  0.00  0.00    +0.000 C 
ATOM     13  C   UNL     1       2.645   7.243  18.724  0.00  0.00    +0.000 C 
ATOM     14  C   UNL     1       3.364   6.332  17.834  0.00  0.00    +0.000 C 
ATOM     15  C   UNL     1       3.662   4.947  17.490  0.00  0.00    +0.000 C 
ATOM     16  C   UNL     1       2.707   4.194  18.377  0.00  0.00    +0.000 A 
ATOM     17  C   UNL     1       2.832   2.810  18.018  0.00  0.00    +0.000 A 
ATOM     18  C   UNL     1       2.243   1.878  18.812  0.00  0.00    +0.000 A 
ATOM     19  C   UNL     1       1.561   2.355  19.962  0.00  0.00    +0.000 A 
ATOM     20  C   UNL     1       1.358   3.749  20.370  0.00  0.00    +0.000 A 
ATOM     21  C   UNL     1       1.877   4.845  19.509  0.00  0.00    +0.000 A 
ENDBRANCH  10  12
ENDBRANCH   7   8
BRANCH   4  22
ATOM     22  C   UNL     1      -0.512  13.650  18.767  0.00  0.00    +0.000 C 
BRANCH  22  23
ATOM     23  C   UNL     1       0.257  14.969  18.803  0.00  0.00    +0.000 A 
ATOM     24  C   UNL     1       1.668  15.014  18.783  0.00  0.00    +0.000 A 
ATOM     25  C   UNL     1       2.359  16.220  18.566  0.00  0.00    +0.000 A 
ATOM     26  C   UNL     1       1.655  17.400  18.343  0.00  0.00    +0.000 A 
ATOM     27  C   UNL     1       0.264  17.384  18.399  0.00  0.00    +0.000 A 
ATOM     28  C   UNL     1      -0.426  16.187  18.643  0.00  0.00    +0.000 A 
ENDBRANCH  22  23
ENDBRANCH   4  22
TORSDOF 4
ENDMDL
MODEL 9
REMARK VINA RESULT:      -8.6      3.680     11.228
REMARK  Name = 
REMARK  6 active torsions:
REMARK  status: ('A' for Active; 'I' for Inactive)
REMARK    1  A    between atoms: C_1  and  C_2
REMARK    2  A    between atoms: N_4  and  C_5
REMARK    3  A    between atoms: C_5  and  C_6
REMARK    4  A    between atoms: C_12  and  C_13
REMARK    5  A    between atoms: C_14  and  C_15
REMARK    6  A    between atoms: N_17  and  C_18
REMARK                            x       y       z     vdW  Elec       q    Type
REMARK                         _______ _______ _______ _____ _____    ______ ____
ROOT
ATOM      1  C   UNL     1      -0.677  10.681  18.128  0.00  0.00    +0.000 C 
ATOM      2  C   UNL     1      -0.695  10.850  19.606  0.00  0.00    +0.000 A 
ATOM      3  N   UNL     1      -1.505  11.866  20.018  0.00  0.00    +0.000 NA
ATOM      4  N   UNL     1      -1.511  11.814  21.362  0.00  0.00    +0.000 N 
ATOM      5  C   UNL     1      -0.696  10.769  21.800  0.00  0.00    +0.000 A 
ATOM      6  C   UNL     1      -0.568  10.483  23.258  0.00  0.00    +0.000 C 
ATOM      7  C   UNL     1      -0.069  10.101  20.699  0.00  0.00    +0.000 A 
ENDROOT
BRANCH   7   8
ATOM      8  C   UNL     1       0.950   8.821  20.917  0.00  0.00    +0.000 C 
ATOM      9  O   UNL     1       1.218   8.493  22.070  0.00  0.00    +0.000 OA
ATOM     10  N   UNL     1       1.584   8.085  19.846  0.00  0.00    +0.000 N 
ATOM     11  H   UNL     1       1.291   8.518  18.980  0.00  0.00    +0.000 HD
BRANCH  10  12
ATOM     12  C   UNL     1       2.254   6.471  19.486  0.00  0.00    +0.000 C 
ATOM     13  C   UNL     1       2.984   7.283  18.390  0.00  0.00    +0.000 C 
ATOM     14  C   UNL     1       3.922   6.585  17.510  0.00  0.00    +0.000 C 
ATOM     15  C   UNL     1       4.468   5.303  17.083  0.00  0.00    +0.000 C 
ATOM     16  C   UNL     1       3.566   4.329  17.792  0.00  0.00    +0.000 A 
ATOM     17  C   UNL     1       3.945   3.023  17.330  0.00  0.00    +0.000 A 
ATOM     18  C   UNL     1       3.439   1.937  17.971  0.00  0.00    +0.000 A 
ATOM     19  C   UNL     1       2.584   2.186  19.076  0.00  0.00    +0.000 A 
ATOM     20  C   UNL     1       2.122   3.485  19.577  0.00  0.00    +0.000 A 
ATOM     21  C   UNL     1       2.539   4.729  18.877  0.00  0.00    +0.000 A 
ENDBRANCH  10  12
ENDBRANCH   7   8
BRANCH   4  22
ATOM     22  C   UNL     1      -2.147  12.920  22.124  0.00  0.00    +0.000 C 
BRANCH  22  23
ATOM     23  C   UNL     1      -3.543  12.681  22.698  0.00  0.00    +0.000 A 
ATOM     24  C   UNL     1      -3.760  12.476  24.078  0.00  0.00    +0.000 A 
ATOM     25  C   UNL     1      -5.055  12.506  24.627  0.00  0.00    +0.000 A 
ATOM     26  C   UNL     1      -6.154  12.764  23.814  0.00  0.00    +0.000 A 
ATOM     27  C   UNL     1      -5.965  12.929  22.444  0.00  0.00    +0.000 A 
ATOM     28  C   UNL     1      -4.677  12.871  21.890  0.00  0.00    +0.000 A 
ENDBRANCH  22  23
ENDBRANCH   4  22
TORSDOF 4
ENDMDL
