MODEL 1
REMARK VINA RESULT:      -8.2      0.000      0.000
REMARK  Name = 
REMARK  6 active torsions:
REMARK  status: ('A' for Active; 'I' for Inactive)
REMARK    1  A    between atoms: C_1  and  O_2
REMARK    2  A    between atoms: O_2  and  C_3
REMARK    3  A    between atoms: C_3  and  C_5
REMARK    4  A    between atoms: C_10  and  C_11
REMARK    5  A    between atoms: C_18  and  C_19
REMARK    6  A    between atoms: C_19  and  C_20
REMARK                            x       y       z     vdW  Elec       q    Type
REMARK                         _______ _______ _______ _____ _____    ______ ____
ROOT
ATOM      1  C   UNL     1      -0.006  10.149  21.129  0.00  0.00    +0.000 A 
ATOM      2  C   UNL     1      -0.122  10.810  19.831  0.00  0.00    +0.000 A 
ATOM      3  C   UNL     1       0.507  10.334  18.738  0.00  0.00    +0.000 A 
ATOM      4  C   UNL     1       1.301   9.158  18.834  0.00  0.00    +0.000 A 
ATOM      5  N   UNL     1       1.998   8.518  17.925  0.00  0.00    +0.000 NA
ATOM      6  C   UNL     1       2.553   7.432  18.567  0.00  0.00    +0.000 A 
ATOM      7  C   UNL     1       2.159   7.393  19.901  0.00  0.00    +0.000 A 
ATOM      8  N   UNL     1       1.382   8.532  20.074  0.00  0.00    +0.000 N 
ATOM      9  C   UNL     1       0.743   9.030  21.214  0.00  0.00    +0.000 A 
ENDROOT
BRANCH   6  10
ATOM     10  C   UNL     1       3.364   6.460  17.843  0.00  0.00    +0.000 A 
ATOM     11  C   UNL     1       2.879   5.194  17.495  0.00  0.00    +0.000 A 
ATOM     12  C   UNL     1       3.668   4.288  16.779  0.00  0.00    +0.000 A 
ATOM     13  C   UNL     1       4.973   4.629  16.440  0.00  0.00    +0.000 A 
ATOM     14 CL   UNL     1       5.951   3.504  15.581  0.00  0.00    +0.000 Cl
ATOM     15  C   UNL     1       5.491   5.867  16.807  0.00  0.00    +0.000 A 
ATOM     16  C   UNL     1       4.688   6.779  17.504  0.00  0.00    +0.000 A 
ENDBRANCH   6  10
BRANCH   1  17
ATOM     17  C   UNL     1      -0.692  10.623  22.366  0.00  0.00    +0.000 C 
ATOM     18  O   UNL     1      -0.504  10.143  23.475  0.00  0.00    +0.000 OA
BRANCH  17  20
ATOM     19  C   UNL     1      -1.463  12.754  22.939  0.00  0.00    +0.000 C 
ATOM     20  O   UNL     1      -1.569  11.619  22.075  0.00  0.00    +0.000 OA
ENDBRANCH  17  20
ENDBRANCH   1  17
BRANCH   7  21
ATOM     21  C   UNL     1       2.356   6.367  20.973  0.00  0.00    +0.000 C 
BRANCH  21  22
ATOM     22  C   UNL     1       2.243   4.918  20.538  0.00  0.00    +0.000 A 
ATOM     23  C   UNL     1       0.969   4.390  20.250  0.00  0.00    +0.000 A 
ATOM     24  C   UNL     1       0.808   3.044  19.908  0.00  0.00    +0.000 A 
ATOM     25  C   UNL     1       1.915   2.201  19.862  0.00  0.00    +0.000 A 
ATOM     26  C   UNL     1       3.180   2.711  20.140  0.00  0.00    +0.000 A 
ATOM     27 CL   UNL     1       4.550   1.672  20.084  0.00  0.00    +0.000 Cl
ATOM     28  C   UNL     1       3.348   4.057  20.474  0.00  0.00    +0.000 A 
ENDBRANCH  21  22
ENDBRANCH   7  21
TORSDOF 5
ENDMDL
MODEL 2
REMARK VINA RESULT:      -8.0      2.310      4.093
REMARK  Name = 
REMARK  6 active torsions:
REMARK  status: ('A' for Active; 'I' for Inactive)
REMARK    1  A    between atoms: C_1  and  O_2
REMARK    2  A    between atoms: O_2  and  C_3
REMARK    3  A    between atoms: C_3  and  C_5
REMARK    4  A    between atoms: C_10  and  C_11
REMARK    5  A    between atoms: C_18  and  C_19
REMARK    6  A    between atoms: C_19  and  C_20
REMARK                            x       y       z     vdW  Elec       q    Type
REMARK                         _______ _______ _______ _____ _____    ______ ____
ROOT
ATOM      1  C   UNL     1       1.493  10.924  18.899  0.00  0.00    +0.000 A 
ATOM      2  C   UNL     1       0.865  10.514  20.154  0.00  0.00    +0.000 A 
ATOM      3  C   UNL     1       0.886   9.231  20.566  0.00  0.00    +0.000 A 
ATOM      4  C   UNL     1       1.535   8.243  19.775  0.00  0.00    +0.000 A 
ATOM      5  N   UNL     1       1.680   6.953  19.965  0.00  0.00    +0.000 NA
ATOM      6  C   UNL     1       2.411   6.491  18.891  0.00  0.00    +0.000 A 
ATOM      7  C   UNL     1       2.746   7.537  18.036  0.00  0.00    +0.000 A 
ATOM      8  N   UNL     1       2.143   8.657  18.595  0.00  0.00    +0.000 N 
ATOM      9  C   UNL     1       2.112   9.985  18.155  0.00  0.00    +0.000 A 
ENDROOT
BRANCH   6  10
ATOM     10  C   UNL     1       2.806   5.091  18.793  0.00  0.00    +0.000 A 
ATOM     11  C   UNL     1       2.205   4.207  17.889  0.00  0.00    +0.000 A 
ATOM     12  C   UNL     1       2.618   2.874  17.797  0.00  0.00    +0.000 A 
ATOM     13  C   UNL     1       3.614   2.401  18.644  0.00  0.00    +0.000 A 
ATOM     14 CL   UNL     1       4.103   0.755  18.547  0.00  0.00    +0.000 Cl
ATOM     15  C   UNL     1       4.200   3.250  19.578  0.00  0.00    +0.000 A 
ATOM     16  C   UNL     1       3.798   4.590  19.649  0.00  0.00    +0.000 A 
ENDBRANCH   6  10
BRANCH   1  17
ATOM     17  C   UNL     1       1.513  12.331  18.403  0.00  0.00    +0.000 C 
ATOM     18  O   UNL     1       2.532  12.920  18.068  0.00  0.00    +0.000 OA
BRANCH  17  20
ATOM     19  C   UNL     1       0.175  14.118  19.098  0.00  0.00    +0.000 C 
ATOM     20  O   UNL     1       0.263  12.862  18.418  0.00  0.00    +0.000 OA
ENDBRANCH  17  20
ENDBRANCH   1  17
BRANCH   7  21
ATOM     21  C   UNL     1       3.634   7.600  16.832  0.00  0.00    +0.000 C 
BRANCH  21  22
ATOM     22  C   UNL     1       4.862   6.710  16.862  0.00  0.00    +0.000 A 
ATOM     23  C   UNL     1       4.974   5.670  15.920  0.00  0.00    +0.000 A 
ATOM     24  C   UNL     1       6.055   4.785  15.949  0.00  0.00    +0.000 A 
ATOM     25  C   UNL     1       7.036   4.917  16.929  0.00  0.00    +0.000 A 
ATOM     26  C   UNL     1       6.940   5.945  17.864  0.00  0.00    +0.000 A 
ATOM     27 CL   UNL     1       8.149   6.110  19.076  0.00  0.00    +0.000 Cl
ATOM     28  C   UNL     1       5.866   6.837  17.834  0.00  0.00    +0.000 A 
ENDBRANCH  21  22
ENDBRANCH   7  21
TORSDOF 5
ENDMDL
MODEL 3
REMARK VINA RESULT:      -8.0      2.014      4.295
REMARK  Name = 
REMARK  6 active torsions:
REMARK  status: ('A' for Active; 'I' for Inactive)
REMARK    1  A    between atoms: C_1  and  O_2
REMARK    2  A    between atoms: O_2  and  C_3
REMARK    3  A    between atoms: C_3  and  C_5
REMARK    4  A    between atoms: C_10  and  C_11
REMARK    5  A    between atoms: C_18  and  C_19
REMARK    6  A    between atoms: C_19  and  C_20
REMARK                            x       y       z     vdW  Elec       q    Type
REMARK                         _______ _______ _______ _____ _____    ______ ____
ROOT
ATOM      1  C   UNL     1       1.289  10.792  19.272  0.00  0.00    +0.000 A 
ATOM      2  C   UNL     1       0.812  10.355  20.583  0.00  0.00    +0.000 A 
ATOM      3  C   UNL     1       0.933   9.075  20.985  0.00  0.00    +0.000 A 
ATOM      4  C   UNL     1       1.540   8.116  20.127  0.00  0.00    +0.000 A 
ATOM      5  N   UNL     1       1.761   6.834  20.296  0.00  0.00    +0.000 NA
ATOM      6  C   UNL     1       2.397   6.404  19.151  0.00  0.00    +0.000 A 
ATOM      7  C   UNL     1       2.596   7.464  18.270  0.00  0.00    +0.000 A 
ATOM      8  N   UNL     1       2.005   8.556  18.892  0.00  0.00    +0.000 N 
ATOM      9  C   UNL     1       1.870   9.881  18.464  0.00  0.00    +0.000 A 
ENDROOT
BRANCH   6  10
ATOM     10  C   UNL     1       2.842   5.023  19.006  0.00  0.00    +0.000 A 
ATOM     11  C   UNL     1       4.005   4.545  19.621  0.00  0.00    +0.000 A 
ATOM     12  C   UNL     1       4.398   3.210  19.487  0.00  0.00    +0.000 A 
ATOM     13  C   UNL     1       3.646   2.346  18.697  0.00  0.00    +0.000 A 
ATOM     14 CL   UNL     1       4.145   0.710  18.513  0.00  0.00    +0.000 Cl
ATOM     15  C   UNL     1       2.506   2.807  18.046  0.00  0.00    +0.000 A 
ATOM     16  C   UNL     1       2.106   4.140  18.202  0.00  0.00    +0.000 A 
ENDBRANCH   6  10
BRANCH   1  17
ATOM     17  C   UNL     1       1.196  12.198  18.782  0.00  0.00    +0.000 C 
ATOM     18  O   UNL     1       0.204  12.902  18.918  0.00  0.00    +0.000 OA
BRANCH  17  20
ATOM     19  C   UNL     1       2.739  13.910  18.389  0.00  0.00    +0.000 C 
ATOM     20  O   UNL     1       2.337  12.559  18.141  0.00  0.00    +0.000 OA
ENDBRANCH  17  20
ENDBRANCH   1  17
BRANCH   7  21
ATOM     21  C   UNL     1       3.351   7.566  16.982  0.00  0.00    +0.000 C 
BRANCH  21  22
ATOM     22  C   UNL     1       4.655   6.793  16.910  0.00  0.00    +0.000 A 
ATOM     23  C   UNL     1       5.759   7.248  17.654  0.00  0.00    +0.000 A 
ATOM     24  C   UNL     1       6.999   6.608  17.570  0.00  0.00    +0.000 A 
ATOM     25  C   UNL     1       7.157   5.509  16.730  0.00  0.00    +0.000 A 
ATOM     26  C   UNL     1       6.072   5.045  15.991  0.00  0.00    +0.000 A 
ATOM     27 CL   UNL     1       6.265   3.688  14.952  0.00  0.00    +0.000 Cl
ATOM     28  C   UNL     1       4.829   5.677  16.078  0.00  0.00    +0.000 A 
ENDBRANCH  21  22
ENDBRANCH   7  21
TORSDOF 5
ENDMDL
MODEL 4
REMARK VINA RESULT:      -7.9      4.814      9.300
REMARK  Name = 
REMARK  6 active torsions:
REMARK  status: ('A' for Active; 'I' for Inactive)
REMARK    1  A    between atoms: C_1  and  O_2
REMARK    2  A    between atoms: O_2  and  C_3
REMARK    3  A    between atoms: C_3  and  C_5
REMARK    4  A    between atoms: C_10  and  C_11
REMARK    5  A    between atoms: C_18  and  C_19
REMARK    6  A    between atoms: C_19  and  C_20
REMARK                            x       y       z     vdW  Elec       q    Type
REMARK                         _______ _______ _______ _____ _____    ______ ____
ROOT
ATOM      1  C   UNL     1       1.599   8.683  19.385  0.00  0.00    +0.000 A 
ATOM      2  C   UNL     1       1.635   7.977  20.665  0.00  0.00    +0.000 A 
ATOM      3  C   UNL     1       1.083   8.504  21.775  0.00  0.00    +0.000 A 
ATOM      4  C   UNL     1       0.442   9.773  21.715  0.00  0.00    +0.000 A 
ATOM      5  N   UNL     1      -0.153  10.478  22.649  0.00  0.00    +0.000 NA
ATOM      6  C   UNL     1      -0.612  11.620  22.028  0.00  0.00    +0.000 A 
ATOM      7  C   UNL     1      -0.312  11.596  20.669  0.00  0.00    +0.000 A 
ATOM      8  N   UNL     1       0.402  10.419  20.484  0.00  0.00    +0.000 N 
ATOM      9  C   UNL     1       0.986   9.883  19.331  0.00  0.00    +0.000 A 
ENDROOT
BRANCH   6  10
ATOM     10  C   UNL     1      -1.373  12.624  22.761  0.00  0.00    +0.000 A 
ATOM     11  C   UNL     1      -0.856  13.893  23.046  0.00  0.00    +0.000 A 
ATOM     12  C   UNL     1      -1.615  14.847  23.730  0.00  0.00    +0.000 A 
ATOM     13  C   UNL     1      -2.892  14.523  24.174  0.00  0.00    +0.000 A 
ATOM     14 CL   UNL     1      -3.815  15.689  25.038  0.00  0.00    +0.000 Cl
ATOM     15  C   UNL     1      -3.415  13.255  23.936  0.00  0.00    +0.000 A 
ATOM     16  C   UNL     1      -2.658  12.311  23.230  0.00  0.00    +0.000 A 
ENDBRANCH   6  10
BRANCH   1  17
ATOM     17  C   UNL     1       2.179   8.140  18.122  0.00  0.00    +0.000 C 
ATOM     18  O   UNL     1       2.466   8.829  17.153  0.00  0.00    +0.000 OA
BRANCH  17  20
ATOM     19  C   UNL     1       3.631   6.314  17.968  0.00  0.00    +0.000 C 
ATOM     20  O   UNL     1       2.301   6.789  18.193  0.00  0.00    +0.000 OA
ENDBRANCH  17  20
ENDBRANCH   1  17
BRANCH   7  21
ATOM     21  C   UNL     1      -0.706  12.500  19.542  0.00  0.00    +0.000 C 
BRANCH  21  22
ATOM     22  C   UNL     1      -1.939  12.091  18.758  0.00  0.00    +0.000 A 
ATOM     23  C   UNL     1      -3.200  12.170  19.381  0.00  0.00    +0.000 A 
ATOM     24  C   UNL     1      -4.356  11.744  18.723  0.00  0.00    +0.000 A 
ATOM     25  C   UNL     1      -4.271  11.219  17.436  0.00  0.00    +0.000 A 
ATOM     26  C   UNL     1      -3.031  11.140  16.807  0.00  0.00    +0.000 A 
ATOM     27 CL   UNL     1      -2.922  10.492  15.217  0.00  0.00    +0.000 Cl
ATOM     28  C   UNL     1      -1.873  11.573  17.457  0.00  0.00    +0.000 A 
ENDBRANCH  21  22
ENDBRANCH   7  21
TORSDOF 5
ENDMDL
MODEL 5
REMARK VINA RESULT:      -7.9      2.153      4.090
REMARK  Name = 
REMARK  6 active torsions:
REMARK  status: ('A' for Active; 'I' for Inactive)
REMARK    1  A    between atoms: C_1  and  O_2
REMARK    2  A    between atoms: O_2  and  C_3
REMARK    3  A    between atoms: C_3  and  C_5
REMARK    4  A    between atoms: C_10  and  C_11
REMARK    5  A    between atoms: C_18  and  C_19
REMARK    6  A    between atoms: C_19  and  C_20
REMARK                            x       y       z     vdW  Elec       q    Type
REMARK                         _______ _______ _______ _____ _____    ______ ____
ROOT
ATOM      1  C   UNL     1       1.218  10.688  19.478  0.00  0.00    +0.000 A 
ATOM      2  C   UNL     1       0.747  10.217  20.780  0.00  0.00    +0.000 A 
ATOM      3  C   UNL     1       0.877   8.929  21.152  0.00  0.00    +0.000 A 
ATOM      4  C   UNL     1       1.489   7.995  20.272  0.00  0.00    +0.000 A 
ATOM      5  N   UNL     1       1.719   6.710  20.411  0.00  0.00    +0.000 NA
ATOM      6  C   UNL     1       2.357   6.312  19.255  0.00  0.00    +0.000 A 
ATOM      7  C   UNL     1       2.546   7.393  18.399  0.00  0.00    +0.000 A 
ATOM      8  N   UNL     1       1.949   8.466  19.047  0.00  0.00    +0.000 N 
ATOM      9  C   UNL     1       1.803   9.800  18.649  0.00  0.00    +0.000 A 
ENDROOT
BRANCH   6  10
ATOM     10  C   UNL     1       2.811   4.937  19.078  0.00  0.00    +0.000 A 
ATOM     11  C   UNL     1       3.992   4.460  19.659  0.00  0.00    +0.000 A 
ATOM     12  C   UNL     1       4.393   3.131  19.495  0.00  0.00    +0.000 A 
ATOM     13  C   UNL     1       3.633   2.273  18.708  0.00  0.00    +0.000 A 
ATOM     14 CL   UNL     1       4.142   0.645  18.486  0.00  0.00    +0.000 Cl
ATOM     15  C   UNL     1       2.474   2.734  18.089  0.00  0.00    +0.000 A 
ATOM     16  C   UNL     1       2.065   4.060  18.277  0.00  0.00    +0.000 A 
ENDBRANCH   6  10
BRANCH   1  17
ATOM     17  C   UNL     1       1.114  12.104  19.021  0.00  0.00    +0.000 C 
ATOM     18  O   UNL     1       2.024  12.916  19.110  0.00  0.00    +0.000 OA
BRANCH  17  20
ATOM     19  C   UNL     1      -0.507  13.740  18.618  0.00  0.00    +0.000 C 
ATOM     20  O   UNL     1      -0.130  12.362  18.540  0.00  0.00    +0.000 OA
ENDBRANCH  17  20
ENDBRANCH   1  17
BRANCH   7  21
ATOM     21  C   UNL     1       3.299   7.529  17.112  0.00  0.00    +0.000 C 
BRANCH  21  22
ATOM     22  C   UNL     1       4.614   6.779  17.025  0.00  0.00    +0.000 A 
ATOM     23  C   UNL     1       4.706   5.659  16.176  0.00  0.00    +0.000 A 
ATOM     24  C   UNL     1       5.876   4.898  16.112  0.00  0.00    +0.000 A 
ATOM     25  C   UNL     1       6.969   5.235  16.905  0.00  0.00    +0.000 A 
ATOM     26  C   UNL     1       6.894   6.342  17.746  0.00  0.00    +0.000 A 
ATOM     27 CL   UNL     1       8.242   6.761  18.728  0.00  0.00    +0.000 Cl
ATOM     28  C   UNL     1       5.729   7.112  17.808  0.00  0.00    +0.000 A 
ENDBRANCH  21  22
ENDBRANCH   7  21
TORSDOF 5
ENDMDL
MODEL 6
REMARK VINA RESULT:      -7.9      1.965      4.117
REMARK  Name = 
REMARK  6 active torsions:
REMARK  status: ('A' for Active; 'I' for Inactive)
REMARK    1  A    between atoms: C_1  and  O_2
REMARK    2  A    between atoms: O_2  and  C_3
REMARK    3  A    between atoms: C_3  and  C_5
REMARK    4  A    between atoms: C_10  and  C_11
REMARK    5  A    between atoms: C_18  and  C_19
REMARK    6  A    between atoms: C_19  and  C_20
REMARK                            x       y       z     vdW  Elec       q    Type
REMARK                         _______ _______ _______ _____ _____    ______ ____
ROOT
ATOM      1  C   UNL     1       1.350  10.822  19.302  0.00  0.00    +0.000 A 
ATOM      2  C   UNL     1       0.849  10.375  20.601  0.00  0.00    +0.000 A 
ATOM      3  C   UNL     1       0.938   9.087  20.985  0.00  0.00    +0.000 A 
ATOM      4  C   UNL     1       1.535   8.128  20.120  0.00  0.00    +0.000 A 
ATOM      5  N   UNL     1       1.727   6.839  20.272  0.00  0.00    +0.000 NA
ATOM      6  C   UNL     1       2.368   6.414  19.128  0.00  0.00    +0.000 A 
ATOM      7  C   UNL     1       2.599   7.482  18.266  0.00  0.00    +0.000 A 
ATOM      8  N   UNL     1       2.023   8.577  18.898  0.00  0.00    +0.000 N 
ATOM      9  C   UNL     1       1.921   9.911  18.488  0.00  0.00    +0.000 A 
ENDROOT
BRANCH   6  10
ATOM     10  C   UNL     1       2.785   5.026  18.968  0.00  0.00    +0.000 A 
ATOM     11  C   UNL     1       2.062   4.113  18.191  0.00  0.00    +0.000 A 
ATOM     12  C   UNL     1       2.495   2.793  18.034  0.00  0.00    +0.000 A 
ATOM     13  C   UNL     1       3.642   2.361  18.691  0.00  0.00    +0.000 A 
ATOM     14 CL   UNL     1       4.160   0.730  18.516  0.00  0.00    +0.000 Cl
ATOM     15  C   UNL     1       4.358   3.239  19.499  0.00  0.00    +0.000 A 
ATOM     16  C   UNL     1       3.931   4.566  19.634  0.00  0.00    +0.000 A 
ENDBRANCH   6  10
BRANCH   1  17
ATOM     17  C   UNL     1       1.292  12.237  18.833  0.00  0.00    +0.000 C 
ATOM     18  O   UNL     1       2.199  12.790  18.227  0.00  0.00    +0.000 OA
BRANCH  17  20
ATOM     19  C   UNL     1      -0.900  12.758  18.211  0.00  0.00    +0.000 C 
ATOM     20  O   UNL     1       0.123  12.818  19.208  0.00  0.00    +0.000 OA
ENDBRANCH  17  20
ENDBRANCH   1  17
BRANCH   7  21
ATOM     21  C   UNL     1       3.372   7.587  16.988  0.00  0.00    +0.000 C 
BRANCH  21  22
ATOM     22  C   UNL     1       4.660   6.788  16.920  0.00  0.00    +0.000 A 
ATOM     23  C   UNL     1       5.773   7.226  17.662  0.00  0.00    +0.000 A 
ATOM     24  C   UNL     1       7.000   6.561  17.581  0.00  0.00    +0.000 A 
ATOM     25  C   UNL     1       7.137   5.455  16.746  0.00  0.00    +0.000 A 
ATOM     26  C   UNL     1       6.042   5.009  16.010  0.00  0.00    +0.000 A 
ATOM     27 CL   UNL     1       6.209   3.643  14.977  0.00  0.00    +0.000 Cl
ATOM     28  C   UNL     1       4.812   5.665  16.094  0.00  0.00    +0.000 A 
ENDBRANCH  21  22
ENDBRANCH   7  21
TORSDOF 5
ENDMDL
MODEL 7
REMARK VINA RESULT:      -7.7      5.185      9.431
REMARK  Name = 
REMARK  6 active torsions:
REMARK  status: ('A' for Active; 'I' for Inactive)
REMARK    1  A    between atoms: C_1  and  O_2
REMARK    2  A    between atoms: O_2  and  C_3
REMARK    3  A    between atoms: C_3  and  C_5
REMARK    4  A    between atoms: C_10  and  C_11
REMARK    5  A    between atoms: C_18  and  C_19
REMARK    6  A    between atoms: C_19  and  C_20
REMARK                            x       y       z     vdW  Elec       q    Type
REMARK                         _______ _______ _______ _____ _____    ______ ____
ROOT
ATOM      1  C   UNL     1       1.608   8.655  19.388  0.00  0.00    +0.000 A 
ATOM      2  C   UNL     1       1.703   7.972  20.677  0.00  0.00    +0.000 A 
ATOM      3  C   UNL     1       1.161   8.496  21.794  0.00  0.00    +0.000 A 
ATOM      4  C   UNL     1       0.472   9.739  21.732  0.00  0.00    +0.000 A 
ATOM      5  N   UNL     1      -0.124  10.437  22.669  0.00  0.00    +0.000 NA
ATOM      6  C   UNL     1      -0.641  11.551  22.044  0.00  0.00    +0.000 A 
ATOM      7  C   UNL     1      -0.377  11.516  20.678  0.00  0.00    +0.000 A 
ATOM      8  N   UNL     1       0.376  10.363  20.492  0.00  0.00    +0.000 N 
ATOM      9  C   UNL     1       0.949   9.831  19.332  0.00  0.00    +0.000 A 
ENDROOT
BRANCH   6  10
ATOM     10  C   UNL     1      -1.420  12.538  22.781  0.00  0.00    +0.000 A 
ATOM     11  C   UNL     1      -2.719  12.278  23.234  0.00  0.00    +0.000 A 
ATOM     12  C   UNL     1      -3.437  13.232  23.960  0.00  0.00    +0.000 A 
ATOM     13  C   UNL     1      -2.874  14.480  24.206  0.00  0.00    +0.000 A 
ATOM     14 CL   UNL     1      -3.768  15.662  25.078  0.00  0.00    +0.000 Cl
ATOM     15  C   UNL     1      -1.598  14.776  23.734  0.00  0.00    +0.000 A 
ATOM     16  C   UNL     1      -0.875  13.807  23.027  0.00  0.00    +0.000 A 
ENDBRANCH   6  10
BRANCH   1  17
ATOM     17  C   UNL     1       2.175   8.113  18.119  0.00  0.00    +0.000 C 
ATOM     18  O   UNL     1       2.437   8.801  17.142  0.00  0.00    +0.000 OA
BRANCH  17  20
ATOM     19  C   UNL     1       3.626   6.299  17.861  0.00  0.00    +0.000 C 
ATOM     20  O   UNL     1       2.316   6.764  18.195  0.00  0.00    +0.000 OA
ENDBRANCH  17  20
ENDBRANCH   1  17
BRANCH   7  21
ATOM     21  C   UNL     1      -0.833  12.387  19.548  0.00  0.00    +0.000 C 
BRANCH  21  22
ATOM     22  C   UNL     1      -2.144  11.996  18.892  0.00  0.00    +0.000 A 
ATOM     23  C   UNL     1      -2.118  11.415  17.610  0.00  0.00    +0.000 A 
ATOM     24  C   UNL     1      -3.303  11.098  16.939  0.00  0.00    +0.000 A 
ATOM     25  C   UNL     1      -4.532  11.369  17.534  0.00  0.00    +0.000 A 
ATOM     26  C   UNL     1      -4.572  11.938  18.804  0.00  0.00    +0.000 A 
ATOM     27 CL   UNL     1      -6.089  12.274  19.541  0.00  0.00    +0.000 Cl
ATOM     28  C   UNL     1      -3.391  12.249  19.482  0.00  0.00    +0.000 A 
ENDBRANCH  21  22
ENDBRANCH   7  21
TORSDOF 5
ENDMDL
MODEL 8
REMARK VINA RESULT:      -7.4      1.462      1.839
REMARK  Name = 
REMARK  6 active torsions:
REMARK  status: ('A' for Active; 'I' for Inactive)
REMARK    1  A    between atoms: C_1  and  O_2
REMARK    2  A    between atoms: O_2  and  C_3
REMARK    3  A    between atoms: C_3  and  C_5
REMARK    4  A    between atoms: C_10  and  C_11
REMARK    5  A    between atoms: C_18  and  C_19
REMARK    6  A    between atoms: C_19  and  C_20
REMARK                            x       y       z     vdW  Elec       q    Type
REMARK                         _______ _______ _______ _____ _____    ______ ____
ROOT
ATOM      1  C   UNL     1       0.434   9.186  20.688  0.00  0.00    +0.000 A 
ATOM      2  C   UNL     1       0.196   9.934  19.454  0.00  0.00    +0.000 A 
ATOM      3  C   UNL     1       0.888   9.674  18.328  0.00  0.00    +0.000 A 
ATOM      4  C   UNL     1       1.872   8.647  18.321  0.00  0.00    +0.000 A 
ATOM      5  N   UNL     1       2.660   8.221  17.362  0.00  0.00    +0.000 NA
ATOM      6  C   UNL     1       3.398   7.191  17.906  0.00  0.00    +0.000 A 
ATOM      7  C   UNL     1       3.027   6.964  19.228  0.00  0.00    +0.000 A 
ATOM      8  N   UNL     1       2.069   7.933  19.499  0.00  0.00    +0.000 N 
ATOM      9  C   UNL     1       1.364   8.209  20.675  0.00  0.00    +0.000 A 
ENDROOT
BRANCH   6  10
ATOM     10  C   UNL     1       4.357   6.443  17.102  0.00  0.00    +0.000 A 
ATOM     11  C   UNL     1       4.019   5.245  16.460  0.00  0.00    +0.000 A 
ATOM     12  C   UNL     1       4.949   4.558  15.675  0.00  0.00    +0.000 A 
ATOM     13  C   UNL     1       6.247   5.044  15.559  0.00  0.00    +0.000 A 
ATOM     14 CL   UNL     1       7.397   4.184  14.613  0.00  0.00    +0.000 Cl
ATOM     15  C   UNL     1       6.618   6.212  16.219  0.00  0.00    +0.000 A 
ATOM     16  C   UNL     1       5.675   6.909  16.985  0.00  0.00    +0.000 A 
ENDBRANCH   6  10
BRANCH   1  17
ATOM     17  C   UNL     1      -0.313   9.422  21.957  0.00  0.00    +0.000 C 
ATOM     18  O   UNL     1      -0.872   8.538  22.591  0.00  0.00    +0.000 OA
BRANCH  17  20
ATOM     19  C   UNL     1      -1.403  11.136  23.112  0.00  0.00    +0.000 C 
ATOM     20  O   UNL     1      -0.313  10.742  22.275  0.00  0.00    +0.000 OA
ENDBRANCH  17  20
ENDBRANCH   1  17
BRANCH   7  21
ATOM     21  C   UNL     1       3.405   5.892  20.203  0.00  0.00    +0.000 C 
BRANCH  21  22
ATOM     22  C   UNL     1       3.213   4.463  19.731  0.00  0.00    +0.000 A 
ATOM     23  C   UNL     1       4.348   3.659  19.515  0.00  0.00    +0.000 A 
ATOM     24  C   UNL     1       4.225   2.358  19.019  0.00  0.00    +0.000 A 
ATOM     25  C   UNL     1       2.966   1.845  18.718  0.00  0.00    +0.000 A 
ATOM     26  C   UNL     1       1.835   2.628  18.932  0.00  0.00    +0.000 A 
ATOM     27 CL   UNL     1       0.278   1.997  18.562  0.00  0.00    +0.000 Cl
ATOM     28  C   UNL     1       1.952   3.926  19.436  0.00  0.00    +0.000 A 
ENDBRANCH  21  22
ENDBRANCH   7  21
TORSDOF 5
ENDMDL
MODEL 9
REMARK VINA RESULT:      -7.4      5.320      9.622
REMARK  Name = 
REMARK  6 active torsions:
REMARK  status: ('A' for Active; 'I' for Inactive)
REMARK    1  A    between atoms: C_1  and  O_2
REMARK    2  A    between atoms: O_2  and  C_3
REMARK    3  A    between atoms: C_3  and  C_5
REMARK    4  A    between atoms: C_10  and  C_11
REMARK    5  A    between atoms: C_18  and  C_19
REMARK    6  A    between atoms: C_19  and  C_20
REMARK                            x       y       z     vdW  Elec       q    Type
REMARK                         _______ _______ _______ _____ _____    ______ ____
ROOT
ATOM      1  C   UNL     1       1.504   8.778  19.702  0.00  0.00    +0.000 A 
ATOM      2  C   UNL     1       1.669   8.209  21.038  0.00  0.00    +0.000 A 
ATOM      3  C   UNL     1       1.129   8.794  22.125  0.00  0.00    +0.000 A 
ATOM      4  C   UNL     1       0.374   9.992  21.985  0.00  0.00    +0.000 A 
ATOM      5  N   UNL     1      -0.234  10.732  22.881  0.00  0.00    +0.000 NA
ATOM      6  C   UNL     1      -0.825  11.764  22.184  0.00  0.00    +0.000 A 
ATOM      7  C   UNL     1      -0.595  11.631  20.818  0.00  0.00    +0.000 A 
ATOM      8  N   UNL     1       0.212  10.506  20.702  0.00  0.00    +0.000 N 
ATOM      9  C   UNL     1       0.783   9.911  19.572  0.00  0.00    +0.000 A 
ENDROOT
BRANCH   6  10
ATOM     10  C   UNL     1      -1.636  12.767  22.863  0.00  0.00    +0.000 A 
ATOM     11  C   UNL     1      -1.130  14.024  23.215  0.00  0.00    +0.000 A 
ATOM     12  C   UNL     1      -1.935  14.978  23.845  0.00  0.00    +0.000 A 
ATOM     13  C   UNL     1      -3.251  14.665  24.168  0.00  0.00    +0.000 A 
ATOM     14 CL   UNL     1      -4.232  15.831  24.966  0.00  0.00    +0.000 Cl
ATOM     15  C   UNL     1      -3.766  13.409  23.863  0.00  0.00    +0.000 A 
ATOM     16  C   UNL     1      -2.962  12.466  23.211  0.00  0.00    +0.000 A 
ENDBRANCH   6  10
BRANCH   1  17
ATOM     17  C   UNL     1       2.066   8.164  18.464  0.00  0.00    +0.000 C 
ATOM     18  O   UNL     1       1.922   8.637  17.345  0.00  0.00    +0.000 OA
BRANCH  17  20
ATOM     19  C   UNL     1       3.398   6.429  17.640  0.00  0.00    +0.000 C 
ATOM     20  O   UNL     1       2.712   7.006  18.755  0.00  0.00    +0.000 OA
ENDBRANCH  17  20
ENDBRANCH   1  17
BRANCH   7  21
ATOM     21  C   UNL     1      -1.126  12.382  19.636  0.00  0.00    +0.000 C 
BRANCH  21  22
ATOM     22  C   UNL     1      -2.483  11.941  19.120  0.00  0.00    +0.000 A 
ATOM     23  C   UNL     1      -2.541  10.983  18.090  0.00  0.00    +0.000 A 
ATOM     24  C   UNL     1      -3.764  10.593  17.537  0.00  0.00    +0.000 A 
ATOM     25  C   UNL     1      -4.948  11.164  17.997  0.00  0.00    +0.000 A 
ATOM     26  C   UNL     1      -4.905  12.109  19.019  0.00  0.00    +0.000 A 
ATOM     27 CL   UNL     1      -6.365  12.817  19.589  0.00  0.00    +0.000 Cl
ATOM     28  C   UNL     1      -3.685  12.496  19.580  0.00  0.00    +0.000 A 
ENDBRANCH  21  22
ENDBRANCH   7  21
TORSDOF 5
ENDMDL
