MODEL 1
REMARK VINA RESULT:      -7.2      0.000      0.000
REMARK  Name = 
REMARK  6 active torsions:
REMARK  status: ('A' for Active; 'I' for Inactive)
REMARK    1  A    between atoms: C_1  and  O_2
REMARK    2  A    between atoms: O_2  and  C_3
REMARK    3  A    between atoms: C_8  and  C_9
REMARK    4  A    between atoms: C_9  and  N_10
REMARK    5  A    between atoms: C_16  and  C_17
REMARK    6  A    between atoms: C_24  and  C_25
REMARK                            x       y       z     vdW  Elec       q    Type
REMARK                         _______ _______ _______ _____ _____    ______ ____
ROOT
ATOM      1  N   UNL     1       2.372   7.175  19.566  0.00  0.00    +0.000 NA
ATOM      2  C   UNL     1       1.587   6.010  19.934  0.00  0.00    +0.000 C 
ATOM      3  C   UNL     1       1.616   4.848  18.970  0.00  0.00    +0.000 C 
ATOM      4  C   UNL     1       2.984   4.478  18.418  0.00  0.00    +0.000 C 
ATOM      5  C   UNL     1       3.754   5.714  17.927  0.00  0.00    +0.000 C 
ATOM      6  C   UNL     1       3.637   6.940  18.874  0.00  0.00    +0.000 C 
ATOM      7  C   UNL     1       5.225   5.208  17.818  0.00  0.00    +0.000 C 
ATOM      8  C   UNL     1       5.278   3.943  18.703  0.00  0.00    +0.000 C 
ATOM      9  N   UNL     1       3.944   3.756  19.251  0.00  0.00    +0.000 N 
ATOM     10  C   UNL     1       3.602   2.612  19.959  0.00  0.00    +0.000 C 
ATOM     11  C   UNL     1       4.717   1.872  20.665  0.00  0.00    +0.000 C 
ATOM     12  O   UNL     1       2.444   2.209  20.072  0.00  0.00    +0.000 OA
ENDROOT
BRANCH   7  13
ATOM     13  C   UNL     1       5.716   4.919  16.407  0.00  0.00    +0.000 A 
ATOM     14  C   UNL     1       6.986   5.367  15.891  0.00  0.00    +0.000 A 
ATOM     15  C   UNL     1       7.230   4.939  14.605  0.00  0.00    +0.000 A 
ATOM     16  S   UNL     1       5.948   3.990  13.997  0.00  0.00    +0.000 S 
ATOM     17  C   UNL     1       5.070   4.146  15.457  0.00  0.00    +0.000 A 
ENDBRANCH   7  13
BRANCH   1  18
ATOM     18  C   UNL     1       1.654   8.412  19.235  0.00  0.00    +0.000 C 
BRANCH  18  24
ATOM     19  C   UNL     1      -0.012  10.112  20.192  0.00  0.00    +0.000 A 
ATOM     20  C   UNL     1      -0.667  10.699  21.285  0.00  0.00    +0.000 A 
ATOM     21  C   UNL     1      -0.371  10.304  22.590  0.00  0.00    +0.000 A 
ATOM     22  C   UNL     1       0.600   9.330  22.819  0.00  0.00    +0.000 A 
ATOM     23  C   UNL     1       1.260   8.740  21.744  0.00  0.00    +0.000 A 
ATOM     24  C   UNL     1       0.954   9.107  20.407  0.00  0.00    +0.000 A 
BRANCH  19  26
ATOM     25  C   UNL     1      -1.400  10.335  18.231  0.00  0.00    +0.000 C 
ATOM     26  O   UNL     1      -0.160  10.522  18.897  0.00  0.00    +0.000 OA
ENDBRANCH  19  26
ENDBRANCH  18  24
ENDBRANCH   1  18
TORSDOF 4
ENDMDL
MODEL 2
REMARK VINA RESULT:      -6.9      0.797      1.023
REMARK  Name = 
REMARK  6 active torsions:
REMARK  status: ('A' for Active; 'I' for Inactive)
REMARK    1  A    between atoms: C_1  and  O_2
REMARK    2  A    between atoms: O_2  and  C_3
REMARK    3  A    between atoms: C_8  and  C_9
REMARK    4  A    between atoms: C_9  and  N_10
REMARK    5  A    between atoms: C_16  and  C_17
REMARK    6  A    between atoms: C_24  and  C_25
REMARK                            x       y       z     vdW  Elec       q    Type
REMARK                         _______ _______ _______ _____ _____    ______ ____
ROOT
ATOM      1  N   UNL     1       2.629   7.094  19.005  0.00  0.00    +0.000 NA
ATOM      2  C   UNL     1       1.759   5.968  19.296  0.00  0.00    +0.000 C 
ATOM      3  C   UNL     1       1.759   4.841  18.291  0.00  0.00    +0.000 C 
ATOM      4  C   UNL     1       3.126   4.405  17.784  0.00  0.00    +0.000 C 
ATOM      5  C   UNL     1       3.991   5.606  17.373  0.00  0.00    +0.000 C 
ATOM      6  C   UNL     1       3.907   6.803  18.361  0.00  0.00    +0.000 C 
ATOM      7  C   UNL     1       5.432   5.013  17.308  0.00  0.00    +0.000 C 
ATOM      8  C   UNL     1       5.368   3.718  18.146  0.00  0.00    +0.000 C 
ATOM      9  N   UNL     1       4.001   3.596  18.629  0.00  0.00    +0.000 N 
ATOM     10  C   UNL     1       3.558   2.451  19.278  0.00  0.00    +0.000 C 
ATOM     11  C   UNL     1       4.593   1.618  20.003  0.00  0.00    +0.000 C 
ATOM     12  O   UNL     1       2.375   2.118  19.327  0.00  0.00    +0.000 OA
ENDROOT
BRANCH   7  13
ATOM     13  C   UNL     1       5.968   4.744  15.909  0.00  0.00    +0.000 A 
ATOM     14  C   UNL     1       5.271   3.961  14.920  0.00  0.00    +0.000 A 
ATOM     15  C   UNL     1       5.930   3.901  13.713  0.00  0.00    +0.000 A 
ATOM     16  S   UNL     1       7.389   4.786  13.741  0.00  0.00    +0.000 S 
ATOM     17  C   UNL     1       7.134   5.255  15.367  0.00  0.00    +0.000 A 
ENDBRANCH   7  13
BRANCH   1  18
ATOM     18  C   UNL     1       2.004   8.384  18.691  0.00  0.00    +0.000 C 
BRANCH  18  24
ATOM     19  C   UNL     1       0.073   9.840  19.547  0.00  0.00    +0.000 A 
ATOM     20  C   UNL     1      -0.683  10.371  20.603  0.00  0.00    +0.000 A 
ATOM     21  C   UNL     1      -0.346  10.098  21.928  0.00  0.00    +0.000 A 
ATOM     22  C   UNL     1       0.766   9.307  22.214  0.00  0.00    +0.000 A 
ATOM     23  C   UNL     1       1.527   8.776  21.176  0.00  0.00    +0.000 A 
ATOM     24  C   UNL     1       1.185   9.017  19.820  0.00  0.00    +0.000 A 
BRANCH  19  26
ATOM     25  C   UNL     1      -1.432  10.405  17.747  0.00  0.00    +0.000 C 
ATOM     26  O   UNL     1      -0.122  10.153  18.230  0.00  0.00    +0.000 OA
ENDBRANCH  19  26
ENDBRANCH  18  24
ENDBRANCH   1  18
TORSDOF 4
ENDMDL
MODEL 3
REMARK VINA RESULT:      -6.8      3.170      7.903
REMARK  Name = 
REMARK  6 active torsions:
REMARK  status: ('A' for Active; 'I' for Inactive)
REMARK    1  A    between atoms: C_1  and  O_2
REMARK    2  A    between atoms: O_2  and  C_3
REMARK    3  A    between atoms: C_8  and  C_9
REMARK    4  A    between atoms: C_9  and  N_10
REMARK    5  A    between atoms: C_16  and  C_17
REMARK    6  A    between atoms: C_24  and  C_25
REMARK                            x       y       z     vdW  Elec       q    Type
REMARK                         _______ _______ _______ _____ _____    ______ ____
ROOT
ATOM      1  N   UNL     1       5.402   4.600  16.650  0.00  0.00    +0.000 NA
ATOM      2  C   UNL     1       5.721   3.824  17.835  0.00  0.00    +0.000 C 
ATOM      3  C   UNL     1       5.453   4.487  19.165  0.00  0.00    +0.000 C 
ATOM      4  C   UNL     1       4.124   5.217  19.287  0.00  0.00    +0.000 C 
ATOM      5  C   UNL     1       3.857   6.122  18.075  0.00  0.00    +0.000 C 
ATOM      6  C   UNL     1       4.230   5.470  16.715  0.00  0.00    +0.000 C 
ATOM      7  C   UNL     1       2.330   6.421  18.171  0.00  0.00    +0.000 C 
ATOM      8  C   UNL     1       1.762   5.307  19.078  0.00  0.00    +0.000 C 
ATOM      9  N   UNL     1       2.884   4.463  19.461  0.00  0.00    +0.000 N 
ATOM     10  C   UNL     1       2.749   3.462  20.413  0.00  0.00    +0.000 C 
ATOM     11  C   UNL     1       1.373   2.857  20.596  0.00  0.00    +0.000 C 
ATOM     12  O   UNL     1       3.693   3.020  21.068  0.00  0.00    +0.000 OA
ENDROOT
BRANCH   7  13
ATOM     13  C   UNL     1       1.964   7.802  18.695  0.00  0.00    +0.000 A 
ATOM     14  C   UNL     1       1.851   8.973  17.861  0.00  0.00    +0.000 A 
ATOM     15  C   UNL     1       1.458  10.096  18.553  0.00  0.00    +0.000 A 
ATOM     16  S   UNL     1       1.212   9.768  20.210  0.00  0.00    +0.000 S 
ATOM     17  C   UNL     1       1.624   8.120  19.998  0.00  0.00    +0.000 A 
ENDBRANCH   7  13
BRANCH   1  18
ATOM     18  C   UNL     1       6.511   5.041  15.797  0.00  0.00    +0.000 C 
BRANCH  18  24
ATOM     19  C   UNL     1       7.483   4.891  13.428  0.00  0.00    +0.000 A 
ATOM     20  C   UNL     1       7.437   4.392  12.117  0.00  0.00    +0.000 A 
ATOM     21  C   UNL     1       6.393   3.563  11.706  0.00  0.00    +0.000 A 
ATOM     22  C   UNL     1       5.370   3.240  12.596  0.00  0.00    +0.000 A 
ATOM     23  C   UNL     1       5.401   3.731  13.899  0.00  0.00    +0.000 A 
ATOM     24  C   UNL     1       6.468   4.552  14.347  0.00  0.00    +0.000 A 
BRANCH  19  26
ATOM     25  C   UNL     1       9.548   6.091  13.085  0.00  0.00    +0.000 C 
ATOM     26  O   UNL     1       8.404   5.797  13.873  0.00  0.00    +0.000 OA
ENDBRANCH  19  26
ENDBRANCH  18  24
ENDBRANCH   1  18
TORSDOF 4
ENDMDL
MODEL 4
REMARK VINA RESULT:      -6.8      7.626     10.622
REMARK  Name = 
REMARK  6 active torsions:
REMARK  status: ('A' for Active; 'I' for Inactive)
REMARK    1  A    between atoms: C_1  and  O_2
REMARK    2  A    between atoms: O_2  and  C_3
REMARK    3  A    between atoms: C_8  and  C_9
REMARK    4  A    between atoms: C_9  and  N_10
REMARK    5  A    between atoms: C_16  and  C_17
REMARK    6  A    between atoms: C_24  and  C_25
REMARK                            x       y       z     vdW  Elec       q    Type
REMARK                         _______ _______ _______ _____ _____    ______ ____
ROOT
ATOM      1  N   UNL     1      -4.963  14.271  20.717  0.00  0.00    +0.000 NA
ATOM      2  C   UNL     1      -5.361  14.636  22.065  0.00  0.00    +0.000 C 
ATOM      3  C   UNL     1      -4.933  13.699  23.170  0.00  0.00    +0.000 C 
ATOM      4  C   UNL     1      -3.496  13.205  23.100  0.00  0.00    +0.000 C 
ATOM      5  C   UNL     1      -3.129  12.715  21.691  0.00  0.00    +0.000 C 
ATOM      6  C   UNL     1      -3.660  13.631  20.553  0.00  0.00    +0.000 C 
ATOM      7  C   UNL     1      -1.570  12.670  21.714  0.00  0.00    +0.000 C 
ATOM      8  C   UNL     1      -1.163  13.583  22.891  0.00  0.00    +0.000 C 
ATOM      9  N   UNL     1      -2.395  14.086  23.479  0.00  0.00    +0.000 N 
ATOM     10  C   UNL     1      -2.393  14.806  24.667  0.00  0.00    +0.000 C 
ATOM     11  C   UNL     1      -1.132  15.568  25.016  0.00  0.00    +0.000 C 
ATOM     12  O   UNL     1      -3.371  14.887  25.410  0.00  0.00    +0.000 OA
ENDROOT
BRANCH   7  13
ATOM     13  C   UNL     1      -0.957  11.284  21.848  0.00  0.00    +0.000 A 
ATOM     14  C   UNL     1      -0.899  10.548  23.086  0.00  0.00    +0.000 A 
ATOM     15  C   UNL     1      -0.344   9.295  22.948  0.00  0.00    +0.000 A 
ATOM     16  S   UNL     1       0.111   8.978  21.334  0.00  0.00    +0.000 S 
ATOM     17  C   UNL     1      -0.442  10.513  20.820  0.00  0.00    +0.000 A 
ENDBRANCH   7  13
BRANCH   1  18
ATOM     18  C   UNL     1      -6.015  13.888  19.769  0.00  0.00    +0.000 C 
BRANCH  18  24
ATOM     19  C   UNL     1      -6.132  11.478  18.899  0.00  0.00    +0.000 A 
ATOM     20  C   UNL     1      -6.557  10.147  19.037  0.00  0.00    +0.000 A 
ATOM     21  C   UNL     1      -7.346   9.760  20.120  0.00  0.00    +0.000 A 
ATOM     22  C   UNL     1      -7.739  10.704  21.068  0.00  0.00    +0.000 A 
ATOM     23  C   UNL     1      -7.327  12.029  20.942  0.00  0.00    +0.000 A 
ATOM     24  C   UNL     1      -6.499  12.438  19.864  0.00  0.00    +0.000 A 
BRANCH  19  26
ATOM     25  C   UNL     1      -4.151  11.485  17.521  0.00  0.00    +0.000 C 
ATOM     26  O   UNL     1      -5.457  11.959  17.813  0.00  0.00    +0.000 OA
ENDBRANCH  19  26
ENDBRANCH  18  24
ENDBRANCH   1  18
TORSDOF 4
ENDMDL
MODEL 5
REMARK VINA RESULT:      -6.8      3.586      8.076
REMARK  Name = 
REMARK  6 active torsions:
REMARK  status: ('A' for Active; 'I' for Inactive)
REMARK    1  A    between atoms: C_1  and  O_2
REMARK    2  A    between atoms: O_2  and  C_3
REMARK    3  A    between atoms: C_8  and  C_9
REMARK    4  A    between atoms: C_9  and  N_10
REMARK    5  A    between atoms: C_16  and  C_17
REMARK    6  A    between atoms: C_24  and  C_25
REMARK                            x       y       z     vdW  Elec       q    Type
REMARK                         _______ _______ _______ _____ _____    ______ ____
ROOT
ATOM      1  N   UNL     1       1.395   8.123  20.023  0.00  0.00    +0.000 NA
ATOM      2  C   UNL     1       1.049   8.254  21.427  0.00  0.00    +0.000 C 
ATOM      3  C   UNL     1       1.357   9.582  22.074  0.00  0.00    +0.000 C 
ATOM      4  C   UNL     1       0.986  10.816  21.265  0.00  0.00    +0.000 C 
ATOM      5  C   UNL     1       1.463  10.708  19.809  0.00  0.00    +0.000 C 
ATOM      6  C   UNL     1       1.234   9.305  19.180  0.00  0.00    +0.000 C 
ATOM      7  C   UNL     1       0.641  11.810  19.073  0.00  0.00    +0.000 C 
ATOM      8  C   UNL     1      -0.558  12.101  20.002  0.00  0.00    +0.000 C 
ATOM      9  N   UNL     1      -0.409  11.237  21.164  0.00  0.00    +0.000 N 
ATOM     10  C   UNL     1      -1.231  11.366  22.275  0.00  0.00    +0.000 C 
ATOM     11  C   UNL     1      -2.610  11.951  22.057  0.00  0.00    +0.000 C 
ATOM     12  O   UNL     1      -0.909  10.988  23.401  0.00  0.00    +0.000 OA
ENDROOT
BRANCH   7  13
ATOM     13  C   UNL     1       1.405  13.083  18.738  0.00  0.00    +0.000 A 
ATOM     14  C   UNL     1       0.877  14.410  18.930  0.00  0.00    +0.000 A 
ATOM     15  C   UNL     1       1.774  15.403  18.603  0.00  0.00    +0.000 A 
ATOM     16  S   UNL     1       3.262  14.763  18.067  0.00  0.00    +0.000 S 
ATOM     17  C   UNL     1       2.710  13.158  18.280  0.00  0.00    +0.000 A 
ENDBRANCH   7  13
BRANCH   1  18
ATOM     18  C   UNL     1       2.471   7.192  19.662  0.00  0.00    +0.000 C 
BRANCH  18  24
ATOM     19  C   UNL     1       2.520   4.941  18.432  0.00  0.00    +0.000 A 
ATOM     20  C   UNL     1       2.156   3.589  18.342  0.00  0.00    +0.000 A 
ATOM     21  C   UNL     1       1.331   3.007  19.305  0.00  0.00    +0.000 A 
ATOM     22  C   UNL     1       0.844   3.777  20.360  0.00  0.00    +0.000 A 
ATOM     23  C   UNL     1       1.194   5.121  20.461  0.00  0.00    +0.000 A 
ATOM     24  C   UNL     1       2.055   5.726  19.508  0.00  0.00    +0.000 A 
BRANCH  19  26
ATOM     25  C   UNL     1       4.387   5.025  16.906  0.00  0.00    +0.000 C 
ATOM     26  O   UNL     1       3.225   5.612  17.473  0.00  0.00    +0.000 OA
ENDBRANCH  19  26
ENDBRANCH  18  24
ENDBRANCH   1  18
TORSDOF 4
ENDMDL
MODEL 6
REMARK VINA RESULT:      -6.8      3.939      8.228
REMARK  Name = 
REMARK  6 active torsions:
REMARK  status: ('A' for Active; 'I' for Inactive)
REMARK    1  A    between atoms: C_1  and  O_2
REMARK    2  A    between atoms: O_2  and  C_3
REMARK    3  A    between atoms: C_8  and  C_9
REMARK    4  A    between atoms: C_9  and  N_10
REMARK    5  A    between atoms: C_16  and  C_17
REMARK    6  A    between atoms: C_24  and  C_25
REMARK                            x       y       z     vdW  Elec       q    Type
REMARK                         _______ _______ _______ _____ _____    ______ ____
ROOT
ATOM      1  N   UNL     1       0.939   8.639  20.415  0.00  0.00    +0.000 NA
ATOM      2  C   UNL     1       0.130   8.916  21.588  0.00  0.00    +0.000 C 
ATOM      3  C   UNL     1       0.227  10.311  22.158  0.00  0.00    +0.000 C 
ATOM      4  C   UNL     1       0.192  11.445  21.145  0.00  0.00    +0.000 C 
ATOM      5  C   UNL     1       1.142  11.186  19.966  0.00  0.00    +0.000 C 
ATOM      6  C   UNL     1       1.111   9.721  19.449  0.00  0.00    +0.000 C 
ATOM      7  C   UNL     1       0.655  12.192  18.877  0.00  0.00    +0.000 C 
ATOM      8  C   UNL     1      -0.784  12.565  19.295  0.00  0.00    +0.000 C 
ATOM      9  N   UNL     1      -1.070  11.835  20.520  0.00  0.00    +0.000 N 
ATOM     10  C   UNL     1      -2.223  12.072  21.256  0.00  0.00    +0.000 C 
ATOM     11  C   UNL     1      -3.425  12.611  20.511  0.00  0.00    +0.000 C 
ATOM     12  O   UNL     1      -2.321  11.822  22.457  0.00  0.00    +0.000 OA
ENDROOT
BRANCH   7  13
ATOM     13  C   UNL     1       1.520  13.431  18.696  0.00  0.00    +0.000 A 
ATOM     14  C   UNL     1       2.872  13.400  18.198  0.00  0.00    +0.000 A 
ATOM     15  C   UNL     1       3.433  14.652  18.074  0.00  0.00    +0.000 A 
ATOM     16  S   UNL     1       2.349  15.883  18.544  0.00  0.00    +0.000 S 
ATOM     17  C   UNL     1       1.127  14.741  18.907  0.00  0.00    +0.000 A 
ENDBRANCH   7  13
BRANCH   1  18
ATOM     18  C   UNL     1       2.049   7.689  20.553  0.00  0.00    +0.000 C 
BRANCH  18  24
ATOM     19  C   UNL     1       2.278   6.048  18.594  0.00  0.00    +0.000 A 
ATOM     20  C   UNL     1       2.103   4.768  18.043  0.00  0.00    +0.000 A 
ATOM     21  C   UNL     1       1.487   3.755  18.778  0.00  0.00    +0.000 A 
ATOM     22  C   UNL     1       1.019   4.015  20.065  0.00  0.00    +0.000 A 
ATOM     23  C   UNL     1       1.182   5.280  20.623  0.00  0.00    +0.000 A 
ATOM     24  C   UNL     1       1.833   6.318  19.905  0.00  0.00    +0.000 A 
BRANCH  19  26
ATOM     25  C   UNL     1       4.090   7.096  17.395  0.00  0.00    +0.000 C 
ATOM     26  O   UNL     1       2.765   7.121  17.902  0.00  0.00    +0.000 OA
ENDBRANCH  19  26
ENDBRANCH  18  24
ENDBRANCH   1  18
TORSDOF 4
ENDMDL
MODEL 7
REMARK VINA RESULT:      -6.6      7.033      9.586
REMARK  Name = 
REMARK  6 active torsions:
REMARK  status: ('A' for Active; 'I' for Inactive)
REMARK    1  A    between atoms: C_1  and  O_2
REMARK    2  A    between atoms: O_2  and  C_3
REMARK    3  A    between atoms: C_8  and  C_9
REMARK    4  A    between atoms: C_9  and  N_10
REMARK    5  A    between atoms: C_16  and  C_17
REMARK    6  A    between atoms: C_24  and  C_25
REMARK                            x       y       z     vdW  Elec       q    Type
REMARK                         _______ _______ _______ _____ _____    ______ ____
ROOT
ATOM      1  N   UNL     1      -0.611  12.184  19.011  0.00  0.00    +0.000 NA
ATOM      2  C   UNL     1      -0.300  11.041  18.171  0.00  0.00    +0.000 C 
ATOM      3  C   UNL     1      -1.310   9.919  18.162  0.00  0.00    +0.000 C 
ATOM      4  C   UNL     1      -2.769  10.340  18.057  0.00  0.00    +0.000 C 
ATOM      5  C   UNL     1      -3.106  11.474  19.036  0.00  0.00    +0.000 C 
ATOM      6  C   UNL     1      -2.014  12.577  19.116  0.00  0.00    +0.000 C 
ATOM      7  C   UNL     1      -4.455  12.038  18.491  0.00  0.00    +0.000 C 
ATOM      8  C   UNL     1      -4.522  11.560  17.024  0.00  0.00    +0.000 C 
ATOM      9  N   UNL     1      -3.315  10.786  16.778  0.00  0.00    +0.000 N 
ATOM     10  C   UNL     1      -3.139  10.068  15.602  0.00  0.00    +0.000 C 
ATOM     11  C   UNL     1      -3.876  10.554  14.373  0.00  0.00    +0.000 C 
ATOM     12  O   UNL     1      -2.385   9.100  15.509  0.00  0.00    +0.000 OA
ENDROOT
BRANCH   7  13
ATOM     13  C   UNL     1      -5.698  11.628  19.267  0.00  0.00    +0.000 A 
ATOM     14  C   UNL     1      -6.485  10.460  18.962  0.00  0.00    +0.000 A 
ATOM     15  C   UNL     1      -7.532  10.268  19.836  0.00  0.00    +0.000 A 
ATOM     16  S   UNL     1      -7.586  11.479  21.037  0.00  0.00    +0.000 S 
ATOM     17  C   UNL     1      -6.204  12.255  20.393  0.00  0.00    +0.000 A 
ENDBRANCH   7  13
BRANCH   1  18
ATOM     18  C   UNL     1       0.236  12.427  20.185  0.00  0.00    +0.000 C 
BRANCH  18  24
ATOM     19  C   UNL     1      -0.812  11.443  22.310  0.00  0.00    +0.000 A 
ATOM     20  C   UNL     1      -0.885  10.436  23.284  0.00  0.00    +0.000 A 
ATOM     21  C   UNL     1      -0.001   9.357  23.260  0.00  0.00    +0.000 A 
ATOM     22  C   UNL     1       0.981   9.283  22.273  0.00  0.00    +0.000 A 
ATOM     23  C   UNL     1       1.067  10.277  21.302  0.00  0.00    +0.000 A 
ATOM     24  C   UNL     1       0.159  11.369  21.290  0.00  0.00    +0.000 A 
BRANCH  19  26
ATOM     25  C   UNL     1      -2.830  12.591  22.967  0.00  0.00    +0.000 C 
ATOM     26  O   UNL     1      -1.562  12.586  22.329  0.00  0.00    +0.000 OA
ENDBRANCH  19  26
ENDBRANCH  18  24
ENDBRANCH   1  18
TORSDOF 4
ENDMDL
MODEL 8
REMARK VINA RESULT:      -6.5      6.408     10.973
REMARK  Name = 
REMARK  6 active torsions:
REMARK  status: ('A' for Active; 'I' for Inactive)
REMARK    1  A    between atoms: C_1  and  O_2
REMARK    2  A    between atoms: O_2  and  C_3
REMARK    3  A    between atoms: C_8  and  C_9
REMARK    4  A    between atoms: C_9  and  N_10
REMARK    5  A    between atoms: C_16  and  C_17
REMARK    6  A    between atoms: C_24  and  C_25
REMARK                            x       y       z     vdW  Elec       q    Type
REMARK                         _______ _______ _______ _____ _____    ______ ____
ROOT
ATOM      1  N   UNL     1      -1.363  12.946  19.422  0.00  0.00    +0.000 NA
ATOM      2  C   UNL     1      -1.765  12.108  18.306  0.00  0.00    +0.000 C 
ATOM      3  C   UNL     1      -2.947  11.198  18.541  0.00  0.00    +0.000 C 
ATOM      4  C   UNL     1      -4.134  11.825  19.256  0.00  0.00    +0.000 C 
ATOM      5  C   UNL     1      -3.699  12.613  20.500  0.00  0.00    +0.000 C 
ATOM      6  C   UNL     1      -2.421  13.470  20.281  0.00  0.00    +0.000 C 
ATOM      7  C   UNL     1      -4.940  13.501  20.823  0.00  0.00    +0.000 C 
ATOM      8  C   UNL     1      -5.753  13.540  19.511  0.00  0.00    +0.000 C 
ATOM      9  N   UNL     1      -5.029  12.733  18.542  0.00  0.00    +0.000 N 
ATOM     10  C   UNL     1      -5.573  12.420  17.303  0.00  0.00    +0.000 C 
ATOM     11  C   UNL     1      -6.600  13.375  16.733  0.00  0.00    +0.000 C 
ATOM     12  O   UNL     1      -5.227  11.442  16.641  0.00  0.00    +0.000 OA
ENDROOT
BRANCH   7  13
ATOM     13  C   UNL     1      -5.794  13.034  21.992  0.00  0.00    +0.000 A 
ATOM     14  C   UNL     1      -5.404  13.163  23.374  0.00  0.00    +0.000 A 
ATOM     15  C   UNL     1      -6.365  12.715  24.253  0.00  0.00    +0.000 A 
ATOM     16  S   UNL     1      -7.750  12.138  23.440  0.00  0.00    +0.000 S 
ATOM     17  C   UNL     1      -7.067  12.496  21.912  0.00  0.00    +0.000 A 
ENDBRANCH   7  13
BRANCH   1  18
ATOM     18  C   UNL     1      -0.066  12.676  20.054  0.00  0.00    +0.000 C 
BRANCH  18  24
ATOM     19  C   UNL     1       0.791  10.262  20.183  0.00  0.00    +0.000 A 
ATOM     20  C   UNL     1       0.924   9.047  20.873  0.00  0.00    +0.000 A 
ATOM     21  C   UNL     1       0.335   8.870  22.125  0.00  0.00    +0.000 A 
ATOM     22  C   UNL     1      -0.412   9.901  22.694  0.00  0.00    +0.000 A 
ATOM     23  C   UNL     1      -0.555  11.111  22.020  0.00  0.00    +0.000 A 
ATOM     24  C   UNL     1       0.060  11.322  20.758  0.00  0.00    +0.000 A 
BRANCH  19  26
ATOM     25  C   UNL     1       1.477   9.371  18.048  0.00  0.00    +0.000 C 
ATOM     26  O   UNL     1       1.237  10.474  18.909  0.00  0.00    +0.000 OA
ENDBRANCH  19  26
ENDBRANCH  18  24
ENDBRANCH   1  18
TORSDOF 4
ENDMDL
MODEL 9
REMARK VINA RESULT:      -6.5      6.382      9.501
REMARK  Name = 
REMARK  6 active torsions:
REMARK  status: ('A' for Active; 'I' for Inactive)
REMARK    1  A    between atoms: C_1  and  O_2
REMARK    2  A    between atoms: O_2  and  C_3
REMARK    3  A    between atoms: C_8  and  C_9
REMARK    4  A    between atoms: C_9  and  N_10
REMARK    5  A    between atoms: C_16  and  C_17
REMARK    6  A    between atoms: C_24  and  C_25
REMARK                            x       y       z     vdW  Elec       q    Type
REMARK                         _______ _______ _______ _____ _____    ______ ____
ROOT
ATOM      1  N   UNL     1       0.418  15.020  20.572  0.00  0.00    +0.000 NA
ATOM      2  C   UNL     1       0.345  14.398  21.883  0.00  0.00    +0.000 C 
ATOM      3  C   UNL     1      -0.808  13.452  22.115  0.00  0.00    +0.000 C 
ATOM      4  C   UNL     1      -1.099  12.471  20.988  0.00  0.00    +0.000 C 
ATOM      5  C   UNL     1      -1.131  13.169  19.620  0.00  0.00    +0.000 C 
ATOM      6  C   UNL     1       0.000  14.216  19.426  0.00  0.00    +0.000 C 
ATOM      7  C   UNL     1      -1.004  11.990  18.606  0.00  0.00    +0.000 C 
ATOM      8  C   UNL     1      -0.416  10.821  19.426  0.00  0.00    +0.000 C 
ATOM      9  N   UNL     1      -0.239  11.307  20.785  0.00  0.00    +0.000 N 
ATOM     10  C   UNL     1       0.116  10.455  21.822  0.00  0.00    +0.000 C 
ATOM     11  C   UNL     1       0.888   9.204  21.461  0.00  0.00    +0.000 C 
ATOM     12  O   UNL     1      -0.124  10.694  23.005  0.00  0.00    +0.000 OA
ENDROOT
BRANCH   7  13
ATOM     13  C   UNL     1      -2.294  11.585  17.908  0.00  0.00    +0.000 A 
ATOM     14  C   UNL     1      -3.600  11.695  18.508  0.00  0.00    +0.000 A 
ATOM     15  C   UNL     1      -4.619  11.315  17.663  0.00  0.00    +0.000 A 
ATOM     16  S   UNL     1      -4.030  10.827  16.137  0.00  0.00    +0.000 S 
ATOM     17  C   UNL     1      -2.413  11.132  16.605  0.00  0.00    +0.000 A 
ENDBRANCH   7  13
BRANCH   1  18
ATOM     18  C   UNL     1       0.199  16.468  20.484  0.00  0.00    +0.000 C 
BRANCH  18  24
ATOM     19  C   UNL     1       1.748  17.184  18.569  0.00  0.00    +0.000 A 
ATOM     20  C   UNL     1       1.940  17.725  17.288  0.00  0.00    +0.000 A 
ATOM     21  C   UNL     1       0.856  18.182  16.538  0.00  0.00    +0.000 A 
ATOM     22  C   UNL     1      -0.432  18.124  17.069  0.00  0.00    +0.000 A 
ATOM     23  C   UNL     1      -0.636  17.592  18.340  0.00  0.00    +0.000 A 
ATOM     24  C   UNL     1       0.449  17.094  19.109  0.00  0.00    +0.000 A 
BRANCH  19  26
ATOM     25  C   UNL     1       4.076  16.642  18.900  0.00  0.00    +0.000 C 
ATOM     26  O   UNL     1       2.763  16.822  19.409  0.00  0.00    +0.000 OA
ENDBRANCH  19  26
ENDBRANCH  18  24
ENDBRANCH   1  18
TORSDOF 4
ENDMDL
