MODEL 1
REMARK VINA RESULT:      -7.6      0.000      0.000
REMARK  Name = 
REMARK  10 active torsions:
REMARK  status: ('A' for Active; 'I' for Inactive)
REMARK    1  A    between atoms: C_1  and  O_2
REMARK    2  A    between atoms: O_2  and  C_3
REMARK    3  A    between atoms: C_3  and  C_5
REMARK    4  A    between atoms: N_7  and  N_8
REMARK    5  A    between atoms: C_9  and  C_11
REMARK    6  A    between atoms: C_11  and  C_12
REMARK    7  A    between atoms: C_15  and  O_16
REMARK    8  A    between atoms: O_16  and  C_17
REMARK    9  A    between atoms: C_18  and  O_19
REMARK   10  A    between atoms: O_19  and  C_20
REMARK                            x       y       z     vdW  Elec       q    Type
REMARK                         _______ _______ _______ _____ _____    ______ ____
ROOT
ATOM      1  C   UNL     1      -0.355  11.714  20.379  0.00  0.00    +0.000 A 
ATOM      2  C   UNL     1       0.536  10.994  19.680  0.00  0.00    +0.000 A 
ATOM      3  N   UNL     1       0.214  10.295  18.540  0.00  0.00    +0.000 N 
ATOM      4  C   UNL     1      -1.056  10.320  17.957  0.00  0.00    +0.000 A 
ATOM      5  O   UNL     1      -1.315   9.752  16.895  0.00  0.00    +0.000 OA
ATOM      6  C   UNL     1      -2.089  11.116  18.686  0.00  0.00    +0.000 A 
ATOM      7  C   UNL     1      -3.397  11.170  18.184  0.00  0.00    +0.000 A 
ATOM      8  C   UNL     1      -4.376  11.909  18.857  0.00  0.00    +0.000 A 
ATOM      9  C   UNL     1      -4.038  12.612  20.009  0.00  0.00    +0.000 A 
ATOM     10  C   UNL     1      -2.731  12.572  20.496  0.00  0.00    +0.000 A 
ATOM     11  C   UNL     1      -1.738  11.805  19.864  0.00  0.00    +0.000 A 
ENDROOT
BRANCH   3  12
ATOM     12  N   UNL     1       1.221   9.588  17.834  0.00  0.00    +0.000 N 
ATOM     13  C   UNL     1       1.928   8.539  18.409  0.00  0.00    +0.000 C 
ATOM     14  O   UNL     1       1.861   8.181  19.584  0.00  0.00    +0.000 OA
ATOM     15  H   UNL     1       1.036   9.549  16.831  0.00  0.00    +0.000 HD
BRANCH  13  16
ATOM     16  C   UNL     1       2.859   7.838  17.440  0.00  0.00    +0.000 C 
BRANCH  16  17
ATOM     17  C   UNL     1       3.363   6.536  17.999  0.00  0.00    +0.000 A 
ATOM     18  C   UNL     1       2.485   5.468  18.211  0.00  0.00    +0.000 A 
ATOM     19  C   UNL     1       2.955   4.253  18.707  0.00  0.00    +0.000 A 
ATOM     20  C   UNL     1       4.306   4.096  19.032  0.00  0.00    +0.000 A 
ATOM     21  C   UNL     1       5.198   5.168  18.828  0.00  0.00    +0.000 A 
ATOM     22  C   UNL     1       4.720   6.375  18.303  0.00  0.00    +0.000 A 
BRANCH  20  23
ATOM     23  O   UNL     1       4.843   2.946  19.556  0.00  0.00    +0.000 OA
ATOM     24  C   UNL     1       4.051   2.217  20.484  0.00  0.00    +0.000 C 
ENDBRANCH  20  23
BRANCH  21  25
ATOM     25  O   UNL     1       6.509   4.950  19.175  0.00  0.00    +0.000 OA
ATOM     26  C   UNL     1       7.451   5.964  18.852  0.00  0.00    +0.000 C 
ENDBRANCH  21  25
ENDBRANCH  16  17
ENDBRANCH  13  16
ENDBRANCH   3  12
BRANCH   1  27
ATOM     27  C   UNL     1       0.103  12.302  21.678  0.00  0.00    +0.000 C 
ATOM     28  O   UNL     1      -0.350  11.992  22.767  0.00  0.00    +0.000 OA
BRANCH  27  30
ATOM     29  C   UNL     1       0.619  14.509  21.121  0.00  0.00    +0.000 C 
ATOM     30  O   UNL     1       1.091  13.214  21.491  0.00  0.00    +0.000 OA
ENDBRANCH  27  30
ENDBRANCH   1  27
TORSDOF 7
ENDMDL
MODEL 2
REMARK VINA RESULT:      -7.6      2.450      8.953
REMARK  Name = 
REMARK  10 active torsions:
REMARK  status: ('A' for Active; 'I' for Inactive)
REMARK    1  A    between atoms: C_1  and  O_2
REMARK    2  A    between atoms: O_2  and  C_3
REMARK    3  A    between atoms: C_3  and  C_5
REMARK    4  A    between atoms: N_7  and  N_8
REMARK    5  A    between atoms: C_9  and  C_11
REMARK    6  A    between atoms: C_11  and  C_12
REMARK    7  A    between atoms: C_15  and  O_16
REMARK    8  A    between atoms: O_16  and  C_17
REMARK    9  A    between atoms: C_18  and  O_19
REMARK   10  A    between atoms: O_19  and  C_20
REMARK                            x       y       z     vdW  Elec       q    Type
REMARK                         _______ _______ _______ _____ _____    ______ ____
ROOT
ATOM      1  C   UNL     1       4.248   6.270  17.350  0.00  0.00    +0.000 A 
ATOM      2  C   UNL     1       3.622   7.307  17.928  0.00  0.00    +0.000 A 
ATOM      3  N   UNL     1       2.579   7.160  18.812  0.00  0.00    +0.000 N 
ATOM      4  C   UNL     1       2.112   5.918  19.251  0.00  0.00    +0.000 A 
ATOM      5  O   UNL     1       1.227   5.798  20.099  0.00  0.00    +0.000 OA
ATOM      6  C   UNL     1       2.779   4.725  18.648  0.00  0.00    +0.000 A 
ATOM      7  C   UNL     1       2.351   3.440  19.011  0.00  0.00    +0.000 A 
ATOM      8  C   UNL     1       2.964   2.313  18.453  0.00  0.00    +0.000 A 
ATOM      9  C   UNL     1       4.019   2.474  17.560  0.00  0.00    +0.000 A 
ATOM     10  C   UNL     1       4.456   3.753  17.214  0.00  0.00    +0.000 A 
ATOM     11  C   UNL     1       3.831   4.903  17.727  0.00  0.00    +0.000 A 
ENDROOT
BRANCH   3  12
ATOM     12  N   UNL     1       1.993   8.304  19.413  0.00  0.00    +0.000 N 
ATOM     13  C   UNL     1       1.528   9.376  18.662  0.00  0.00    +0.000 C 
ATOM     14  O   UNL     1       1.666   9.521  17.448  0.00  0.00    +0.000 OA
ATOM     15  H   UNL     1       1.505   8.080  20.281  0.00  0.00    +0.000 HD
BRANCH  13  16
ATOM     16  C   UNL     1       0.822  10.431  19.490  0.00  0.00    +0.000 C 
BRANCH  16  17
ATOM     17  C   UNL     1      -0.562  10.708  18.970  0.00  0.00    +0.000 A 
ATOM     18  C   UNL     1      -1.373  11.665  19.589  0.00  0.00    +0.000 A 
ATOM     19  C   UNL     1      -2.647  11.940  19.093  0.00  0.00    +0.000 A 
ATOM     20  C   UNL     1      -3.145  11.239  17.992  0.00  0.00    +0.000 A 
ATOM     21  C   UNL     1      -2.338  10.268  17.365  0.00  0.00    +0.000 A 
ATOM     22  C   UNL     1      -1.050  10.019  17.853  0.00  0.00    +0.000 A 
BRANCH  20  23
ATOM     23  O   UNL     1      -4.399  11.424  17.463  0.00  0.00    +0.000 OA
ATOM     24  C   UNL     1      -5.508  11.011  18.250  0.00  0.00    +0.000 C 
ENDBRANCH  20  23
BRANCH  21  25
ATOM     25  O   UNL     1      -2.890   9.609  16.293  0.00  0.00    +0.000 OA
ATOM     26  C   UNL     1      -2.734  10.199  15.010  0.00  0.00    +0.000 C 
ENDBRANCH  21  25
ENDBRANCH  16  17
ENDBRANCH  13  16
ENDBRANCH   3  12
BRANCH   1  27
ATOM     27  C   UNL     1       5.267   6.582  16.297  0.00  0.00    +0.000 C 
ATOM     28  O   UNL     1       5.126   6.333  15.113  0.00  0.00    +0.000 OA
BRANCH  27  30
ATOM     29  C   UNL     1       7.325   6.275  17.355  0.00  0.00    +0.000 C 
ATOM     30  O   UNL     1       6.361   7.186  16.829  0.00  0.00    +0.000 OA
ENDBRANCH  27  30
ENDBRANCH   1  27
TORSDOF 7
ENDMDL
MODEL 3
REMARK VINA RESULT:      -7.3      1.924      8.714
REMARK  Name = 
REMARK  10 active torsions:
REMARK  status: ('A' for Active; 'I' for Inactive)
REMARK    1  A    between atoms: C_1  and  O_2
REMARK    2  A    between atoms: O_2  and  C_3
REMARK    3  A    between atoms: C_3  and  C_5
REMARK    4  A    between atoms: N_7  and  N_8
REMARK    5  A    between atoms: C_9  and  C_11
REMARK    6  A    between atoms: C_11  and  C_12
REMARK    7  A    between atoms: C_15  and  O_16
REMARK    8  A    between atoms: O_16  and  C_17
REMARK    9  A    between atoms: C_18  and  O_19
REMARK   10  A    between atoms: O_19  and  C_20
REMARK                            x       y       z     vdW  Elec       q    Type
REMARK                         _______ _______ _______ _____ _____    ______ ____
ROOT
ATOM      1  C   UNL     1       3.939   5.462  18.025  0.00  0.00    +0.000 A 
ATOM      2  C   UNL     1       3.633   6.768  17.966  0.00  0.00    +0.000 A 
ATOM      3  N   UNL     1       2.773   7.381  18.846  0.00  0.00    +0.000 N 
ATOM      4  C   UNL     1       2.187   6.725  19.932  0.00  0.00    +0.000 A 
ATOM      5  O   UNL     1       1.478   7.301  20.758  0.00  0.00    +0.000 OA
ATOM      6  C   UNL     1       2.501   5.269  20.055  0.00  0.00    +0.000 A 
ATOM      7  C   UNL     1       1.930   4.528  21.100  0.00  0.00    +0.000 A 
ATOM      8  C   UNL     1       2.212   3.164  21.227  0.00  0.00    +0.000 A 
ATOM      9  C   UNL     1       3.084   2.554  20.331  0.00  0.00    +0.000 A 
ATOM     10  C   UNL     1       3.666   3.298  19.303  0.00  0.00    +0.000 A 
ATOM     11  C   UNL     1       3.367   4.659  19.127  0.00  0.00    +0.000 A 
ENDROOT
BRANCH   3  12
ATOM     12  N   UNL     1       2.528   8.775  18.743  0.00  0.00    +0.000 N 
ATOM     13  C   UNL     1       1.426   9.283  18.066  0.00  0.00    +0.000 C 
ATOM     14  O   UNL     1       0.624   8.631  17.399  0.00  0.00    +0.000 OA
ATOM     15  H   UNL     1       2.873   9.291  19.554  0.00  0.00    +0.000 HD
BRANCH  13  16
ATOM     16  C   UNL     1       1.284  10.787  18.191  0.00  0.00    +0.000 C 
BRANCH  16  17
ATOM     17  C   UNL     1       0.291  11.164  19.256  0.00  0.00    +0.000 A 
ATOM     18  C   UNL     1      -0.893  11.827  18.919  0.00  0.00    +0.000 A 
ATOM     19  C   UNL     1      -1.824  12.156  19.902  0.00  0.00    +0.000 A 
ATOM     20  C   UNL     1      -1.572  11.858  21.245  0.00  0.00    +0.000 A 
ATOM     21  C   UNL     1      -0.378  11.195  21.595  0.00  0.00    +0.000 A 
ATOM     22  C   UNL     1       0.537  10.845  20.596  0.00  0.00    +0.000 A 
BRANCH  20  23
ATOM     23  O   UNL     1      -2.419  12.176  22.277  0.00  0.00    +0.000 OA
ATOM     24  C   UNL     1      -2.770  13.545  22.438  0.00  0.00    +0.000 C 
ENDBRANCH  20  23
BRANCH  21  25
ATOM     25  O   UNL     1      -0.189  10.939  22.932  0.00  0.00    +0.000 OA
ATOM     26  C   UNL     1      -0.137   9.578  23.338  0.00  0.00    +0.000 C 
ENDBRANCH  21  25
ENDBRANCH  16  17
ENDBRANCH  13  16
ENDBRANCH   3  12
BRANCH   1  27
ATOM     27  C   UNL     1       4.773   4.901  16.914  0.00  0.00    +0.000 C 
ATOM     28  O   UNL     1       4.390   4.041  16.139  0.00  0.00    +0.000 OA
BRANCH  27  30
ATOM     29  C   UNL     1       7.060   4.559  16.601  0.00  0.00    +0.000 C 
ATOM     30  O   UNL     1       6.002   5.477  16.875  0.00  0.00    +0.000 OA
ENDBRANCH  27  30
ENDBRANCH   1  27
TORSDOF 7
ENDMDL
MODEL 4
REMARK VINA RESULT:      -7.3      1.216      2.240
REMARK  Name = 
REMARK  10 active torsions:
REMARK  status: ('A' for Active; 'I' for Inactive)
REMARK    1  A    between atoms: C_1  and  O_2
REMARK    2  A    between atoms: O_2  and  C_3
REMARK    3  A    between atoms: C_3  and  C_5
REMARK    4  A    between atoms: N_7  and  N_8
REMARK    5  A    between atoms: C_9  and  C_11
REMARK    6  A    between atoms: C_11  and  C_12
REMARK    7  A    between atoms: C_15  and  O_16
REMARK    8  A    between atoms: O_16  and  C_17
REMARK    9  A    between atoms: C_18  and  O_19
REMARK   10  A    between atoms: O_19  and  C_20
REMARK                            x       y       z     vdW  Elec       q    Type
REMARK                         _______ _______ _______ _____ _____    ______ ____
ROOT
ATOM      1  C   UNL     1      -0.515  11.655  20.470  0.00  0.00    +0.000 A 
ATOM      2  C   UNL     1       0.370  10.945  19.752  0.00  0.00    +0.000 A 
ATOM      3  N   UNL     1       0.055  10.323  18.567  0.00  0.00    +0.000 N 
ATOM      4  C   UNL     1      -1.198  10.425  17.956  0.00  0.00    +0.000 A 
ATOM      5  O   UNL     1      -1.448   9.927  16.857  0.00  0.00    +0.000 OA
ATOM      6  C   UNL     1      -2.223  11.212  18.705  0.00  0.00    +0.000 A 
ATOM      7  C   UNL     1      -3.516  11.339  18.177  0.00  0.00    +0.000 A 
ATOM      8  C   UNL     1      -4.487  12.071  18.868  0.00  0.00    +0.000 A 
ATOM      9  C   UNL     1      -4.156  12.696  20.065  0.00  0.00    +0.000 A 
ATOM     10  C   UNL     1      -2.863  12.584  20.580  0.00  0.00    +0.000 A 
ATOM     11  C   UNL     1      -1.880  11.821  19.929  0.00  0.00    +0.000 A 
ENDROOT
BRANCH   3  12
ATOM     12  N   UNL     1       1.056   9.624  17.845  0.00  0.00    +0.000 N 
ATOM     13  C   UNL     1       1.885   8.688  18.450  0.00  0.00    +0.000 C 
ATOM     14  O   UNL     1       1.938   8.441  19.654  0.00  0.00    +0.000 OA
ATOM     15  H   UNL     1       0.798   9.475  16.868  0.00  0.00    +0.000 HD
BRANCH  13  16
ATOM     16  C   UNL     1       2.790   7.964  17.474  0.00  0.00    +0.000 C 
BRANCH  16  17
ATOM     17  C   UNL     1       3.058   6.549  17.909  0.00  0.00    +0.000 A 
ATOM     18  C   UNL     1       4.357   6.032  17.878  0.00  0.00    +0.000 A 
ATOM     19  C   UNL     1       4.609   4.729  18.304  0.00  0.00    +0.000 A 
ATOM     20  C   UNL     1       3.562   3.909  18.735  0.00  0.00    +0.000 A 
ATOM     21  C   UNL     1       2.248   4.420  18.764  0.00  0.00    +0.000 A 
ATOM     22  C   UNL     1       2.010   5.739  18.361  0.00  0.00    +0.000 A 
BRANCH  20  23
ATOM     23  O   UNL     1       3.719   2.606  19.138  0.00  0.00    +0.000 OA
ATOM     24  C   UNL     1       3.698   1.603  18.131  0.00  0.00    +0.000 C 
ENDBRANCH  20  23
BRANCH  21  25
ATOM     25  O   UNL     1       1.266   3.560  19.191  0.00  0.00    +0.000 OA
ATOM     26  C   UNL     1       0.920   3.592  20.569  0.00  0.00    +0.000 C 
ENDBRANCH  21  25
ENDBRANCH  16  17
ENDBRANCH  13  16
ENDBRANCH   3  12
BRANCH   1  27
ATOM     27  C   UNL     1      -0.070  12.151  21.811  0.00  0.00    +0.000 C 
ATOM     28  O   UNL     1       0.138  13.324  22.072  0.00  0.00    +0.000 OA
BRANCH  27  30
ATOM     29  C   UNL     1      -1.180  10.649  23.211  0.00  0.00    +0.000 C 
ATOM     30  O   UNL     1       0.061  11.133  22.700  0.00  0.00    +0.000 OA
ENDBRANCH  27  30
ENDBRANCH   1  27
TORSDOF 7
ENDMDL
MODEL 5
REMARK VINA RESULT:      -7.3      2.251      3.890
REMARK  Name = 
REMARK  10 active torsions:
REMARK  status: ('A' for Active; 'I' for Inactive)
REMARK    1  A    between atoms: C_1  and  O_2
REMARK    2  A    between atoms: O_2  and  C_3
REMARK    3  A    between atoms: C_3  and  C_5
REMARK    4  A    between atoms: N_7  and  N_8
REMARK    5  A    between atoms: C_9  and  C_11
REMARK    6  A    between atoms: C_11  and  C_12
REMARK    7  A    between atoms: C_15  and  O_16
REMARK    8  A    between atoms: O_16  and  C_17
REMARK    9  A    between atoms: C_18  and  O_19
REMARK   10  A    between atoms: O_19  and  C_20
REMARK                            x       y       z     vdW  Elec       q    Type
REMARK                         _______ _______ _______ _____ _____    ______ ____
ROOT
ATOM      1  C   UNL     1      -2.185  10.766  18.022  0.00  0.00    +0.000 A 
ATOM      2  C   UNL     1      -1.189   9.885  17.838  0.00  0.00    +0.000 A 
ATOM      3  N   UNL     1      -0.125   9.759  18.700  0.00  0.00    +0.000 N 
ATOM      4  C   UNL     1      -0.009  10.485  19.889  0.00  0.00    +0.000 A 
ATOM      5  O   UNL     1       0.909  10.311  20.691  0.00  0.00    +0.000 OA
ATOM      6  C   UNL     1      -1.096  11.475  20.152  0.00  0.00    +0.000 A 
ATOM      7  C   UNL     1      -1.042  12.267  21.309  0.00  0.00    +0.000 A 
ATOM      8  C   UNL     1      -2.050  13.200  21.568  0.00  0.00    +0.000 A 
ATOM      9  C   UNL     1      -3.122  13.318  20.689  0.00  0.00    +0.000 A 
ATOM     10  C   UNL     1      -3.184  12.516  19.548  0.00  0.00    +0.000 A 
ATOM     11  C   UNL     1      -2.164  11.601  19.242  0.00  0.00    +0.000 A 
ENDROOT
BRANCH   3  12
ATOM     12  N   UNL     1       0.870   8.777  18.459  0.00  0.00    +0.000 N 
ATOM     13  C   UNL     1       2.107   9.097  17.913  0.00  0.00    +0.000 C 
ATOM     14  O   UNL     1       2.441  10.199  17.478  0.00  0.00    +0.000 OA
ATOM     15  H   UNL     1       0.826   8.008  19.129  0.00  0.00    +0.000 HD
BRANCH  13  16
ATOM     16  C   UNL     1       3.066   7.925  17.864  0.00  0.00    +0.000 C 
BRANCH  16  17
ATOM     17  C   UNL     1       2.525   6.734  18.608  0.00  0.00    +0.000 A 
ATOM     18  C   UNL     1       2.303   6.801  19.987  0.00  0.00    +0.000 A 
ATOM     19  C   UNL     1       1.779   5.706  20.673  0.00  0.00    +0.000 A 
ATOM     20  C   UNL     1       1.501   4.514  19.998  0.00  0.00    +0.000 A 
ATOM     21  C   UNL     1       1.727   4.435  18.608  0.00  0.00    +0.000 A 
ATOM     22  C   UNL     1       2.227   5.550  17.924  0.00  0.00    +0.000 A 
BRANCH  20  23
ATOM     23  O   UNL     1       1.017   3.381  20.603  0.00  0.00    +0.000 OA
ATOM     24  C   UNL     1       1.875   2.708  21.515  0.00  0.00    +0.000 C 
ENDBRANCH  20  23
BRANCH  21  25
ATOM     25  O   UNL     1       1.440   3.233  18.008  0.00  0.00    +0.000 OA
ATOM     26  C   UNL     1       2.533   2.456  17.540  0.00  0.00    +0.000 C 
ENDBRANCH  21  25
ENDBRANCH  16  17
ENDBRANCH  13  16
ENDBRANCH   3  12
BRANCH   1  27
ATOM     27  C   UNL     1      -3.200  10.894  16.927  0.00  0.00    +0.000 C 
ATOM     28  O   UNL     1      -4.045  11.771  16.877  0.00  0.00    +0.000 OA
BRANCH  27  30
ATOM     29  C   UNL     1      -3.212  10.371  14.652  0.00  0.00    +0.000 C 
ATOM     30  O   UNL     1      -3.052   9.917  15.996  0.00  0.00    +0.000 OA
ENDBRANCH  27  30
ENDBRANCH   1  27
TORSDOF 7
ENDMDL
MODEL 6
REMARK VINA RESULT:      -7.2      2.263      9.212
REMARK  Name = 
REMARK  10 active torsions:
REMARK  status: ('A' for Active; 'I' for Inactive)
REMARK    1  A    between atoms: C_1  and  O_2
REMARK    2  A    between atoms: O_2  and  C_3
REMARK    3  A    between atoms: C_3  and  C_5
REMARK    4  A    between atoms: N_7  and  N_8
REMARK    5  A    between atoms: C_9  and  C_11
REMARK    6  A    between atoms: C_11  and  C_12
REMARK    7  A    between atoms: C_15  and  O_16
REMARK    8  A    between atoms: O_16  and  C_17
REMARK    9  A    between atoms: C_18  and  O_19
REMARK   10  A    between atoms: O_19  and  C_20
REMARK                            x       y       z     vdW  Elec       q    Type
REMARK                         _______ _______ _______ _____ _____    ______ ____
ROOT
ATOM      1  C   UNL     1       4.172   5.661  17.456  0.00  0.00    +0.000 A 
ATOM      2  C   UNL     1       3.651   6.771  18.004  0.00  0.00    +0.000 A 
ATOM      3  N   UNL     1       2.635   6.750  18.930  0.00  0.00    +0.000 N 
ATOM      4  C   UNL     1       2.090   5.571  19.446  0.00  0.00    +0.000 A 
ATOM      5  O   UNL     1       1.233   5.563  20.331  0.00  0.00    +0.000 OA
ATOM      6  C   UNL     1       2.638   4.302  18.881  0.00  0.00    +0.000 A 
ATOM      7  C   UNL     1       2.126   3.073  19.323  0.00  0.00    +0.000 A 
ATOM      8  C   UNL     1       2.627   1.876  18.801  0.00  0.00    +0.000 A 
ATOM      9  C   UNL     1       3.655   1.910  17.865  0.00  0.00    +0.000 A 
ATOM     10  C   UNL     1       4.177   3.133  17.441  0.00  0.00    +0.000 A 
ATOM     11  C   UNL     1       3.664   4.351  17.917  0.00  0.00    +0.000 A 
ENDROOT
BRANCH   3  12
ATOM     12  N   UNL     1       2.165   7.964  19.493  0.00  0.00    +0.000 N 
ATOM     13  C   UNL     1       1.758   9.034  18.705  0.00  0.00    +0.000 C 
ATOM     14  O   UNL     1       1.860   9.111  17.481  0.00  0.00    +0.000 OA
ATOM     15  H   UNL     1       1.693   7.821  20.387  0.00  0.00    +0.000 HD
BRANCH  13  16
ATOM     16  C   UNL     1       1.168  10.180  19.503  0.00  0.00    +0.000 C 
BRANCH  16  17
ATOM     17  C   UNL     1      -0.197  10.561  19.000  0.00  0.00    +0.000 A 
ATOM     18  C   UNL     1      -0.683  10.033  17.799  0.00  0.00    +0.000 A 
ATOM     19  C   UNL     1      -1.958  10.367  17.344  0.00  0.00    +0.000 A 
ATOM     20  C   UNL     1      -2.755  11.263  18.063  0.00  0.00    +0.000 A 
ATOM     21  C   UNL     1      -2.271  11.805  19.271  0.00  0.00    +0.000 A 
ATOM     22  C   UNL     1      -1.001  11.441  19.734  0.00  0.00    +0.000 A 
BRANCH  20  23
ATOM     23  O   UNL     1      -4.005  11.671  17.668  0.00  0.00    +0.000 OA
ATOM     24  C   UNL     1      -4.515  11.135  16.454  0.00  0.00    +0.000 C 
ENDBRANCH  20  23
BRANCH  21  25
ATOM     25  O   UNL     1      -3.101  12.684  19.924  0.00  0.00    +0.000 OA
ATOM     26  C   UNL     1      -2.545  13.444  20.988  0.00  0.00    +0.000 C 
ENDBRANCH  21  25
ENDBRANCH  16  17
ENDBRANCH  13  16
ENDBRANCH   3  12
BRANCH   1  27
ATOM     27  C   UNL     1       5.171   5.841  16.355  0.00  0.00    +0.000 C 
ATOM     28  O   UNL     1       5.051   6.648  15.449  0.00  0.00    +0.000 OA
BRANCH  27  30
ATOM     29  C   UNL     1       6.924   4.736  15.281  0.00  0.00    +0.000 C 
ATOM     30  O   UNL     1       6.227   5.000  16.498  0.00  0.00    +0.000 OA
ENDBRANCH  27  30
ENDBRANCH   1  27
TORSDOF 7
ENDMDL
MODEL 7
REMARK VINA RESULT:      -7.2      1.921      3.710
REMARK  Name = 
REMARK  10 active torsions:
REMARK  status: ('A' for Active; 'I' for Inactive)
REMARK    1  A    between atoms: C_1  and  O_2
REMARK    2  A    between atoms: O_2  and  C_3
REMARK    3  A    between atoms: C_3  and  C_5
REMARK    4  A    between atoms: N_7  and  N_8
REMARK    5  A    between atoms: C_9  and  C_11
REMARK    6  A    between atoms: C_11  and  C_12
REMARK    7  A    between atoms: C_15  and  O_16
REMARK    8  A    between atoms: O_16  and  C_17
REMARK    9  A    between atoms: C_18  and  O_19
REMARK   10  A    between atoms: O_19  and  C_20
REMARK                            x       y       z     vdW  Elec       q    Type
REMARK                         _______ _______ _______ _____ _____    ______ ____
ROOT
ATOM      1  C   UNL     1      -1.877  10.233  18.053  0.00  0.00    +0.000 A 
ATOM      2  C   UNL     1      -0.711   9.687  17.673  0.00  0.00    +0.000 A 
ATOM      3  N   UNL     1       0.514  10.179  18.059  0.00  0.00    +0.000 N 
ATOM      4  C   UNL     1       0.667  11.251  18.942  0.00  0.00    +0.000 A 
ATOM      5  O   UNL     1       1.767  11.636  19.341  0.00  0.00    +0.000 OA
ATOM      6  C   UNL     1      -0.599  11.893  19.409  0.00  0.00    +0.000 A 
ATOM      7  C   UNL     1      -0.534  12.995  20.274  0.00  0.00    +0.000 A 
ATOM      8  C   UNL     1      -1.710  13.608  20.717  0.00  0.00    +0.000 A 
ATOM      9  C   UNL     1      -2.943  13.102  20.320  0.00  0.00    +0.000 A 
ATOM     10  C   UNL     1      -3.006  11.994  19.474  0.00  0.00    +0.000 A 
ATOM     11  C   UNL     1      -1.840  11.384  18.980  0.00  0.00    +0.000 A 
ENDROOT
BRANCH   3  12
ATOM     12  N   UNL     1       1.702   9.523  17.647  0.00  0.00    +0.000 N 
ATOM     13  C   UNL     1       2.280   8.504  18.394  0.00  0.00    +0.000 C 
ATOM     14  O   UNL     1       1.923   8.135  19.512  0.00  0.00    +0.000 OA
ATOM     15  H   UNL     1       1.791   9.483  16.631  0.00  0.00    +0.000 HD
BRANCH  13  16
ATOM     16  C   UNL     1       3.466   7.853  17.709  0.00  0.00    +0.000 C 
BRANCH  16  17
ATOM     17  C   UNL     1       3.330   6.356  17.670  0.00  0.00    +0.000 A 
ATOM     18  C   UNL     1       4.311   5.572  17.055  0.00  0.00    +0.000 A 
ATOM     19  C   UNL     1       4.199   4.182  17.038  0.00  0.00    +0.000 A 
ATOM     20  C   UNL     1       3.086   3.555  17.605  0.00  0.00    +0.000 A 
ATOM     21  C   UNL     1       2.088   4.338  18.222  0.00  0.00    +0.000 A 
ATOM     22  C   UNL     1       2.225   5.730  18.258  0.00  0.00    +0.000 A 
BRANCH  20  23
ATOM     23  O   UNL     1       2.881   2.197  17.602  0.00  0.00    +0.000 OA
ATOM     24  C   UNL     1       3.612   1.423  18.543  0.00  0.00    +0.000 C 
ENDBRANCH  20  23
BRANCH  21  25
ATOM     25  O   UNL     1       1.017   3.659  18.753  0.00  0.00    +0.000 OA
ATOM     26  C   UNL     1       0.828   3.731  20.159  0.00  0.00    +0.000 C 
ENDBRANCH  21  25
ENDBRANCH  16  17
ENDBRANCH  13  16
ENDBRANCH   3  12
BRANCH   1  27
ATOM     27  C   UNL     1      -3.127   9.682  17.437  0.00  0.00    +0.000 C 
ATOM     28  O   UNL     1      -4.063   9.233  18.075  0.00  0.00    +0.000 OA
BRANCH  27  30
ATOM     29  C   UNL     1      -3.210  11.084  15.573  0.00  0.00    +0.000 C 
ATOM     30  O   UNL     1      -3.088   9.756  16.082  0.00  0.00    +0.000 OA
ENDBRANCH  27  30
ENDBRANCH   1  27
TORSDOF 7
ENDMDL
MODEL 8
REMARK VINA RESULT:      -7.2      1.379      3.209
REMARK  Name = 
REMARK  10 active torsions:
REMARK  status: ('A' for Active; 'I' for Inactive)
REMARK    1  A    between atoms: C_1  and  O_2
REMARK    2  A    between atoms: O_2  and  C_3
REMARK    3  A    between atoms: C_3  and  C_5
REMARK    4  A    between atoms: N_7  and  N_8
REMARK    5  A    between atoms: C_9  and  C_11
REMARK    6  A    between atoms: C_11  and  C_12
REMARK    7  A    between atoms: C_15  and  O_16
REMARK    8  A    between atoms: O_16  and  C_17
REMARK    9  A    between atoms: C_18  and  O_19
REMARK   10  A    between atoms: O_19  and  C_20
REMARK                            x       y       z     vdW  Elec       q    Type
REMARK                         _______ _______ _______ _____ _____    ______ ____
ROOT
ATOM      1  C   UNL     1      -2.255  10.979  18.259  0.00  0.00    +0.000 A 
ATOM      2  C   UNL     1      -1.127  10.408  17.809  0.00  0.00    +0.000 A 
ATOM      3  N   UNL     1       0.118  10.688  18.321  0.00  0.00    +0.000 N 
ATOM      4  C   UNL     1       0.327  11.543  19.408  0.00  0.00    +0.000 A 
ATOM      5  O   UNL     1       1.437  11.730  19.907  0.00  0.00    +0.000 OA
ATOM      6  C   UNL     1      -0.896  12.201  19.958  0.00  0.00    +0.000 A 
ATOM      7  C   UNL     1      -0.773  13.097  21.031  0.00  0.00    +0.000 A 
ATOM      8  C   UNL     1      -1.908  13.723  21.555  0.00  0.00    +0.000 A 
ATOM      9  C   UNL     1      -3.161  13.431  21.029  0.00  0.00    +0.000 A 
ATOM     10  C   UNL     1      -3.285  12.525  19.974  0.00  0.00    +0.000 A 
ATOM     11  C   UNL     1      -2.157  11.914  19.400  0.00  0.00    +0.000 A 
ENDROOT
BRANCH   3  12
ATOM     12  N   UNL     1       1.260  10.014  17.819  0.00  0.00    +0.000 N 
ATOM     13  C   UNL     1       1.784   8.887  18.440  0.00  0.00    +0.000 C 
ATOM     14  O   UNL     1       1.419   8.420  19.518  0.00  0.00    +0.000 OA
ATOM     15  H   UNL     1       1.335  10.080  16.803  0.00  0.00    +0.000 HD
BRANCH  13  16
ATOM     16  C   UNL     1       2.920   8.247  17.667  0.00  0.00    +0.000 C 
BRANCH  16  17
ATOM     17  C   UNL     1       3.101   6.801  18.042  0.00  0.00    +0.000 A 
ATOM     18  C   UNL     1       2.035   5.902  17.932  0.00  0.00    +0.000 A 
ATOM     19  C   UNL     1       2.208   4.557  18.256  0.00  0.00    +0.000 A 
ATOM     20  C   UNL     1       3.440   4.095  18.729  0.00  0.00    +0.000 A 
ATOM     21  C   UNL     1       4.518   4.995  18.849  0.00  0.00    +0.000 A 
ATOM     22  C   UNL     1       4.342   6.338  18.494  0.00  0.00    +0.000 A 
BRANCH  20  23
ATOM     23  O   UNL     1       3.684   2.797  19.102  0.00  0.00    +0.000 OA
ATOM     24  C   UNL     1       3.469   1.784  18.127  0.00  0.00    +0.000 C 
ENDBRANCH  20  23
BRANCH  21  25
ATOM     25  O   UNL     1       5.698   4.478  19.327  0.00  0.00    +0.000 OA
ATOM     26  C   UNL     1       6.828   5.340  19.355  0.00  0.00    +0.000 C 
ENDBRANCH  21  25
ENDBRANCH  16  17
ENDBRANCH  13  16
ENDBRANCH   3  12
BRANCH   1  27
ATOM     27  C   UNL     1      -3.519  10.689  17.509  0.00  0.00    +0.000 C 
ATOM     28  O   UNL     1      -4.448  10.041  17.959  0.00  0.00    +0.000 OA
BRANCH  27  30
ATOM     29  C   UNL     1      -3.775  10.321  15.218  0.00  0.00    +0.000 C 
ATOM     30  O   UNL     1      -3.501  11.246  16.271  0.00  0.00    +0.000 OA
ENDBRANCH  27  30
ENDBRANCH   1  27
TORSDOF 7
ENDMDL
MODEL 9
REMARK VINA RESULT:      -7.2      1.857      8.999
REMARK  Name = 
REMARK  10 active torsions:
REMARK  status: ('A' for Active; 'I' for Inactive)
REMARK    1  A    between atoms: C_1  and  O_2
REMARK    2  A    between atoms: O_2  and  C_3
REMARK    3  A    between atoms: C_3  and  C_5
REMARK    4  A    between atoms: N_7  and  N_8
REMARK    5  A    between atoms: C_9  and  C_11
REMARK    6  A    between atoms: C_11  and  C_12
REMARK    7  A    between atoms: C_15  and  O_16
REMARK    8  A    between atoms: O_16  and  C_17
REMARK    9  A    between atoms: C_18  and  O_19
REMARK   10  A    between atoms: O_19  and  C_20
REMARK                            x       y       z     vdW  Elec       q    Type
REMARK                         _______ _______ _______ _____ _____    ______ ____
ROOT
ATOM      1  C   UNL     1       4.996   5.093  18.723  0.00  0.00    +0.000 A 
ATOM      2  C   UNL     1       4.512   6.304  18.402  0.00  0.00    +0.000 A 
ATOM      3  N   UNL     1       3.221   6.511  17.976  0.00  0.00    +0.000 N 
ATOM      4  C   UNL     1       2.264   5.495  17.901  0.00  0.00    +0.000 A 
ATOM      5  O   UNL     1       1.091   5.704  17.590  0.00  0.00    +0.000 OA
ATOM      6  C   UNL     1       2.743   4.125  18.257  0.00  0.00    +0.000 A 
ATOM      7  C   UNL     1       1.855   3.043  18.180  0.00  0.00    +0.000 A 
ATOM      8  C   UNL     1       2.290   1.755  18.507  0.00  0.00    +0.000 A 
ATOM      9  C   UNL     1       3.598   1.557  18.938  0.00  0.00    +0.000 A 
ATOM     10  C   UNL     1       4.475   2.639  19.032  0.00  0.00    +0.000 A 
ATOM     11  C   UNL     1       4.078   3.936  18.669  0.00  0.00    +0.000 A 
ENDROOT
BRANCH   3  12
ATOM     12  N   UNL     1       2.771   7.826  17.693  0.00  0.00    +0.000 N 
ATOM     13  C   UNL     1       2.107   8.599  18.638  0.00  0.00    +0.000 C 
ATOM     14  O   UNL     1       1.735   8.221  19.748  0.00  0.00    +0.000 OA
ATOM     15  H   UNL     1       3.368   8.304  17.017  0.00  0.00    +0.000 HD
BRANCH  13  16
ATOM     16  C   UNL     1       1.833  10.015  18.173  0.00  0.00    +0.000 C 
BRANCH  16  17
ATOM     17  C   UNL     1       0.371  10.355  18.263  0.00  0.00    +0.000 A 
ATOM     18  C   UNL     1      -0.563   9.686  17.466  0.00  0.00    +0.000 A 
ATOM     19  C   UNL     1      -1.921   9.984  17.566  0.00  0.00    +0.000 A 
ATOM     20  C   UNL     1      -2.366  10.980  18.439  0.00  0.00    +0.000 A 
ATOM     21  C   UNL     1      -1.431  11.665  19.243  0.00  0.00    +0.000 A 
ATOM     22  C   UNL     1      -0.073  11.339  19.155  0.00  0.00    +0.000 A 
BRANCH  20  23
ATOM     23  O   UNL     1      -3.679  11.358  18.574  0.00  0.00    +0.000 OA
ATOM     24  C   UNL     1      -4.472  11.400  17.395  0.00  0.00    +0.000 C 
ENDBRANCH  20  23
BRANCH  21  25
ATOM     25  O   UNL     1      -1.933  12.638  20.074  0.00  0.00    +0.000 OA
ATOM     26  C   UNL     1      -1.503  12.628  21.428  0.00  0.00    +0.000 C 
ENDBRANCH  21  25
ENDBRANCH  16  17
ENDBRANCH  13  16
ENDBRANCH   3  12
BRANCH   1  27
ATOM     27  C   UNL     1       6.459   4.998  19.029  0.00  0.00    +0.000 C 
ATOM     28  O   UNL     1       6.990   5.509  20.000  0.00  0.00    +0.000 OA
BRANCH  27  30
ATOM     29  C   UNL     1       7.289   4.938  16.848  0.00  0.00    +0.000 C 
ATOM     30  O   UNL     1       7.116   4.264  18.094  0.00  0.00    +0.000 OA
ENDBRANCH  27  30
ENDBRANCH   1  27
TORSDOF 7
ENDMDL
