MODEL 1
REMARK VINA RESULT:      -7.3      0.000      0.000
REMARK  Name = 
REMARK  8 active torsions:
REMARK  status: ('A' for Active; 'I' for Inactive)
REMARK    1  A    between atoms: C_1  and  C_2
REMARK    2  A    between atoms: C_2  and  C_3
REMARK    3  A    between atoms: N_5  and  C_6
REMARK    4  A    between atoms: C_6  and  C_7
REMARK    5  A    between atoms: C_11  and  C_12
REMARK    6  A    between atoms: C_12  and  C_13
REMARK    7  A    between atoms: C_12  and  C_14
REMARK    8  A    between atoms: C_12  and  C_15
REMARK                            x       y       z     vdW  Elec       q    Type
REMARK                         _______ _______ _______ _____ _____    ______ ____
ROOT
ATOM      1  C   UNL     1       1.532   8.283  20.231  0.00  0.00    +0.000 A 
ATOM      2  N   UNL     1       1.022   9.396  19.737  0.00  0.00    +0.000 NA
ATOM      3  C   UNL     1       0.316   9.927  20.788  0.00  0.00    +0.000 A 
ATOM      4  C   UNL     1      -0.460  11.091  20.890  0.00  0.00    +0.000 A 
ATOM      5  C   UNL     1      -1.076  11.425  22.120  0.00  0.00    +0.000 A 
ATOM      6  C   UNL     1      -0.914  10.532  23.207  0.00  0.00    +0.000 A 
ATOM      7  C   UNL     1      -0.144   9.359  23.125  0.00  0.00    +0.000 A 
ATOM      8  C   UNL     1       0.445   9.110  21.897  0.00  0.00    +0.000 A 
ATOM      9  O   UNL     1       1.234   8.052  21.551  0.00  0.00    +0.000 OA
ENDROOT
BRANCH   5  10
ATOM     10  C   UNL     1      -1.936  12.701  22.257  0.00  0.00    +0.000 C 
ATOM     11  C   UNL     1      -1.146  13.745  23.070  0.00  0.00    +0.000 C 
ATOM     12  C   UNL     1      -2.300  13.316  20.885  0.00  0.00    +0.000 C 
ATOM     13  C   UNL     1      -3.279  12.437  22.979  0.00  0.00    +0.000 C 
ENDBRANCH   5  10
BRANCH   1  14
ATOM     14  C   UNL     1       2.415   7.286  19.568  0.00  0.00    +0.000 C 
BRANCH  14  17
ATOM     15  C   UNL     1       2.268   4.835  19.379  0.00  0.00    +0.000 C 
ATOM     16  O   UNL     1       2.456   4.910  18.162  0.00  0.00    +0.000 OA
ATOM     17  N   UNL     1       2.215   5.974  20.157  0.00  0.00    +0.000 N 
ATOM     18  H   UNL     1       2.022   5.915  21.148  0.00  0.00    +0.000 HD
BRANCH  15  20
ATOM     19  C   UNL     1       0.926   2.659  19.535  0.00  0.00    +0.000 C 
ATOM     20  C   UNL     1       2.044   3.502  20.150  0.00  0.00    +0.000 C 
ATOM     21  C   UNL     1       3.315   2.665  20.418  0.00  0.00    +0.000 C 
ATOM     22  O   UNL     1       2.948   2.498  21.813  0.00  0.00    +0.000 OA
ATOM     23  C   UNL     1       1.995   3.580  21.691  0.00  0.00    +0.000 C 
ENDBRANCH  15  20
ENDBRANCH  14  17
ENDBRANCH   1  14
TORSDOF 4
ENDMDL
MODEL 2
REMARK VINA RESULT:      -7.1      0.795      1.471
REMARK  Name = 
REMARK  8 active torsions:
REMARK  status: ('A' for Active; 'I' for Inactive)
REMARK    1  A    between atoms: C_1  and  C_2
REMARK    2  A    between atoms: C_2  and  C_3
REMARK    3  A    between atoms: N_5  and  C_6
REMARK    4  A    between atoms: C_6  and  C_7
REMARK    5  A    between atoms: C_11  and  C_12
REMARK    6  A    between atoms: C_12  and  C_13
REMARK    7  A    between atoms: C_12  and  C_14
REMARK    8  A    between atoms: C_12  and  C_15
REMARK                            x       y       z     vdW  Elec       q    Type
REMARK                         _______ _______ _______ _____ _____    ______ ____
ROOT
ATOM      1  C   UNL     1       1.531   8.313  19.956  0.00  0.00    +0.000 A 
ATOM      2  N   UNL     1       0.989   9.452  19.562  0.00  0.00    +0.000 NA
ATOM      3  C   UNL     1       0.319   9.896  20.676  0.00  0.00    +0.000 A 
ATOM      4  C   UNL     1      -0.465  11.039  20.891  0.00  0.00    +0.000 A 
ATOM      5  C   UNL     1      -1.035  11.276  22.165  0.00  0.00    +0.000 A 
ATOM      6  C   UNL     1      -0.819  10.311  23.178  0.00  0.00    +0.000 A 
ATOM      7  C   UNL     1      -0.040   9.157  22.982  0.00  0.00    +0.000 A 
ATOM      8  C   UNL     1       0.502   9.005  21.718  0.00  0.00    +0.000 A 
ATOM      9  O   UNL     1       1.289   7.985  21.267  0.00  0.00    +0.000 OA
ENDROOT
BRANCH   5  10
ATOM     10  C   UNL     1      -1.904  12.526  22.426  0.00  0.00    +0.000 C 
ATOM     11  C   UNL     1      -2.454  13.034  21.079  0.00  0.00    +0.000 C 
ATOM     12  C   UNL     1      -3.096  12.231  23.366  0.00  0.00    +0.000 C 
ATOM     13  C   UNL     1      -1.107  13.675  23.090  0.00  0.00    +0.000 C 
ENDBRANCH   5  10
BRANCH   1  14
ATOM     14  C   UNL     1       2.398   7.379  19.189  0.00  0.00    +0.000 C 
BRANCH  14  17
ATOM     15  C   UNL     1       3.138   5.104  19.774  0.00  0.00    +0.000 C 
ATOM     16  O   UNL     1       4.314   5.433  19.602  0.00  0.00    +0.000 OA
ATOM     17  N   UNL     1       2.114   6.007  19.572  0.00  0.00    +0.000 N 
ATOM     18  H   UNL     1       1.148   5.726  19.674  0.00  0.00    +0.000 HD
BRANCH  15  20
ATOM     19  C   UNL     1       3.683   2.601  19.768  0.00  0.00    +0.000 C 
ATOM     20  C   UNL     1       2.680   3.676  20.189  0.00  0.00    +0.000 C 
ATOM     21  C   UNL     1       2.253   3.516  21.666  0.00  0.00    +0.000 C 
ATOM     22  O   UNL     1       1.039   2.823  21.271  0.00  0.00    +0.000 OA
ATOM     23  C   UNL     1       1.208   3.301  19.915  0.00  0.00    +0.000 C 
ENDBRANCH  15  20
ENDBRANCH  14  17
ENDBRANCH   1  14
TORSDOF 4
ENDMDL
MODEL 3
REMARK VINA RESULT:      -7.1      3.269      8.283
REMARK  Name = 
REMARK  8 active torsions:
REMARK  status: ('A' for Active; 'I' for Inactive)
REMARK    1  A    between atoms: C_1  and  C_2
REMARK    2  A    between atoms: C_2  and  C_3
REMARK    3  A    between atoms: N_5  and  C_6
REMARK    4  A    between atoms: C_6  and  C_7
REMARK    5  A    between atoms: C_11  and  C_12
REMARK    6  A    between atoms: C_12  and  C_13
REMARK    7  A    between atoms: C_12  and  C_14
REMARK    8  A    between atoms: C_12  and  C_15
REMARK                            x       y       z     vdW  Elec       q    Type
REMARK                         _______ _______ _______ _____ _____    ______ ____
ROOT
ATOM      1  C   UNL     1       1.782   9.054  18.619  0.00  0.00    +0.000 A 
ATOM      2  N   UNL     1       2.328   8.271  17.706  0.00  0.00    +0.000 NA
ATOM      3  C   UNL     1       2.463   7.065  18.349  0.00  0.00    +0.000 A 
ATOM      4  C   UNL     1       2.991   5.839  17.918  0.00  0.00    +0.000 A 
ATOM      5  C   UNL     1       2.990   4.723  18.790  0.00  0.00    +0.000 A 
ATOM      6  C   UNL     1       2.484   4.905  20.099  0.00  0.00    +0.000 A 
ATOM      7  C   UNL     1       1.954   6.126  20.552  0.00  0.00    +0.000 A 
ATOM      8  C   UNL     1       1.968   7.164  19.637  0.00  0.00    +0.000 A 
ATOM      9  O   UNL     1       1.519   8.440  19.818  0.00  0.00    +0.000 OA
ENDROOT
BRANCH   5  10
ATOM     10  C   UNL     1       3.568   3.363  18.339  0.00  0.00    +0.000 C 
ATOM     11  C   UNL     1       4.499   3.598  17.134  0.00  0.00    +0.000 C 
ATOM     12  C   UNL     1       4.376   2.666  19.459  0.00  0.00    +0.000 C 
ATOM     13  C   UNL     1       2.467   2.362  17.916  0.00  0.00    +0.000 C 
ENDBRANCH   5  10
BRANCH   1  14
ATOM     14  C   UNL     1       1.376  10.480  18.502  0.00  0.00    +0.000 C 
BRANCH  14  17
ATOM     15  C   UNL     1      -1.043  10.826  18.813  0.00  0.00    +0.000 C 
ATOM     16  O   UNL     1      -0.877  10.950  20.029  0.00  0.00    +0.000 OA
ATOM     17  N   UNL     1       0.025  10.572  17.976  0.00  0.00    +0.000 N 
ATOM     18  H   UNL     1      -0.116  10.431  16.984  0.00  0.00    +0.000 HD
BRANCH  15  20
ATOM     19  C   UNL     1      -3.376  11.881  18.801  0.00  0.00    +0.000 C 
ATOM     20  C   UNL     1      -2.426  10.906  18.105  0.00  0.00    +0.000 C 
ATOM     21  C   UNL     1      -2.381  11.137  16.578  0.00  0.00    +0.000 C 
ATOM     22  O   UNL     1      -3.329  10.059  16.356  0.00  0.00    +0.000 OA
ATOM     23  C   UNL     1      -3.086   9.572  17.697  0.00  0.00    +0.000 C 
ENDBRANCH  15  20
ENDBRANCH  14  17
ENDBRANCH   1  14
TORSDOF 4
ENDMDL
MODEL 4
REMARK VINA RESULT:      -7.1      3.091      4.192
REMARK  Name = 
REMARK  8 active torsions:
REMARK  status: ('A' for Active; 'I' for Inactive)
REMARK    1  A    between atoms: C_1  and  C_2
REMARK    2  A    between atoms: C_2  and  C_3
REMARK    3  A    between atoms: N_5  and  C_6
REMARK    4  A    between atoms: C_6  and  C_7
REMARK    5  A    between atoms: C_11  and  C_12
REMARK    6  A    between atoms: C_12  and  C_13
REMARK    7  A    between atoms: C_12  and  C_14
REMARK    8  A    between atoms: C_12  and  C_15
REMARK                            x       y       z     vdW  Elec       q    Type
REMARK                         _______ _______ _______ _____ _____    ______ ____
ROOT
ATOM      1  C   UNL     1       2.455   6.915  19.304  0.00  0.00    +0.000 A 
ATOM      2  N   UNL     1       1.844   7.273  20.419  0.00  0.00    +0.000 NA
ATOM      3  C   UNL     1       1.373   8.533  20.143  0.00  0.00    +0.000 A 
ATOM      4  C   UNL     1       0.655   9.447  20.930  0.00  0.00    +0.000 A 
ATOM      5  C   UNL     1       0.265  10.694  20.385  0.00  0.00    +0.000 A 
ATOM      6  C   UNL     1       0.658  10.991  19.058  0.00  0.00    +0.000 A 
ATOM      7  C   UNL     1       1.380  10.091  18.255  0.00  0.00    +0.000 A 
ATOM      8  C   UNL     1       1.706   8.884  18.848  0.00  0.00    +0.000 A 
ATOM      9  O   UNL     1       2.397   7.844  18.295  0.00  0.00    +0.000 OA
ENDROOT
BRANCH   5  10
ATOM     10  C   UNL     1      -0.524  11.718  21.232  0.00  0.00    +0.000 C 
ATOM     11  C   UNL     1       0.351  12.970  21.434  0.00  0.00    +0.000 C 
ATOM     12  C   UNL     1      -1.849  12.145  20.557  0.00  0.00    +0.000 C 
ATOM     13  C   UNL     1      -0.910  11.164  22.624  0.00  0.00    +0.000 C 
ENDBRANCH   5  10
BRANCH   1  14
ATOM     14  C   UNL     1       3.145   5.636  18.987  0.00  0.00    +0.000 C 
BRANCH  14  17
ATOM     15  C   UNL     1       5.541   5.105  18.786  0.00  0.00    +0.000 C 
ATOM     16  O   UNL     1       5.408   4.167  19.577  0.00  0.00    +0.000 OA
ATOM     17  N   UNL     1       4.467   5.903  18.449  0.00  0.00    +0.000 N 
ATOM     18  H   UNL     1       4.584   6.697  17.833  0.00  0.00    +0.000 HD
BRANCH  15  20
ATOM     19  C   UNL     1       8.016   5.655  19.150  0.00  0.00    +0.000 C 
ATOM     20  C   UNL     1       6.891   5.509  18.125  0.00  0.00    +0.000 C 
ATOM     21  C   UNL     1       7.323   4.651  16.915  0.00  0.00    +0.000 C 
ATOM     22  O   UNL     1       7.608   5.842  16.134  0.00  0.00    +0.000 OA
ATOM     23  C   UNL     1       6.850   6.638  17.075  0.00  0.00    +0.000 C 
ENDBRANCH  15  20
ENDBRANCH  14  17
ENDBRANCH   1  14
TORSDOF 4
ENDMDL
MODEL 5
REMARK VINA RESULT:      -7.1      3.802      8.585
REMARK  Name = 
REMARK  8 active torsions:
REMARK  status: ('A' for Active; 'I' for Inactive)
REMARK    1  A    between atoms: C_1  and  C_2
REMARK    2  A    between atoms: C_2  and  C_3
REMARK    3  A    between atoms: N_5  and  C_6
REMARK    4  A    between atoms: C_6  and  C_7
REMARK    5  A    between atoms: C_11  and  C_12
REMARK    6  A    between atoms: C_12  and  C_13
REMARK    7  A    between atoms: C_12  and  C_14
REMARK    8  A    between atoms: C_12  and  C_15
REMARK                            x       y       z     vdW  Elec       q    Type
REMARK                         _______ _______ _______ _____ _____    ______ ____
ROOT
ATOM      1  C   UNL     1       1.408   9.575  18.505  0.00  0.00    +0.000 A 
ATOM      2  N   UNL     1       2.212   9.254  17.507  0.00  0.00    +0.000 NA
ATOM      3  C   UNL     1       2.758   8.058  17.901  0.00  0.00    +0.000 A 
ATOM      4  C   UNL     1       3.696   7.219  17.280  0.00  0.00    +0.000 A 
ATOM      5  C   UNL     1       4.080   6.006  17.902  0.00  0.00    +0.000 A 
ATOM      6  C   UNL     1       3.521   5.704  19.167  0.00  0.00    +0.000 A 
ATOM      7  C   UNL     1       2.583   6.532  19.807  0.00  0.00    +0.000 A 
ATOM      8  C   UNL     1       2.240   7.688  19.129  0.00  0.00    +0.000 A 
ATOM      9  O   UNL     1       1.362   8.656  19.523  0.00  0.00    +0.000 OA
ENDROOT
BRANCH   5  10
ATOM     10  C   UNL     1       5.112   5.066  17.240  0.00  0.00    +0.000 C 
ATOM     11  C   UNL     1       5.527   5.667  15.883  0.00  0.00    +0.000 C 
ATOM     12  C   UNL     1       6.380   4.880  18.106  0.00  0.00    +0.000 C 
ATOM     13  C   UNL     1       4.549   3.647  16.992  0.00  0.00    +0.000 C 
ENDBRANCH   5  10
BRANCH   1  14
ATOM     14  C   UNL     1       0.521  10.762  18.644  0.00  0.00    +0.000 C 
BRANCH  14  17
ATOM     15  C   UNL     1      -1.778  11.422  18.059  0.00  0.00    +0.000 C 
ATOM     16  O   UNL     1      -1.694  12.403  18.801  0.00  0.00    +0.000 OA
ATOM     17  N   UNL     1      -0.725  10.538  17.933  0.00  0.00    +0.000 N 
ATOM     18  H   UNL     1      -0.809   9.712  17.355  0.00  0.00    +0.000 HD
BRANCH  15  20
ATOM     19  C   UNL     1      -4.301  11.748  17.759  0.00  0.00    +0.000 C 
ATOM     20  C   UNL     1      -3.044  11.055  17.231  0.00  0.00    +0.000 C 
ATOM     21  C   UNL     1      -2.906  11.206  15.699  0.00  0.00    +0.000 C 
ATOM     22  O   UNL     1      -3.477   9.888  15.487  0.00  0.00    +0.000 OA
ATOM     23  C   UNL     1      -3.250   9.567  16.880  0.00  0.00    +0.000 C 
ENDBRANCH  15  20
ENDBRANCH  14  17
ENDBRANCH   1  14
TORSDOF 4
ENDMDL
MODEL 6
REMARK VINA RESULT:      -7.0      3.322      4.487
REMARK  Name = 
REMARK  8 active torsions:
REMARK  status: ('A' for Active; 'I' for Inactive)
REMARK    1  A    between atoms: C_1  and  C_2
REMARK    2  A    between atoms: C_2  and  C_3
REMARK    3  A    between atoms: N_5  and  C_6
REMARK    4  A    between atoms: C_6  and  C_7
REMARK    5  A    between atoms: C_11  and  C_12
REMARK    6  A    between atoms: C_12  and  C_13
REMARK    7  A    between atoms: C_12  and  C_14
REMARK    8  A    between atoms: C_12  and  C_15
REMARK                            x       y       z     vdW  Elec       q    Type
REMARK                         _______ _______ _______ _____ _____    ______ ____
ROOT
ATOM      1  C   UNL     1       2.520   6.743  18.788  0.00  0.00    +0.000 A 
ATOM      2  N   UNL     1       2.361   7.773  17.976  0.00  0.00    +0.000 NA
ATOM      3  C   UNL     1       1.790   8.733  18.775  0.00  0.00    +0.000 A 
ATOM      4  C   UNL     1       1.367  10.041  18.495  0.00  0.00    +0.000 A 
ATOM      5  C   UNL     1       0.822  10.844  19.525  0.00  0.00    +0.000 A 
ATOM      6  C   UNL     1       0.685  10.269  20.812  0.00  0.00    +0.000 A 
ATOM      7  C   UNL     1       1.099   8.960  21.113  0.00  0.00    +0.000 A 
ATOM      8  C   UNL     1       1.643   8.244  20.061  0.00  0.00    +0.000 A 
ATOM      9  O   UNL     1       2.118   6.965  20.081  0.00  0.00    +0.000 OA
ENDROOT
BRANCH   5  10
ATOM     10  C   UNL     1       0.347  12.286  19.241  0.00  0.00    +0.000 C 
ATOM     11  C   UNL     1      -0.975  12.224  18.451  0.00  0.00    +0.000 C 
ATOM     12  C   UNL     1       0.111  13.096  20.537  0.00  0.00    +0.000 C 
ATOM     13  C   UNL     1       1.372  13.095  18.410  0.00  0.00    +0.000 C 
ENDBRANCH   5  10
BRANCH   1  14
ATOM     14  C   UNL     1       3.114   5.410  18.498  0.00  0.00    +0.000 C 
BRANCH  14  17
ATOM     15  C   UNL     1       5.574   5.537  18.481  0.00  0.00    +0.000 C 
ATOM     16  O   UNL     1       5.597   5.403  19.707  0.00  0.00    +0.000 OA
ATOM     17  N   UNL     1       4.375   5.569  17.796  0.00  0.00    +0.000 N 
ATOM     18  H   UNL     1       4.354   5.719  16.796  0.00  0.00    +0.000 HD
BRANCH  15  20
ATOM     19  C   UNL     1       7.613   6.987  17.934  0.00  0.00    +0.000 C 
ATOM     20  C   UNL     1       6.840   5.711  17.594  0.00  0.00    +0.000 C 
ATOM     21  C   UNL     1       7.771   4.481  17.511  0.00  0.00    +0.000 C 
ATOM     22  O   UNL     1       7.834   4.588  16.063  0.00  0.00    +0.000 OA
ATOM     23  C   UNL     1       6.680   5.462  16.080  0.00  0.00    +0.000 C 
ENDBRANCH  15  20
ENDBRANCH  14  17
ENDBRANCH   1  14
TORSDOF 4
ENDMDL
MODEL 7
REMARK VINA RESULT:      -7.0      3.108      4.077
REMARK  Name = 
REMARK  8 active torsions:
REMARK  status: ('A' for Active; 'I' for Inactive)
REMARK    1  A    between atoms: C_1  and  C_2
REMARK    2  A    between atoms: C_2  and  C_3
REMARK    3  A    between atoms: N_5  and  C_6
REMARK    4  A    between atoms: C_6  and  C_7
REMARK    5  A    between atoms: C_11  and  C_12
REMARK    6  A    between atoms: C_12  and  C_13
REMARK    7  A    between atoms: C_12  and  C_14
REMARK    8  A    between atoms: C_12  and  C_15
REMARK                            x       y       z     vdW  Elec       q    Type
REMARK                         _______ _______ _______ _____ _____    ______ ____
ROOT
ATOM      1  C   UNL     1       2.434   6.884  19.462  0.00  0.00    +0.000 A 
ATOM      2  N   UNL     1       2.246   7.861  18.593  0.00  0.00    +0.000 NA
ATOM      3  C   UNL     1       1.474   8.765  19.281  0.00  0.00    +0.000 A 
ATOM      4  C   UNL     1       0.930  10.000  18.899  0.00  0.00    +0.000 A 
ATOM      5  C   UNL     1       0.175  10.758  19.826  0.00  0.00    +0.000 A 
ATOM      6  C   UNL     1      -0.039  10.209  21.113  0.00  0.00    +0.000 A 
ATOM      7  C   UNL     1       0.493   8.972  21.515  0.00  0.00    +0.000 A 
ATOM      8  C   UNL     1       1.239   8.299  20.562  0.00  0.00    +0.000 A 
ATOM      9  O   UNL     1       1.861   7.091  20.692  0.00  0.00    +0.000 OA
ENDROOT
BRANCH   5  10
ATOM     10  C   UNL     1      -0.435  12.120  19.428  0.00  0.00    +0.000 C 
ATOM     11  C   UNL     1       0.710  13.090  19.076  0.00  0.00    +0.000 C 
ATOM     12  C   UNL     1      -1.381  12.009  18.209  0.00  0.00    +0.000 C 
ATOM     13  C   UNL     1      -1.273  12.750  20.566  0.00  0.00    +0.000 C 
ENDBRANCH   5  10
BRANCH   1  14
ATOM     14  C   UNL     1       3.216   5.629  19.298  0.00  0.00    +0.000 C 
BRANCH  14  17
ATOM     15  C   UNL     1       5.560   5.038  18.833  0.00  0.00    +0.000 C 
ATOM     16  O   UNL     1       5.436   3.997  19.484  0.00  0.00    +0.000 OA
ATOM     17  N   UNL     1       4.507   5.920  18.703  0.00  0.00    +0.000 N 
ATOM     18  H   UNL     1       4.621   6.792  18.203  0.00  0.00    +0.000 HD
BRANCH  15  20
ATOM     19  C   UNL     1       8.023   5.675  19.129  0.00  0.00    +0.000 C 
ATOM     20  C   UNL     1       6.878   5.481  18.134  0.00  0.00    +0.000 C 
ATOM     21  C   UNL     1       7.309   4.627  16.921  0.00  0.00    +0.000 C 
ATOM     22  O   UNL     1       7.533   5.820  16.122  0.00  0.00    +0.000 OA
ATOM     23  C   UNL     1       6.772   6.599  17.076  0.00  0.00    +0.000 C 
ENDBRANCH  15  20
ENDBRANCH  14  17
ENDBRANCH   1  14
TORSDOF 4
ENDMDL
MODEL 8
REMARK VINA RESULT:      -7.0      3.012      4.453
REMARK  Name = 
REMARK  8 active torsions:
REMARK  status: ('A' for Active; 'I' for Inactive)
REMARK    1  A    between atoms: C_1  and  C_2
REMARK    2  A    between atoms: C_2  and  C_3
REMARK    3  A    between atoms: N_5  and  C_6
REMARK    4  A    between atoms: C_6  and  C_7
REMARK    5  A    between atoms: C_11  and  C_12
REMARK    6  A    between atoms: C_12  and  C_13
REMARK    7  A    between atoms: C_12  and  C_14
REMARK    8  A    between atoms: C_12  and  C_15
REMARK                            x       y       z     vdW  Elec       q    Type
REMARK                         _______ _______ _______ _____ _____    ______ ____
ROOT
ATOM      1  C   UNL     1       2.795   6.225  19.417  0.00  0.00    +0.000 A 
ATOM      2  N   UNL     1       2.140   6.699  20.461  0.00  0.00    +0.000 NA
ATOM      3  C   UNL     1       1.704   7.931  20.040  0.00  0.00    +0.000 A 
ATOM      4  C   UNL     1       0.967   8.928  20.697  0.00  0.00    +0.000 A 
ATOM      5  C   UNL     1       0.624  10.120  20.014  0.00  0.00    +0.000 A 
ATOM      6  C   UNL     1       1.083  10.277  18.684  0.00  0.00    +0.000 A 
ATOM      7  C   UNL     1       1.825   9.293  18.009  0.00  0.00    +0.000 A 
ATOM      8  C   UNL     1       2.103   8.147  18.733  0.00  0.00    +0.000 A 
ATOM      9  O   UNL     1       2.800   7.049  18.319  0.00  0.00    +0.000 OA
ENDROOT
BRANCH   5  10
ATOM     10  C   UNL     1      -0.185  11.232  20.717  0.00  0.00    +0.000 C 
ATOM     11  C   UNL     1      -1.433  11.546  19.868  0.00  0.00    +0.000 C 
ATOM     12  C   UNL     1      -0.643  10.822  22.136  0.00  0.00    +0.000 C 
ATOM     13  C   UNL     1       0.627  12.538  20.888  0.00  0.00    +0.000 C 
ENDBRANCH   5  10
BRANCH   1  14
ATOM     14  C   UNL     1       3.477   4.911  19.261  0.00  0.00    +0.000 C 
BRANCH  14  17
ATOM     15  C   UNL     1       4.594   4.358  17.137  0.00  0.00    +0.000 C 
ATOM     16  O   UNL     1       3.662   3.609  16.833  0.00  0.00    +0.000 OA
ATOM     17  N   UNL     1       4.593   5.035  18.340  0.00  0.00    +0.000 N 
ATOM     18  H   UNL     1       5.375   5.618  18.607  0.00  0.00    +0.000 HD
BRANCH  15  20
ATOM     19  C   UNL     1       5.867   3.695  15.016  0.00  0.00    +0.000 C 
ATOM     20  C   UNL     1       5.851   4.596  16.252  0.00  0.00    +0.000 C 
ATOM     21  C   UNL     1       6.145   6.070  15.893  0.00  0.00    +0.000 C 
ATOM     22  O   UNL     1       7.539   5.916  16.271  0.00  0.00    +0.000 OA
ATOM     23  C   UNL     1       7.212   4.694  16.973  0.00  0.00    +0.000 C 
ENDBRANCH  15  20
ENDBRANCH  14  17
ENDBRANCH   1  14
TORSDOF 4
ENDMDL
MODEL 9
REMARK VINA RESULT:      -7.0      0.664      1.136
REMARK  Name = 
REMARK  8 active torsions:
REMARK  status: ('A' for Active; 'I' for Inactive)
REMARK    1  A    between atoms: C_1  and  C_2
REMARK    2  A    between atoms: C_2  and  C_3
REMARK    3  A    between atoms: N_5  and  C_6
REMARK    4  A    between atoms: C_6  and  C_7
REMARK    5  A    between atoms: C_11  and  C_12
REMARK    6  A    between atoms: C_12  and  C_13
REMARK    7  A    between atoms: C_12  and  C_14
REMARK    8  A    between atoms: C_12  and  C_15
REMARK                            x       y       z     vdW  Elec       q    Type
REMARK                         _______ _______ _______ _____ _____    ______ ____
ROOT
ATOM      1  C   UNL     1       1.613   8.298  19.971  0.00  0.00    +0.000 A 
ATOM      2  N   UNL     1       1.088   9.439  19.562  0.00  0.00    +0.000 NA
ATOM      3  C   UNL     1       0.407   9.898  20.662  0.00  0.00    +0.000 A 
ATOM      4  C   UNL     1      -0.369  11.050  20.857  0.00  0.00    +0.000 A 
ATOM      5  C   UNL     1      -0.955  11.303  22.121  0.00  0.00    +0.000 A 
ATOM      6  C   UNL     1      -0.763  10.343  23.144  0.00  0.00    +0.000 A 
ATOM      7  C   UNL     1       0.007   9.180  22.969  0.00  0.00    +0.000 A 
ATOM      8  C   UNL     1       0.566   9.013  21.713  0.00  0.00    +0.000 A 
ATOM      9  O   UNL     1       1.349   7.982  21.281  0.00  0.00    +0.000 OA
ENDROOT
BRANCH   5  10
ATOM     10  C   UNL     1      -1.815  12.563  22.360  0.00  0.00    +0.000 C 
ATOM     11  C   UNL     1      -2.972  12.198  23.309  0.00  0.00    +0.000 C 
ATOM     12  C   UNL     1      -1.004  13.719  22.992  0.00  0.00    +0.000 C 
ATOM     13  C   UNL     1      -2.418  13.127  21.052  0.00  0.00    +0.000 C 
ENDBRANCH   5  10
BRANCH   1  14
ATOM     14  C   UNL     1       2.482   7.349  19.224  0.00  0.00    +0.000 C 
BRANCH  14  17
ATOM     15  C   UNL     1       2.431   4.935  18.739  0.00  0.00    +0.000 C 
ATOM     16  O   UNL     1       2.918   5.141  17.624  0.00  0.00    +0.000 OA
ATOM     17  N   UNL     1       2.164   5.982  19.597  0.00  0.00    +0.000 N 
ATOM     18  H   UNL     1       1.727   5.818  20.495  0.00  0.00    +0.000 HD
BRANCH  15  20
ATOM     19  C   UNL     1       1.974   2.481  18.169  0.00  0.00    +0.000 C 
ATOM     20  C   UNL     1       2.044   3.528  19.280  0.00  0.00    +0.000 C 
ATOM     21  C   UNL     1       2.866   3.030  20.490  0.00  0.00    +0.000 C 
ATOM     22  O   UNL     1       1.654   2.653  21.196  0.00  0.00    +0.000 OA
ATOM     23  C   UNL     1       0.873   3.457  20.282  0.00  0.00    +0.000 C 
ENDBRANCH  15  20
ENDBRANCH  14  17
ENDBRANCH   1  14
TORSDOF 4
ENDMDL
