MODEL 1
REMARK VINA RESULT:      -7.0      0.000      0.000
REMARK  Name = 
REMARK  9 active torsions:
REMARK  status: ('A' for Active; 'I' for Inactive)
REMARK    1  A    between atoms: C_1  and  C_2
REMARK    2  A    between atoms: C_2  and  C_3
REMARK    3  A    between atoms: C_4  and  C_5
REMARK    4  A    between atoms: C_5  and  O_6
REMARK    5  A    between atoms: O_6  and  C_7
REMARK    6  A    between atoms: C_7  and  C_8
REMARK    7  A    between atoms: C_8  and  C_9
REMARK    8  A    between atoms: C_8  and  C_15
REMARK    9  A    between atoms: C_9  and  N_10
REMARK                            x       y       z     vdW  Elec       q    Type
REMARK                         _______ _______ _______ _____ _____    ______ ____
ROOT
ATOM      1  C   UNL     1       3.716   6.030  18.046  0.00  0.00    +0.000 C 
ENDROOT
BRANCH   1   2
ATOM      2  C   UNL     1       2.842   7.223  18.450  0.00  0.00    +0.000 A 
ATOM      3  C   UNL     1       2.641   8.304  17.566  0.00  0.00    +0.000 A 
ATOM      4  C   UNL     1       1.820   9.383  17.904  0.00  0.00    +0.000 A 
ATOM      5  C   UNL     1       1.204   9.419  19.148  0.00  0.00    +0.000 A 
ATOM      6 CL   UNL     1       0.199  10.750  19.563  0.00  0.00    +0.000 Cl
ATOM      7  C   UNL     1       1.376   8.372  20.043  0.00  0.00    +0.000 A 
ATOM      8  C   UNL     1       2.164   7.273  19.689  0.00  0.00    +0.000 A 
ATOM      9 CL   UNL     1       2.195   5.966  20.824  0.00  0.00    +0.000 Cl
ENDBRANCH   1   2
BRANCH   1  10
ATOM     10  C   UNL     1       2.920   4.765  17.625  0.00  0.00    +0.000 C 
BRANCH  10  11
ATOM     11  O   UNL     1       3.768   3.647  17.351  0.00  0.00    +0.000 OA
BRANCH  11  12
ATOM     12  C   UNL     1       3.213   2.426  17.827  0.00  0.00    +0.000 C 
BRANCH  12  16
ATOM     13  C   UNL     1       1.786   2.556  21.440  0.00  0.00    +0.000 C 
ATOM     14  C   UNL     1       1.834   2.532  19.938  0.00  0.00    +0.000 C 
ATOM     15  C   UNL     1       0.518   2.499  19.208  0.00  0.00    +0.000 C 
ATOM     16  C   UNL     1       3.022   2.538  19.301  0.00  0.00    +0.000 C 
ENDBRANCH  12  16
ENDBRANCH  11  12
ENDBRANCH  10  11
ENDBRANCH   1  10
BRANCH   1  17
ATOM     17  C   UNL     1       4.807   6.321  16.987  0.00  0.00    +0.000 C 
BRANCH  17  18
ATOM     18  N   UNL     1       6.107   6.602  17.549  0.00  0.00    +0.000 N 
ATOM     19  C   UNL     1       6.795   5.882  18.476  0.00  0.00    +0.000 A 
ATOM     20  N   UNL     1       7.953   6.456  18.699  0.00  0.00    +0.000 NA
ATOM     21  C   UNL     1       7.913   7.554  17.888  0.00  0.00    +0.000 A 
ATOM     22  N   UNL     1       6.796   7.691  17.171  0.00  0.00    +0.000 NA
ENDBRANCH  17  18
ENDBRANCH   1  17
TORSDOF 7
ENDMDL
MODEL 2
REMARK VINA RESULT:      -7.0      1.198      1.385
REMARK  Name = 
REMARK  9 active torsions:
REMARK  status: ('A' for Active; 'I' for Inactive)
REMARK    1  A    between atoms: C_1  and  C_2
REMARK    2  A    between atoms: C_2  and  C_3
REMARK    3  A    between atoms: C_4  and  C_5
REMARK    4  A    between atoms: C_5  and  O_6
REMARK    5  A    between atoms: O_6  and  C_7
REMARK    6  A    between atoms: C_7  and  C_8
REMARK    7  A    between atoms: C_8  and  C_9
REMARK    8  A    between atoms: C_8  and  C_15
REMARK    9  A    between atoms: C_9  and  N_10
REMARK                            x       y       z     vdW  Elec       q    Type
REMARK                         _______ _______ _______ _____ _____    ______ ____
ROOT
ATOM      1  C   UNL     1       3.810   6.284  17.865  0.00  0.00    +0.000 C 
ENDROOT
BRANCH   1   2
ATOM      2  C   UNL     1       2.848   7.337  18.430  0.00  0.00    +0.000 A 
ATOM      3  C   UNL     1       2.448   8.442  17.650  0.00  0.00    +0.000 A 
ATOM      4  C   UNL     1       1.546   9.392  18.137  0.00  0.00    +0.000 A 
ATOM      5  C   UNL     1       1.046   9.273  19.427  0.00  0.00    +0.000 A 
ATOM      6 CL   UNL     1      -0.059  10.445  20.024  0.00  0.00    +0.000 Cl
ATOM      7  C   UNL     1       1.416   8.197  20.223  0.00  0.00    +0.000 A 
ATOM      8  C   UNL     1       2.286   7.225  19.722  0.00  0.00    +0.000 A 
ATOM      9 CL   UNL     1       2.567   5.859  20.748  0.00  0.00    +0.000 Cl
ENDBRANCH   1   2
BRANCH   1  10
ATOM     10  C   UNL     1       3.160   4.899  17.597  0.00  0.00    +0.000 C 
BRANCH  10  11
ATOM     11  O   UNL     1       4.041   3.812  17.888  0.00  0.00    +0.000 OA
BRANCH  11  12
ATOM     12  C   UNL     1       3.332   2.607  18.156  0.00  0.00    +0.000 C 
BRANCH  12  16
ATOM     13  C   UNL     1       1.536   2.485  21.601  0.00  0.00    +0.000 C 
ATOM     14  C   UNL     1       1.746   2.624  20.120  0.00  0.00    +0.000 C 
ATOM     15  C   UNL     1       0.522   2.817  19.266  0.00  0.00    +0.000 C 
ATOM     16  C   UNL     1       2.992   2.573  19.608  0.00  0.00    +0.000 C 
ENDBRANCH  12  16
ENDBRANCH  11  12
ENDBRANCH  10  11
ENDBRANCH   1  10
BRANCH   1  17
ATOM     17  C   UNL     1       4.625   6.713  16.621  0.00  0.00    +0.000 C 
BRANCH  17  18
ATOM     18  N   UNL     1       5.753   5.857  16.337  0.00  0.00    +0.000 N 
ATOM     19  C   UNL     1       6.856   5.639  17.103  0.00  0.00    +0.000 A 
ATOM     20  N   UNL     1       7.634   4.769  16.505  0.00  0.00    +0.000 NA
ATOM     21  C   UNL     1       6.962   4.502  15.347  0.00  0.00    +0.000 A 
ATOM     22  N   UNL     1       5.808   5.154  15.195  0.00  0.00    +0.000 NA
ENDBRANCH  17  18
ENDBRANCH   1  17
TORSDOF 7
ENDMDL
MODEL 3
REMARK VINA RESULT:      -7.0      3.099      6.461
REMARK  Name = 
REMARK  9 active torsions:
REMARK  status: ('A' for Active; 'I' for Inactive)
REMARK    1  A    between atoms: C_1  and  C_2
REMARK    2  A    between atoms: C_2  and  C_3
REMARK    3  A    between atoms: C_4  and  C_5
REMARK    4  A    between atoms: C_5  and  O_6
REMARK    5  A    between atoms: O_6  and  C_7
REMARK    6  A    between atoms: C_7  and  C_8
REMARK    7  A    between atoms: C_8  and  C_9
REMARK    8  A    between atoms: C_8  and  C_15
REMARK    9  A    between atoms: C_9  and  N_10
REMARK                            x       y       z     vdW  Elec       q    Type
REMARK                         _______ _______ _______ _____ _____    ______ ____
ROOT
ATOM      1  C   UNL     1       5.616   6.061  17.011  0.00  0.00    +0.000 C 
ENDROOT
BRANCH   1   2
ATOM      2  C   UNL     1       4.530   5.425  17.886  0.00  0.00    +0.000 A 
ATOM      3  C   UNL     1       4.723   4.154  18.468  0.00  0.00    +0.000 A 
ATOM      4  C   UNL     1       3.757   3.575  19.296  0.00  0.00    +0.000 A 
ATOM      5  C   UNL     1       2.564   4.241  19.536  0.00  0.00    +0.000 A 
ATOM      6 CL   UNL     1       1.376   3.524  20.550  0.00  0.00    +0.000 Cl
ATOM      7  C   UNL     1       2.339   5.495  18.983  0.00  0.00    +0.000 A 
ATOM      8  C   UNL     1       3.322   6.092  18.188  0.00  0.00    +0.000 A 
ATOM      9 CL   UNL     1       2.992   7.711  17.667  0.00  0.00    +0.000 Cl
ENDBRANCH   1   2
BRANCH   1  10
ATOM     10  C   UNL     1       6.184   7.397  17.564  0.00  0.00    +0.000 C 
BRANCH  10  11
ATOM     11  O   UNL     1       7.537   7.626  17.165  0.00  0.00    +0.000 OA
BRANCH  11  12
ATOM     12  C   UNL     1       8.280   8.317  18.165  0.00  0.00    +0.000 C 
BRANCH  12  16
ATOM     13  C   UNL     1       9.203  12.081  17.871  0.00  0.00    +0.000 C 
ATOM     14  C   UNL     1       9.028  10.710  18.459  0.00  0.00    +0.000 C 
ATOM     15  C   UNL     1       9.540  10.490  19.858  0.00  0.00    +0.000 C 
ATOM     16  C   UNL     1       8.434   9.738  17.739  0.00  0.00    +0.000 C 
ENDBRANCH  12  16
ENDBRANCH  11  12
ENDBRANCH  10  11
ENDBRANCH   1  10
BRANCH   1  17
ATOM     17  C   UNL     1       6.791   5.134  16.614  0.00  0.00    +0.000 C 
BRANCH  17  18
ATOM     18  N   UNL     1       6.813   4.786  15.213  0.00  0.00    +0.000 N 
ATOM     19  C   UNL     1       6.093   3.825  14.574  0.00  0.00    +0.000 A 
ATOM     20  N   UNL     1       6.379   3.846  13.295  0.00  0.00    +0.000 NA
ATOM     21  C   UNL     1       7.314   4.838  13.206  0.00  0.00    +0.000 A 
ATOM     22  N   UNL     1       7.620   5.437  14.359  0.00  0.00    +0.000 NA
ENDBRANCH  17  18
ENDBRANCH   1  17
TORSDOF 7
ENDMDL
MODEL 4
REMARK VINA RESULT:      -6.9      3.300      4.798
REMARK  Name = 
REMARK  9 active torsions:
REMARK  status: ('A' for Active; 'I' for Inactive)
REMARK    1  A    between atoms: C_1  and  C_2
REMARK    2  A    between atoms: C_2  and  C_3
REMARK    3  A    between atoms: C_4  and  C_5
REMARK    4  A    between atoms: C_5  and  O_6
REMARK    5  A    between atoms: O_6  and  C_7
REMARK    6  A    between atoms: C_7  and  C_8
REMARK    7  A    between atoms: C_8  and  C_9
REMARK    8  A    between atoms: C_8  and  C_15
REMARK    9  A    between atoms: C_9  and  N_10
REMARK                            x       y       z     vdW  Elec       q    Type
REMARK                         _______ _______ _______ _____ _____    ______ ____
ROOT
ATOM      1  C   UNL     1       5.519   4.263  17.160  0.00  0.00    +0.000 C 
ENDROOT
BRANCH   1   2
ATOM      2  C   UNL     1       4.510   5.001  18.049  0.00  0.00    +0.000 A 
ATOM      3  C   UNL     1       3.971   6.242  17.653  0.00  0.00    +0.000 A 
ATOM      4  C   UNL     1       3.026   6.912  18.434  0.00  0.00    +0.000 A 
ATOM      5  C   UNL     1       2.619   6.367  19.645  0.00  0.00    +0.000 A 
ATOM      6 CL   UNL     1       1.460   7.195  20.606  0.00  0.00    +0.000 Cl
ATOM      7  C   UNL     1       3.126   5.145  20.066  0.00  0.00    +0.000 A 
ATOM      8  C   UNL     1       4.042   4.456  19.265  0.00  0.00    +0.000 A 
ATOM      9 CL   UNL     1       4.499   2.881  19.822  0.00  0.00    +0.000 Cl
ENDBRANCH   1   2
BRANCH   1  10
ATOM     10  C   UNL     1       5.330   4.506  15.638  0.00  0.00    +0.000 C 
BRANCH  10  11
ATOM     11  O   UNL     1       5.885   3.458  14.840  0.00  0.00    +0.000 OA
BRANCH  11  12
ATOM     12  C   UNL     1       6.345   3.932  13.579  0.00  0.00    +0.000 C 
BRANCH  12  16
ATOM     13  C   UNL     1       3.663   3.133  10.881  0.00  0.00    +0.000 C 
ATOM     14  C   UNL     1       4.918   3.031  11.702  0.00  0.00    +0.000 C 
ATOM     15  C   UNL     1       5.826   1.862  11.430  0.00  0.00    +0.000 C 
ATOM     16  C   UNL     1       5.189   3.963  12.637  0.00  0.00    +0.000 C 
ENDBRANCH  12  16
ENDBRANCH  11  12
ENDBRANCH  10  11
ENDBRANCH   1  10
BRANCH   1  17
ATOM     17  C   UNL     1       7.010   4.459  17.525  0.00  0.00    +0.000 C 
BRANCH  17  18
ATOM     18  N   UNL     1       7.402   5.842  17.663  0.00  0.00    +0.000 N 
ATOM     19  C   UNL     1       7.292   6.841  16.747  0.00  0.00    +0.000 A 
ATOM     20  N   UNL     1       7.734   7.960  17.269  0.00  0.00    +0.000 NA
ATOM     21  C   UNL     1       8.133   7.579  18.518  0.00  0.00    +0.000 A 
ATOM     22  N   UNL     1       7.958   6.286  18.801  0.00  0.00    +0.000 NA
ENDBRANCH  17  18
ENDBRANCH   1  17
TORSDOF 7
ENDMDL
MODEL 5
REMARK VINA RESULT:      -6.9      3.692      6.243
REMARK  Name = 
REMARK  9 active torsions:
REMARK  status: ('A' for Active; 'I' for Inactive)
REMARK    1  A    between atoms: C_1  and  C_2
REMARK    2  A    between atoms: C_2  and  C_3
REMARK    3  A    between atoms: C_4  and  C_5
REMARK    4  A    between atoms: C_5  and  O_6
REMARK    5  A    between atoms: O_6  and  C_7
REMARK    6  A    between atoms: C_7  and  C_8
REMARK    7  A    between atoms: C_8  and  C_9
REMARK    8  A    between atoms: C_8  and  C_15
REMARK    9  A    between atoms: C_9  and  N_10
REMARK                            x       y       z     vdW  Elec       q    Type
REMARK                         _______ _______ _______ _____ _____    ______ ____
ROOT
ATOM      1  C   UNL     1       4.699   4.213  18.544  0.00  0.00    +0.000 C 
ENDROOT
BRANCH   1   2
ATOM      2  C   UNL     1       5.441   4.390  17.213  0.00  0.00    +0.000 A 
ATOM      3  C   UNL     1       4.783   4.170  15.985  0.00  0.00    +0.000 A 
ATOM      4  C   UNL     1       5.434   4.359  14.763  0.00  0.00    +0.000 A 
ATOM      5  C   UNL     1       6.767   4.746  14.743  0.00  0.00    +0.000 A 
ATOM      6 CL   UNL     1       7.566   4.973  13.238  0.00  0.00    +0.000 Cl
ATOM      7  C   UNL     1       7.446   4.974  15.932  0.00  0.00    +0.000 A 
ATOM      8  C   UNL     1       6.784   4.824  17.154  0.00  0.00    +0.000 A 
ATOM      9 CL   UNL     1       7.686   5.270  18.563  0.00  0.00    +0.000 Cl
ENDBRANCH   1   2
BRANCH   1  10
ATOM     10  C   UNL     1       4.238   5.542  19.203  0.00  0.00    +0.000 C 
BRANCH  10  11
ATOM     11  O   UNL     1       3.920   6.551  18.242  0.00  0.00    +0.000 OA
BRANCH  11  12
ATOM     12  C   UNL     1       2.552   6.939  18.307  0.00  0.00    +0.000 C 
BRANCH  12  16
ATOM     13  C   UNL     1       1.201   8.519  21.591  0.00  0.00    +0.000 C 
ATOM     14  C   UNL     1       1.554   8.360  20.139  0.00  0.00    +0.000 C 
ATOM     15  C   UNL     1       1.131   9.459  19.202  0.00  0.00    +0.000 C 
ATOM     16  C   UNL     1       2.221   7.264  19.724  0.00  0.00    +0.000 C 
ENDBRANCH  12  16
ENDBRANCH  11  12
ENDBRANCH  10  11
ENDBRANCH   1  10
BRANCH   1  17
ATOM     17  C   UNL     1       3.516   3.215  18.530  0.00  0.00    +0.000 C 
BRANCH  17  18
ATOM     18  N   UNL     1       2.886   3.038  19.817  0.00  0.00    +0.000 N 
ATOM     19  C   UNL     1       3.438   2.560  20.964  0.00  0.00    +0.000 A 
ATOM     20  N   UNL     1       2.541   2.584  21.921  0.00  0.00    +0.000 NA
ATOM     21  C   UNL     1       1.432   3.069  21.289  0.00  0.00    +0.000 A 
ATOM     22  N   UNL     1       1.592   3.352  19.995  0.00  0.00    +0.000 NA
ENDBRANCH  17  18
ENDBRANCH   1  17
TORSDOF 7
ENDMDL
MODEL 6
REMARK VINA RESULT:      -6.9      3.350      4.766
REMARK  Name = 
REMARK  9 active torsions:
REMARK  status: ('A' for Active; 'I' for Inactive)
REMARK    1  A    between atoms: C_1  and  C_2
REMARK    2  A    between atoms: C_2  and  C_3
REMARK    3  A    between atoms: C_4  and  C_5
REMARK    4  A    between atoms: C_5  and  O_6
REMARK    5  A    between atoms: O_6  and  C_7
REMARK    6  A    between atoms: C_7  and  C_8
REMARK    7  A    between atoms: C_8  and  C_9
REMARK    8  A    between atoms: C_8  and  C_15
REMARK    9  A    between atoms: C_9  and  N_10
REMARK                            x       y       z     vdW  Elec       q    Type
REMARK                         _______ _______ _______ _____ _____    ______ ____
ROOT
ATOM      1  C   UNL     1       5.365   4.677  16.745  0.00  0.00    +0.000 C 
ENDROOT
BRANCH   1   2
ATOM      2  C   UNL     1       4.416   5.333  17.755  0.00  0.00    +0.000 A 
ATOM      3  C   UNL     1       3.817   6.580  17.479  0.00  0.00    +0.000 A 
ATOM      4  C   UNL     1       2.923   7.176  18.373  0.00  0.00    +0.000 A 
ATOM      5  C   UNL     1       2.631   6.550  19.578  0.00  0.00    +0.000 A 
ATOM      6 CL   UNL     1       1.536   7.288  20.678  0.00  0.00    +0.000 Cl
ATOM      7  C   UNL     1       3.200   5.321  19.883  0.00  0.00    +0.000 A 
ATOM      8  C   UNL     1       4.063   4.706  18.971  0.00  0.00    +0.000 A 
ATOM      9 CL   UNL     1       4.601   3.115  19.393  0.00  0.00    +0.000 Cl
ENDBRANCH   1   2
BRANCH   1  10
ATOM     10  C   UNL     1       5.236   5.221  15.296  0.00  0.00    +0.000 C 
BRANCH  10  11
ATOM     11  O   UNL     1       5.238   4.181  14.316  0.00  0.00    +0.000 OA
BRANCH  11  12
ATOM     12  C   UNL     1       6.296   4.335  13.376  0.00  0.00    +0.000 C 
BRANCH  12  16
ATOM     13  C   UNL     1       5.976   1.274  11.002  0.00  0.00    +0.000 C 
ATOM     14  C   UNL     1       5.629   2.543  11.728  0.00  0.00    +0.000 C 
ATOM     15  C   UNL     1       4.323   3.204  11.375  0.00  0.00    +0.000 C 
ATOM     16  C   UNL     1       6.474   3.044  12.651  0.00  0.00    +0.000 C 
ENDBRANCH  12  16
ENDBRANCH  11  12
ENDBRANCH  10  11
ENDBRANCH   1  10
BRANCH   1  17
ATOM     17  C   UNL     1       6.861   4.647  17.145  0.00  0.00    +0.000 C 
BRANCH  17  18
ATOM     18  N   UNL     1       7.382   5.929  17.558  0.00  0.00    +0.000 N 
ATOM     19  C   UNL     1       7.876   6.282  18.775  0.00  0.00    +0.000 A 
ATOM     20  N   UNL     1       8.276   7.531  18.735  0.00  0.00    +0.000 NA
ATOM     21  C   UNL     1       7.976   7.908  17.458  0.00  0.00    +0.000 A 
ATOM     22  N   UNL     1       7.416   6.962  16.701  0.00  0.00    +0.000 NA
ENDBRANCH  17  18
ENDBRANCH   1  17
TORSDOF 7
ENDMDL
MODEL 7
REMARK VINA RESULT:      -6.7      1.029      1.325
REMARK  Name = 
REMARK  9 active torsions:
REMARK  status: ('A' for Active; 'I' for Inactive)
REMARK    1  A    between atoms: C_1  and  C_2
REMARK    2  A    between atoms: C_2  and  C_3
REMARK    3  A    between atoms: C_4  and  C_5
REMARK    4  A    between atoms: C_5  and  O_6
REMARK    5  A    between atoms: O_6  and  C_7
REMARK    6  A    between atoms: C_7  and  C_8
REMARK    7  A    between atoms: C_8  and  C_9
REMARK    8  A    between atoms: C_8  and  C_15
REMARK    9  A    between atoms: C_9  and  N_10
REMARK                            x       y       z     vdW  Elec       q    Type
REMARK                         _______ _______ _______ _____ _____    ______ ____
ROOT
ATOM      1  C   UNL     1       3.077   5.971  18.315  0.00  0.00    +0.000 C 
ENDROOT
BRANCH   1   2
ATOM      2  C   UNL     1       2.449   7.338  18.617  0.00  0.00    +0.000 A 
ATOM      3  C   UNL     1       2.479   8.373  17.660  0.00  0.00    +0.000 A 
ATOM      4  C   UNL     1       1.883   9.613  17.905  0.00  0.00    +0.000 A 
ATOM      5  C   UNL     1       1.267   9.854  19.126  0.00  0.00    +0.000 A 
ATOM      6 CL   UNL     1       0.539  11.381  19.427  0.00  0.00    +0.000 Cl
ATOM      7  C   UNL     1       1.217   8.857  20.092  0.00  0.00    +0.000 A 
ATOM      8  C   UNL     1       1.778   7.604  19.831  0.00  0.00    +0.000 A 
ATOM      9 CL   UNL     1       1.533   6.397  21.049  0.00  0.00    +0.000 Cl
ENDBRANCH   1   2
BRANCH   1  10
ATOM     10  C   UNL     1       2.080   4.915  17.764  0.00  0.00    +0.000 C 
BRANCH  10  11
ATOM     11  O   UNL     1       2.737   3.824  17.116  0.00  0.00    +0.000 OA
BRANCH  11  12
ATOM     12  C   UNL     1       2.433   2.576  17.731  0.00  0.00    +0.000 C 
BRANCH  12  16
ATOM     13  C   UNL     1       4.866   1.729  20.642  0.00  0.00    +0.000 C 
ATOM     14  C   UNL     1       3.669   2.268  19.911  0.00  0.00    +0.000 C 
ATOM     15  C   UNL     1       2.585   2.904  20.738  0.00  0.00    +0.000 C 
ATOM     16  C   UNL     1       3.598   2.168  18.568  0.00  0.00    +0.000 C 
ENDBRANCH  12  16
ENDBRANCH  11  12
ENDBRANCH  10  11
ENDBRANCH   1  10
BRANCH   1  17
ATOM     17  C   UNL     1       4.341   5.992  17.422  0.00  0.00    +0.000 C 
BRANCH  17  18
ATOM     18  N   UNL     1       5.579   5.881  18.158  0.00  0.00    +0.000 N 
ATOM     19  C   UNL     1       5.803   5.227  19.330  0.00  0.00    +0.000 A 
ATOM     20  N   UNL     1       7.069   5.339  19.654  0.00  0.00    +0.000 NA
ATOM     21  C   UNL     1       7.578   6.104  18.643  0.00  0.00    +0.000 A 
ATOM     22  N   UNL     1       6.698   6.469  17.708  0.00  0.00    +0.000 NA
ENDBRANCH  17  18
ENDBRANCH   1  17
TORSDOF 7
ENDMDL
MODEL 8
REMARK VINA RESULT:      -6.7      3.115      5.085
REMARK  Name = 
REMARK  9 active torsions:
REMARK  status: ('A' for Active; 'I' for Inactive)
REMARK    1  A    between atoms: C_1  and  C_2
REMARK    2  A    between atoms: C_2  and  C_3
REMARK    3  A    between atoms: C_4  and  C_5
REMARK    4  A    between atoms: C_5  and  O_6
REMARK    5  A    between atoms: O_6  and  C_7
REMARK    6  A    between atoms: C_7  and  C_8
REMARK    7  A    between atoms: C_8  and  C_9
REMARK    8  A    between atoms: C_8  and  C_15
REMARK    9  A    between atoms: C_9  and  N_10
REMARK                            x       y       z     vdW  Elec       q    Type
REMARK                         _______ _______ _______ _____ _____    ______ ____
ROOT
ATOM      1  C   UNL     1       2.115   5.974  19.887  0.00  0.00    +0.000 C 
ENDROOT
BRANCH   1   2
ATOM      2  C   UNL     1       3.276   5.569  18.971  0.00  0.00    +0.000 A 
ATOM      3  C   UNL     1       4.614   5.788  19.362  0.00  0.00    +0.000 A 
ATOM      4  C   UNL     1       5.685   5.394  18.556  0.00  0.00    +0.000 A 
ATOM      5  C   UNL     1       5.441   4.798  17.326  0.00  0.00    +0.000 A 
ATOM      6 CL   UNL     1       6.761   4.319  16.334  0.00  0.00    +0.000 Cl
ATOM      7  C   UNL     1       4.137   4.564  16.909  0.00  0.00    +0.000 A 
ATOM      8  C   UNL     1       3.067   4.921  17.734  0.00  0.00    +0.000 A 
ATOM      9 CL   UNL     1       1.495   4.456  17.176  0.00  0.00    +0.000 Cl
ENDBRANCH   1   2
BRANCH   1  10
ATOM     10  C   UNL     1       1.835   4.980  21.047  0.00  0.00    +0.000 C 
BRANCH  10  11
ATOM     11  O   UNL     1       0.895   3.965  20.687  0.00  0.00    +0.000 OA
BRANCH  11  12
ATOM     12  C   UNL     1       1.395   2.658  20.946  0.00  0.00    +0.000 C 
BRANCH  12  16
ATOM     13  C   UNL     1       3.678   1.247  18.135  0.00  0.00    +0.000 C 
ATOM     14  C   UNL     1       3.258   1.900  19.421  0.00  0.00    +0.000 C 
ATOM     15  C   UNL     1       4.348   2.298  20.379  0.00  0.00    +0.000 C 
ATOM     16  C   UNL     1       1.951   2.106  19.677  0.00  0.00    +0.000 C 
ENDBRANCH  12  16
ENDBRANCH  11  12
ENDBRANCH  10  11
ENDBRANCH   1  10
BRANCH   1  17
ATOM     17  C   UNL     1       2.172   7.414  20.453  0.00  0.00    +0.000 C 
BRANCH  17  18
ATOM     18  N   UNL     1       1.697   8.423  19.536  0.00  0.00    +0.000 N 
ATOM     19  C   UNL     1       2.015   8.580  18.223  0.00  0.00    +0.000 A 
ATOM     20  N   UNL     1       1.348   9.599  17.734  0.00  0.00    +0.000 NA
ATOM     21  C   UNL     1       0.646  10.052  18.814  0.00  0.00    +0.000 A 
ATOM     22  N   UNL     1       0.835   9.368  19.944  0.00  0.00    +0.000 NA
ENDBRANCH  17  18
ENDBRANCH   1  17
TORSDOF 7
ENDMDL
MODEL 9
REMARK VINA RESULT:      -6.6      3.206      6.560
REMARK  Name = 
REMARK  9 active torsions:
REMARK  status: ('A' for Active; 'I' for Inactive)
REMARK    1  A    between atoms: C_1  and  C_2
REMARK    2  A    between atoms: C_2  and  C_3
REMARK    3  A    between atoms: C_4  and  C_5
REMARK    4  A    between atoms: C_5  and  O_6
REMARK    5  A    between atoms: O_6  and  C_7
REMARK    6  A    between atoms: C_7  and  C_8
REMARK    7  A    between atoms: C_8  and  C_9
REMARK    8  A    between atoms: C_8  and  C_15
REMARK    9  A    between atoms: C_9  and  N_10
REMARK                            x       y       z     vdW  Elec       q    Type
REMARK                         _______ _______ _______ _____ _____    ______ ____
ROOT
ATOM      1  C   UNL     1       6.289   5.740  17.278  0.00  0.00    +0.000 C 
ENDROOT
BRANCH   1   2
ATOM      2  C   UNL     1       5.057   5.313  18.086  0.00  0.00    +0.000 A 
ATOM      3  C   UNL     1       5.059   4.111  18.824  0.00  0.00    +0.000 A 
ATOM      4  C   UNL     1       3.959   3.723  19.593  0.00  0.00    +0.000 A 
ATOM      5  C   UNL     1       2.820   4.517  19.618  0.00  0.00    +0.000 A 
ATOM      6 CL   UNL     1       1.466   4.035  20.561  0.00  0.00    +0.000 Cl
ATOM      7  C   UNL     1       2.782   5.708  18.906  0.00  0.00    +0.000 A 
ATOM      8  C   UNL     1       3.898   6.116  18.169  0.00  0.00    +0.000 A 
ATOM      9 CL   UNL     1       3.790   7.682  17.438  0.00  0.00    +0.000 Cl
ENDBRANCH   1   2
BRANCH   1  10
ATOM     10  C   UNL     1       7.261   6.681  18.040  0.00  0.00    +0.000 C 
BRANCH  10  11
ATOM     11  O   UNL     1       7.839   7.677  17.193  0.00  0.00    +0.000 OA
BRANCH  11  12
ATOM     12  C   UNL     1       7.583   8.996  17.666  0.00  0.00    +0.000 C 
BRANCH  12  16
ATOM     13  C   UNL     1      10.280  10.953  19.666  0.00  0.00    +0.000 C 
ATOM     14  C   UNL     1       9.203  10.655  18.662  0.00  0.00    +0.000 C 
ATOM     15  C   UNL     1       8.719  11.799  17.811  0.00  0.00    +0.000 C 
ATOM     16  C   UNL     1       8.710   9.406  18.552  0.00  0.00    +0.000 C 
ENDBRANCH  12  16
ENDBRANCH  11  12
ENDBRANCH  10  11
ENDBRANCH   1  10
BRANCH   1  17
ATOM     17  C   UNL     1       7.098   4.593  16.624  0.00  0.00    +0.000 C 
BRANCH  17  18
ATOM     18  N   UNL     1       6.853   4.437  15.210  0.00  0.00    +0.000 N 
ATOM     19  C   UNL     1       7.435   5.104  14.178  0.00  0.00    +0.000 A 
ATOM     20  N   UNL     1       6.960   4.649  13.043  0.00  0.00    +0.000 NA
ATOM     21  C   UNL     1       6.057   3.707  13.445  0.00  0.00    +0.000 A 
ATOM     22  N   UNL     1       5.949   3.549  14.766  0.00  0.00    +0.000 NA
ENDBRANCH  17  18
ENDBRANCH   1  17
TORSDOF 7
ENDMDL
