MODEL 1
REMARK VINA RESULT:      -8.1      0.000      0.000
REMARK  Name = 
REMARK  5 active torsions:
REMARK  status: ('A' for Active; 'I' for Inactive)
REMARK    1  A    between atoms: C_1  and  C_2
REMARK    2  A    between atoms: C_2  and  C_3
REMARK    3  A    between atoms: C_2  and  N_13
REMARK    4  A    between atoms: N_5  and  C_6
REMARK    5  A    between atoms: C_15  and  N_16
REMARK                            x       y       z     vdW  Elec       q    Type
REMARK                         _______ _______ _______ _____ _____    ______ ____
ROOT
ATOM      1  C   UNL     1       4.977   5.657  17.318  0.00  0.00    +0.000 C 
ATOM      2  O   UNL     1       4.413   6.672  16.910  0.00  0.00    +0.000 OA
ATOM      3  N   UNL     1       4.327   4.764  18.161  0.00  0.00    +0.000 N 
ATOM      4  H   UNL     1       4.722   3.838  18.293  0.00  0.00    +0.000 HD
ENDROOT
BRANCH   3   5
ATOM      5  C   UNL     1       2.918   4.979  18.530  0.00  0.00    +0.000 C 
ATOM      6  C   UNL     1       1.975   4.103  17.689  0.00  0.00    +0.000 C 
ATOM      7  C   UNL     1       1.841   2.658  18.173  0.00  0.00    +0.000 C 
ATOM      8  C   UNL     1       0.730   2.467  19.205  0.00  0.00    +0.000 C 
ATOM      9  C   UNL     1       0.975   3.104  20.570  0.00  0.00    +0.000 C 
ATOM     10  C   UNL     1       1.321   4.590  20.540  0.00  0.00    +0.000 C 
ATOM     11  C   UNL     1       2.745   4.847  20.051  0.00  0.00    +0.000 C 
ENDBRANCH   3   5
BRANCH   1  13
ATOM     12  C   UNL     1       7.412   6.481  17.303  0.00  0.00    +0.000 C 
ATOM     13  C   UNL     1       6.441   5.344  16.969  0.00  0.00    +0.000 C 
BRANCH  13  14
ATOM     14  N   UNL     1       6.578   4.999  15.553  0.00  0.00    +0.000 N 
ATOM     15  C   UNL     1       5.738   4.224  14.800  0.00  0.00    +0.000 A 
ATOM     16  C   UNL     1       6.319   4.143  13.551  0.00  0.00    +0.000 A 
ATOM     17  C   UNL     1       7.457   4.960  13.627  0.00  0.00    +0.000 A 
ATOM     18  N   UNL     1       7.614   5.497  14.843  0.00  0.00    +0.000 NA
BRANCH  16  19
ATOM     19  N   UNL     1       5.843   3.376  12.444  0.00  0.00    +0.000 N 
ATOM     20  O   UNL     1       4.639   3.437  12.190  0.00  0.00    +0.000 OA
ATOM     21  O   UNL     1       6.685   2.696  11.832  0.00  0.00    +0.000 OA
ENDBRANCH  16  19
ENDBRANCH  13  14
ENDBRANCH   1  13
TORSDOF 4
ENDMDL
MODEL 2
REMARK VINA RESULT:      -7.6      1.627      1.912
REMARK  Name = 
REMARK  5 active torsions:
REMARK  status: ('A' for Active; 'I' for Inactive)
REMARK    1  A    between atoms: C_1  and  C_2
REMARK    2  A    between atoms: C_2  and  C_3
REMARK    3  A    between atoms: C_2  and  N_13
REMARK    4  A    between atoms: N_5  and  C_6
REMARK    5  A    between atoms: C_15  and  N_16
REMARK                            x       y       z     vdW  Elec       q    Type
REMARK                         _______ _______ _______ _____ _____    ______ ____
ROOT
ATOM      1  C   UNL     1       5.036   4.500  18.632  0.00  0.00    +0.000 C 
ATOM      2  O   UNL     1       4.724   3.563  19.367  0.00  0.00    +0.000 OA
ATOM      3  N   UNL     1       4.102   5.456  18.253  0.00  0.00    +0.000 N 
ATOM      4  H   UNL     1       4.430   6.327  17.846  0.00  0.00    +0.000 HD
ENDROOT
BRANCH   3   5
ATOM      5  C   UNL     1       2.729   5.409  18.783  0.00  0.00    +0.000 C 
ATOM      6  C   UNL     1       1.782   4.665  17.829  0.00  0.00    +0.000 C 
ATOM      7  C   UNL     1       1.833   3.140  17.935  0.00  0.00    +0.000 C 
ATOM      8  C   UNL     1       0.865   2.573  18.974  0.00  0.00    +0.000 C 
ATOM      9  C   UNL     1       1.202   2.877  20.430  0.00  0.00    +0.000 C 
ATOM     10  C   UNL     1       1.408   4.354  20.754  0.00  0.00    +0.000 C 
ATOM     11  C   UNL     1       2.740   4.887  20.228  0.00  0.00    +0.000 C 
ENDBRANCH   3   5
BRANCH   1  13
ATOM     12  C   UNL     1       7.166   5.929  18.460  0.00  0.00    +0.000 C 
ATOM     13  C   UNL     1       6.450   4.638  18.046  0.00  0.00    +0.000 C 
BRANCH  13  14
ATOM     14  N   UNL     1       6.422   4.555  16.586  0.00  0.00    +0.000 N 
ATOM     15  C   UNL     1       7.419   4.896  15.713  0.00  0.00    +0.000 A 
ATOM     16  C   UNL     1       6.899   4.698  14.450  0.00  0.00    +0.000 A 
ATOM     17  C   UNL     1       5.619   4.167  14.665  0.00  0.00    +0.000 A 
ATOM     18  N   UNL     1       5.326   4.063  15.967  0.00  0.00    +0.000 NA
BRANCH  16  19
ATOM     19  N   UNL     1       7.548   4.991  13.211  0.00  0.00    +0.000 N 
ATOM     20  O   UNL     1       7.195   4.347  12.223  0.00  0.00    +0.000 OA
ATOM     21  O   UNL     1       8.429   5.868  13.236  0.00  0.00    +0.000 OA
ENDBRANCH  16  19
ENDBRANCH  13  14
ENDBRANCH   1  13
TORSDOF 4
ENDMDL
MODEL 3
REMARK VINA RESULT:      -7.5      1.646      1.985
REMARK  Name = 
REMARK  5 active torsions:
REMARK  status: ('A' for Active; 'I' for Inactive)
REMARK    1  A    between atoms: C_1  and  C_2
REMARK    2  A    between atoms: C_2  and  C_3
REMARK    3  A    between atoms: C_2  and  N_13
REMARK    4  A    between atoms: N_5  and  C_6
REMARK    5  A    between atoms: C_15  and  N_16
REMARK                            x       y       z     vdW  Elec       q    Type
REMARK                         _______ _______ _______ _____ _____    ______ ____
ROOT
ATOM      1  C   UNL     1       6.386   5.446  18.752  0.00  0.00    +0.000 C 
ATOM      2  O   UNL     1       6.768   5.306  19.915  0.00  0.00    +0.000 OA
ATOM      3  N   UNL     1       5.088   5.124  18.379  0.00  0.00    +0.000 N 
ATOM      4  H   UNL     1       4.736   5.460  17.488  0.00  0.00    +0.000 HD
ENDROOT
BRANCH   3   5
ATOM      5  C   UNL     1       4.113   4.672  19.387  0.00  0.00    +0.000 C 
ATOM      6  C   UNL     1       2.704   5.210  19.089  0.00  0.00    +0.000 C 
ATOM      7  C   UNL     1       1.925   4.420  18.038  0.00  0.00    +0.000 C 
ATOM      8  C   UNL     1       1.113   3.267  18.628  0.00  0.00    +0.000 C 
ATOM      9  C   UNL     1       1.924   2.099  19.182  0.00  0.00    +0.000 C 
ATOM     10  C   UNL     1       2.992   2.478  20.205  0.00  0.00    +0.000 C 
ATOM     11  C   UNL     1       4.204   3.148  19.562  0.00  0.00    +0.000 C 
ENDBRANCH   3   5
BRANCH   1  13
ATOM     12  C   UNL     1       7.660   7.424  17.715  0.00  0.00    +0.000 C 
ATOM     13  C   UNL     1       7.330   5.929  17.639  0.00  0.00    +0.000 C 
BRANCH  13  14
ATOM     14  N   UNL     1       6.778   5.628  16.318  0.00  0.00    +0.000 N 
ATOM     15  C   UNL     1       7.200   4.670  15.438  0.00  0.00    +0.000 A 
ATOM     16  C   UNL     1       6.410   4.814  14.315  0.00  0.00    +0.000 A 
ATOM     17  C   UNL     1       5.497   5.828  14.643  0.00  0.00    +0.000 A 
ATOM     18  N   UNL     1       5.707   6.320  15.870  0.00  0.00    +0.000 NA
BRANCH  16  19
ATOM     19  N   UNL     1       6.530   4.081  13.095  0.00  0.00    +0.000 N 
ATOM     20  O   UNL     1       7.397   4.446  12.300  0.00  0.00    +0.000 OA
ATOM     21  O   UNL     1       5.737   3.138  12.930  0.00  0.00    +0.000 OA
ENDBRANCH  16  19
ENDBRANCH  13  14
ENDBRANCH   1  13
TORSDOF 4
ENDMDL
MODEL 4
REMARK VINA RESULT:      -7.5      1.180      1.500
REMARK  Name = 
REMARK  5 active torsions:
REMARK  status: ('A' for Active; 'I' for Inactive)
REMARK    1  A    between atoms: C_1  and  C_2
REMARK    2  A    between atoms: C_2  and  C_3
REMARK    3  A    between atoms: C_2  and  N_13
REMARK    4  A    between atoms: N_5  and  C_6
REMARK    5  A    between atoms: C_15  and  N_16
REMARK                            x       y       z     vdW  Elec       q    Type
REMARK                         _______ _______ _______ _____ _____    ______ ____
ROOT
ATOM      1  C   UNL     1       4.962   5.968  17.798  0.00  0.00    +0.000 C 
ATOM      2  O   UNL     1       4.397   7.027  17.524  0.00  0.00    +0.000 OA
ATOM      3  N   UNL     1       4.305   4.963  18.495  0.00  0.00    +0.000 N 
ATOM      4  H   UNL     1       4.705   4.029  18.504  0.00  0.00    +0.000 HD
ENDROOT
BRANCH   3   5
ATOM      5  C   UNL     1       2.887   5.115  18.863  0.00  0.00    +0.000 C 
ATOM      6  C   UNL     1       1.964   4.418  17.850  0.00  0.00    +0.000 C 
ATOM      7  C   UNL     1       1.814   2.910  18.052  0.00  0.00    +0.000 C 
ATOM      8  C   UNL     1       0.675   2.538  19.002  0.00  0.00    +0.000 C 
ATOM      9  C   UNL     1       0.887   2.907  20.468  0.00  0.00    +0.000 C 
ATOM     10  C   UNL     1       1.238   4.370  20.725  0.00  0.00    +0.000 C 
ATOM     11  C   UNL     1       2.675   4.703  20.328  0.00  0.00    +0.000 C 
ENDBRANCH   3   5
BRANCH   1  13
ATOM     12  C   UNL     1       7.318   6.964  17.537  0.00  0.00    +0.000 C 
ATOM     13  C   UNL     1       6.435   5.716  17.437  0.00  0.00    +0.000 C 
BRANCH  13  14
ATOM     14  N   UNL     1       6.554   5.153  16.091  0.00  0.00    +0.000 N 
ATOM     15  C   UNL     1       7.317   5.624  15.057  0.00  0.00    +0.000 A 
ATOM     16  C   UNL     1       7.050   4.796  13.985  0.00  0.00    +0.000 A 
ATOM     17  C   UNL     1       6.180   3.819  14.490  0.00  0.00    +0.000 A 
ATOM     18  N   UNL     1       5.884   4.022  15.779  0.00  0.00    +0.000 NA
BRANCH  16  19
ATOM     19  N   UNL     1       7.559   4.939  12.658  0.00  0.00    +0.000 N 
ATOM     20  O   UNL     1       8.272   5.918  12.429  0.00  0.00    +0.000 OA
ATOM     21  O   UNL     1       7.229   4.067  11.836  0.00  0.00    +0.000 OA
ENDBRANCH  16  19
ENDBRANCH  13  14
ENDBRANCH   1  13
TORSDOF 4
ENDMDL
MODEL 5
REMARK VINA RESULT:      -7.5      1.146      1.803
REMARK  Name = 
REMARK  5 active torsions:
REMARK  status: ('A' for Active; 'I' for Inactive)
REMARK    1  A    between atoms: C_1  and  C_2
REMARK    2  A    between atoms: C_2  and  C_3
REMARK    3  A    between atoms: C_2  and  N_13
REMARK    4  A    between atoms: N_5  and  C_6
REMARK    5  A    between atoms: C_15  and  N_16
REMARK                            x       y       z     vdW  Elec       q    Type
REMARK                         _______ _______ _______ _____ _____    ______ ____
ROOT
ATOM      1  C   UNL     1       5.624   4.756  17.551  0.00  0.00    +0.000 C 
ATOM      2  O   UNL     1       6.452   4.148  18.230  0.00  0.00    +0.000 OA
ATOM      3  N   UNL     1       4.270   4.456  17.630  0.00  0.00    +0.000 N 
ATOM      4  H   UNL     1       3.599   5.114  17.244  0.00  0.00    +0.000 HD
ENDROOT
BRANCH   3   5
ATOM      5  C   UNL     1       3.785   3.445  18.585  0.00  0.00    +0.000 C 
ATOM      6  C   UNL     1       3.475   4.067  19.955  0.00  0.00    +0.000 C 
ATOM      7  C   UNL     1       2.113   4.756  20.053  0.00  0.00    +0.000 C 
ATOM      8  C   UNL     1       0.989   3.813  20.480  0.00  0.00    +0.000 C 
ATOM      9  C   UNL     1       0.592   2.749  19.461  0.00  0.00    +0.000 C 
ATOM     10  C   UNL     1       1.739   1.887  18.942  0.00  0.00    +0.000 C 
ATOM     11  C   UNL     1       2.636   2.639  17.960  0.00  0.00    +0.000 C 
ENDBRANCH   3   5
BRANCH   1  13
ATOM     12  C   UNL     1       4.991   6.941  16.353  0.00  0.00    +0.000 C 
ATOM     13  C   UNL     1       6.039   5.839  16.542  0.00  0.00    +0.000 C 
BRANCH  13  14
ATOM     14  N   UNL     1       6.351   5.249  15.240  0.00  0.00    +0.000 N 
ATOM     15  C   UNL     1       5.526   4.500  14.446  0.00  0.00    +0.000 A 
ATOM     16  C   UNL     1       6.287   4.124  13.358  0.00  0.00    +0.000 A 
ATOM     17  C   UNL     1       7.527   4.754  13.549  0.00  0.00    +0.000 A 
ATOM     18  N   UNL     1       7.568   5.454  14.689  0.00  0.00    +0.000 NA
BRANCH  16  19
ATOM     19  N   UNL     1       5.876   3.268  12.291  0.00  0.00    +0.000 N 
ATOM     20  O   UNL     1       4.696   3.328  11.942  0.00  0.00    +0.000 OA
ATOM     21  O   UNL     1       6.744   2.520  11.809  0.00  0.00    +0.000 OA
ENDBRANCH  16  19
ENDBRANCH  13  14
ENDBRANCH   1  13
TORSDOF 4
ENDMDL
MODEL 6
REMARK VINA RESULT:      -6.9      1.234      1.896
REMARK  Name = 
REMARK  5 active torsions:
REMARK  status: ('A' for Active; 'I' for Inactive)
REMARK    1  A    between atoms: C_1  and  C_2
REMARK    2  A    between atoms: C_2  and  C_3
REMARK    3  A    between atoms: C_2  and  N_13
REMARK    4  A    between atoms: N_5  and  C_6
REMARK    5  A    between atoms: C_15  and  N_16
REMARK                            x       y       z     vdW  Elec       q    Type
REMARK                         _______ _______ _______ _____ _____    ______ ____
ROOT
ATOM      1  C   UNL     1       5.059   4.053  17.883  0.00  0.00    +0.000 C 
ATOM      2  O   UNL     1       3.956   4.438  17.494  0.00  0.00    +0.000 OA
ATOM      3  N   UNL     1       5.175   3.024  18.808  0.00  0.00    +0.000 N 
ATOM      4  H   UNL     1       6.079   2.577  18.934  0.00  0.00    +0.000 HD
ENDROOT
BRANCH   3   5
ATOM      5  C   UNL     1       3.977   2.319  19.294  0.00  0.00    +0.000 C 
ATOM      6  C   UNL     1       3.506   2.874  20.648  0.00  0.00    +0.000 C 
ATOM      7  C   UNL     1       2.672   4.152  20.561  0.00  0.00    +0.000 C 
ATOM      8  C   UNL     1       1.174   3.887  20.406  0.00  0.00    +0.000 C 
ATOM      9  C   UNL     1       0.741   3.285  19.072  0.00  0.00    +0.000 C 
ATOM     10  C   UNL     1       1.476   2.012  18.665  0.00  0.00    +0.000 C 
ATOM     11  C   UNL     1       2.903   2.287  18.195  0.00  0.00    +0.000 C 
ENDBRANCH   3   5
BRANCH   1  13
ATOM     12  C   UNL     1       6.505   6.180  17.858  0.00  0.00    +0.000 C 
ATOM     13  C   UNL     1       6.364   4.719  17.415  0.00  0.00    +0.000 C 
BRANCH  13  14
ATOM     14  N   UNL     1       6.495   4.646  15.960  0.00  0.00    +0.000 N 
ATOM     15  C   UNL     1       5.755   3.887  15.095  0.00  0.00    +0.000 A 
ATOM     16  C   UNL     1       6.290   4.113  13.842  0.00  0.00    +0.000 A 
ATOM     17  C   UNL     1       7.292   5.074  14.045  0.00  0.00    +0.000 A 
ATOM     18  N   UNL     1       7.412   5.415  15.333  0.00  0.00    +0.000 NA
BRANCH  16  19
ATOM     19  N   UNL     1       5.894   3.478  12.625  0.00  0.00    +0.000 N 
ATOM     20  O   UNL     1       4.696   3.504  12.339  0.00  0.00    +0.000 OA
ATOM     21  O   UNL     1       6.793   2.940  11.957  0.00  0.00    +0.000 OA
ENDBRANCH  16  19
ENDBRANCH  13  14
ENDBRANCH   1  13
TORSDOF 4
ENDMDL
MODEL 7
REMARK VINA RESULT:      -6.9      1.225      1.407
REMARK  Name = 
REMARK  5 active torsions:
REMARK  status: ('A' for Active; 'I' for Inactive)
REMARK    1  A    between atoms: C_1  and  C_2
REMARK    2  A    between atoms: C_2  and  C_3
REMARK    3  A    between atoms: C_2  and  N_13
REMARK    4  A    between atoms: N_5  and  C_6
REMARK    5  A    between atoms: C_15  and  N_16
REMARK                            x       y       z     vdW  Elec       q    Type
REMARK                         _______ _______ _______ _____ _____    ______ ____
ROOT
ATOM      1  C   UNL     1       5.083   4.470  18.390  0.00  0.00    +0.000 C 
ATOM      2  O   UNL     1       4.796   3.788  19.375  0.00  0.00    +0.000 OA
ATOM      3  N   UNL     1       4.153   5.324  17.813  0.00  0.00    +0.000 N 
ATOM      4  H   UNL     1       4.476   6.033  17.162  0.00  0.00    +0.000 HD
ENDROOT
BRANCH   3   5
ATOM      5  C   UNL     1       2.817   5.486  18.412  0.00  0.00    +0.000 C 
ATOM      6  C   UNL     1       1.776   4.595  17.717  0.00  0.00    +0.000 C 
ATOM      7  C   UNL     1       1.765   3.138  18.183  0.00  0.00    +0.000 C 
ATOM      8  C   UNL     1       0.844   2.894  19.378  0.00  0.00    +0.000 C 
ATOM      9  C   UNL     1       1.290   3.515  20.699  0.00  0.00    +0.000 C 
ATOM     10  C   UNL     1       1.584   5.011  20.646  0.00  0.00    +0.000 C 
ATOM     11  C   UNL     1       2.900   5.323  19.937  0.00  0.00    +0.000 C 
ENDBRANCH   3   5
BRANCH   1  13
ATOM     12  C   UNL     1       7.486   5.375  18.259  0.00  0.00    +0.000 C 
ATOM     13  C   UNL     1       6.459   4.378  17.711  0.00  0.00    +0.000 C 
BRANCH  13  14
ATOM     14  N   UNL     1       6.341   4.560  16.264  0.00  0.00    +0.000 N 
ATOM     15  C   UNL     1       6.060   3.606  15.325  0.00  0.00    +0.000 A 
ATOM     16  C   UNL     1       6.116   4.248  14.105  0.00  0.00    +0.000 A 
ATOM     17  C   UNL     1       6.360   5.594  14.416  0.00  0.00    +0.000 A 
ATOM     18  N   UNL     1       6.484   5.795  15.734  0.00  0.00    +0.000 NA
BRANCH  16  19
ATOM     19  N   UNL     1       5.964   3.642  12.820  0.00  0.00    +0.000 N 
ATOM     20  O   UNL     1       6.992   3.311  12.228  0.00  0.00    +0.000 OA
ATOM     21  O   UNL     1       4.803   3.509  12.399  0.00  0.00    +0.000 OA
ENDBRANCH  16  19
ENDBRANCH  13  14
ENDBRANCH   1  13
TORSDOF 4
ENDMDL
MODEL 8
REMARK VINA RESULT:      -6.8      1.754      2.389
REMARK  Name = 
REMARK  5 active torsions:
REMARK  status: ('A' for Active; 'I' for Inactive)
REMARK    1  A    between atoms: C_1  and  C_2
REMARK    2  A    between atoms: C_2  and  C_3
REMARK    3  A    between atoms: C_2  and  N_13
REMARK    4  A    between atoms: N_5  and  C_6
REMARK    5  A    between atoms: C_15  and  N_16
REMARK                            x       y       z     vdW  Elec       q    Type
REMARK                         _______ _______ _______ _____ _____    ______ ____
ROOT
ATOM      1  C   UNL     1       4.818   4.188  18.035  0.00  0.00    +0.000 C 
ATOM      2  O   UNL     1       3.946   4.972  18.412  0.00  0.00    +0.000 OA
ATOM      3  N   UNL     1       4.591   2.818  18.013  0.00  0.00    +0.000 N 
ATOM      4  H   UNL     1       5.226   2.224  17.490  0.00  0.00    +0.000 HD
ENDROOT
BRANCH   3   5
ATOM      5  C   UNL     1       3.271   2.275  18.377  0.00  0.00    +0.000 C 
ATOM      6  C   UNL     1       3.250   1.769  19.828  0.00  0.00    +0.000 C 
ATOM      7  C   UNL     1       3.049   2.858  20.884  0.00  0.00    +0.000 C 
ATOM      8  C   UNL     1       1.578   3.132  21.197  0.00  0.00    +0.000 C 
ATOM      9  C   UNL     1       0.775   3.795  20.083  0.00  0.00    +0.000 C 
ATOM     10  C   UNL     1       0.831   3.088  18.732  0.00  0.00    +0.000 C 
ATOM     11  C   UNL     1       2.170   3.287  18.024  0.00  0.00    +0.000 C 
ENDBRANCH   3   5
BRANCH   1  13
ATOM     12  C   UNL     1       6.533   6.103  18.056  0.00  0.00    +0.000 C 
ATOM     13  C   UNL     1       6.218   4.668  17.620  0.00  0.00    +0.000 C 
BRANCH  13  14
ATOM     14  N   UNL     1       6.400   4.558  16.172  0.00  0.00    +0.000 N 
ATOM     15  C   UNL     1       7.404   5.099  15.416  0.00  0.00    +0.000 A 
ATOM     16  C   UNL     1       7.110   4.771  14.108  0.00  0.00    +0.000 A 
ATOM     17  C   UNL     1       5.960   3.971  14.185  0.00  0.00    +0.000 A 
ATOM     18  N   UNL     1       5.529   3.825  15.444  0.00  0.00    +0.000 NA
BRANCH  16  19
ATOM     19  N   UNL     1       7.835   5.182  12.948  0.00  0.00    +0.000 N 
ATOM     20  O   UNL     1       8.757   5.982  13.112  0.00  0.00    +0.000 OA
ATOM     21  O   UNL     1       7.466   4.706  11.860  0.00  0.00    +0.000 OA
ENDBRANCH  16  19
ENDBRANCH  13  14
ENDBRANCH   1  13
TORSDOF 4
ENDMDL
MODEL 9
REMARK VINA RESULT:      -6.8      1.623      2.295
REMARK  Name = 
REMARK  5 active torsions:
REMARK  status: ('A' for Active; 'I' for Inactive)
REMARK    1  A    between atoms: C_1  and  C_2
REMARK    2  A    between atoms: C_2  and  C_3
REMARK    3  A    between atoms: C_2  and  N_13
REMARK    4  A    between atoms: N_5  and  C_6
REMARK    5  A    between atoms: C_15  and  N_16
REMARK                            x       y       z     vdW  Elec       q    Type
REMARK                         _______ _______ _______ _____ _____    ______ ____
ROOT
ATOM      1  C   UNL     1       5.734   4.793  18.259  0.00  0.00    +0.000 C 
ATOM      2  O   UNL     1       6.450   4.250  19.101  0.00  0.00    +0.000 OA
ATOM      3  N   UNL     1       4.390   4.463  18.138  0.00  0.00    +0.000 N 
ATOM      4  H   UNL     1       3.780   5.078  17.607  0.00  0.00    +0.000 HD
ENDROOT
BRANCH   3   5
ATOM      5  C   UNL     1       3.772   3.502  19.067  0.00  0.00    +0.000 C 
ATOM      6  C   UNL     1       3.139   4.213  20.274  0.00  0.00    +0.000 C 
ATOM      7  C   UNL     1       1.749   4.798  20.016  0.00  0.00    +0.000 C 
ATOM      8  C   UNL     1       0.617   3.808  20.292  0.00  0.00    +0.000 C 
ATOM      9  C   UNL     1       0.512   2.633  19.324  0.00  0.00    +0.000 C 
ATOM     10  C   UNL     1       1.793   1.824  19.145  0.00  0.00    +0.000 C 
ATOM     11  C   UNL     1       2.833   2.558  18.301  0.00  0.00    +0.000 C 
ENDBRANCH   3   5
BRANCH   1  13
ATOM     12  C   UNL     1       5.441   7.091  17.142  0.00  0.00    +0.000 C 
ATOM     13  C   UNL     1       6.291   5.821  17.260  0.00  0.00    +0.000 C 
BRANCH  13  14
ATOM     14  N   UNL     1       6.448   5.226  15.932  0.00  0.00    +0.000 N 
ATOM     15  C   UNL     1       7.239   5.672  14.909  0.00  0.00    +0.000 A 
ATOM     16  C   UNL     1       7.003   4.820  13.849  0.00  0.00    +0.000 A 
ATOM     17  C   UNL     1       6.119   3.854  14.353  0.00  0.00    +0.000 A 
ATOM     18  N   UNL     1       5.787   4.087  15.628  0.00  0.00    +0.000 NA
BRANCH  16  19
ATOM     19  N   UNL     1       7.549   4.931  12.534  0.00  0.00    +0.000 N 
ATOM     20  O   UNL     1       7.325   4.008  11.749  0.00  0.00    +0.000 OA
ATOM     21  O   UNL     1       8.219   5.950  12.292  0.00  0.00    +0.000 OA
ENDBRANCH  16  19
ENDBRANCH  13  14
ENDBRANCH   1  13
TORSDOF 4
ENDMDL
