MODEL 1
REMARK VINA RESULT:      -7.8      0.000      0.000
REMARK  Name = 
REMARK  5 active torsions:
REMARK  status: ('A' for Active; 'I' for Inactive)
REMARK    1  A    between atoms: C_12  and  C_13
REMARK    2  A    between atoms: C_13  and  C_14
REMARK    3  A    between atoms: C_14  and  N_15
REMARK    4  A    between atoms: C_18  and  O_19
REMARK    5  A    between atoms: O_19  and  C_20
REMARK                            x       y       z     vdW  Elec       q    Type
REMARK                         _______ _______ _______ _____ _____    ______ ____
ROOT
ATOM      1  C   UNL     1       1.721   7.792  21.151  0.00  0.00    +0.000 C 
ENDROOT
BRANCH   1   2
ATOM      2  N   UNL     1       1.589   6.744  20.125  0.00  0.00    +0.000 NA
ATOM      3  C   UNL     1       2.547   6.965  19.035  0.00  0.00    +0.000 C 
ATOM      4  C   UNL     1       2.397   5.905  17.957  0.00  0.00    +0.000 C 
ATOM      5  C   UNL     1       2.665   4.506  18.510  0.00  0.00    +0.000 C 
ATOM      6  C   UNL     1       1.709   4.280  19.689  0.00  0.00    +0.000 C 
ATOM      7  C   UNL     1       1.789   5.410  20.726  0.00  0.00    +0.000 C 
BRANCH   5   8
ATOM      8  O   UNL     1       4.008   4.364  19.005  0.00  0.00    +0.000 OA
BRANCH   8   9
ATOM      9  C   UNL     1       5.020   4.349  18.084  0.00  0.00    +0.000 A 
ATOM     10  C   UNL     1       4.904   3.882  16.775  0.00  0.00    +0.000 A 
ATOM     11  C   UNL     1       5.975   3.976  15.887  0.00  0.00    +0.000 A 
ATOM     12  C   UNL     1       7.184   4.519  16.308  0.00  0.00    +0.000 A 
ATOM     13  C   UNL     1       7.314   4.984  17.615  0.00  0.00    +0.000 A 
ATOM     14  C   UNL     1       6.230   4.913  18.495  0.00  0.00    +0.000 A 
ENDBRANCH   8   9
ENDBRANCH   5   8
ENDBRANCH   1   2
BRANCH   1  15
ATOM     15  C   UNL     1       0.472   8.682  21.311  0.00  0.00    +0.000 C 
BRANCH  15  27
ATOM     16  O   UNL     1      -0.338  10.878  23.237  0.00  0.00    +0.000 OA
ATOM     17  C   UNL     1      -0.347  10.916  21.999  0.00  0.00    +0.000 C 
ATOM     18  C   UNL     1      -1.481  11.634  21.323  0.00  0.00    +0.000 A 
ATOM     19  C   UNL     1      -2.278  12.393  22.223  0.00  0.00    +0.000 A 
ATOM     20  C   UNL     1      -3.402  13.109  21.816  0.00  0.00    +0.000 A 
ATOM     21  C   UNL     1      -3.769  13.086  20.487  0.00  0.00    +0.000 A 
ATOM     22  C   UNL     1      -3.003  12.353  19.583  0.00  0.00    +0.000 A 
ATOM     23  C   UNL     1      -1.843  11.620  19.965  0.00  0.00    +0.000 A 
ATOM     24  C   UNL     1      -1.206  10.909  18.793  0.00  0.00    +0.000 C 
ATOM     25  C   UNL     1       0.176  10.286  18.803  0.00  0.00    +0.000 C 
ATOM     26  C   UNL     1       1.100  10.769  19.894  0.00  0.00    +0.000 C 
ATOM     27  C   UNL     1       0.757  10.197  21.262  0.00  0.00    +0.000 C 
ENDBRANCH  15  27
ENDBRANCH   1  15
TORSDOF 5
ENDMDL
MODEL 2
REMARK VINA RESULT:      -7.8      1.937      9.101
REMARK  Name = 
REMARK  5 active torsions:
REMARK  status: ('A' for Active; 'I' for Inactive)
REMARK    1  A    between atoms: C_12  and  C_13
REMARK    2  A    between atoms: C_13  and  C_14
REMARK    3  A    between atoms: C_14  and  N_15
REMARK    4  A    between atoms: C_18  and  O_19
REMARK    5  A    between atoms: O_19  and  C_20
REMARK                            x       y       z     vdW  Elec       q    Type
REMARK                         _______ _______ _______ _____ _____    ______ ____
ROOT
ATOM      1  C   UNL     1       2.838   6.835  18.695  0.00  0.00    +0.000 C 
ENDROOT
BRANCH   1   2
ATOM      2  N   UNL     1       2.383   8.207  18.976  0.00  0.00    +0.000 NA
ATOM      3  C   UNL     1       1.736   8.789  17.793  0.00  0.00    +0.000 C 
ATOM      4  C   UNL     1       1.288  10.215  18.065  0.00  0.00    +0.000 C 
ATOM      5  C   UNL     1       0.272  10.273  19.204  0.00  0.00    +0.000 C 
ATOM      6  C   UNL     1       0.913   9.618  20.435  0.00  0.00    +0.000 C 
ATOM      7  C   UNL     1       1.457   8.215  20.126  0.00  0.00    +0.000 C 
BRANCH   5   8
ATOM      8  O   UNL     1      -0.930   9.546  18.899  0.00  0.00    +0.000 OA
BRANCH   8   9
ATOM      9  C   UNL     1      -1.856  10.165  18.104  0.00  0.00    +0.000 A 
ATOM     10  C   UNL     1      -2.121   9.831  16.776  0.00  0.00    +0.000 A 
ATOM     11  C   UNL     1      -3.137  10.474  16.068  0.00  0.00    +0.000 A 
ATOM     12  C   UNL     1      -3.884  11.476  16.678  0.00  0.00    +0.000 A 
ATOM     13  C   UNL     1      -3.624  11.822  18.001  0.00  0.00    +0.000 A 
ATOM     14  C   UNL     1      -2.624  11.158  18.717  0.00  0.00    +0.000 A 
ENDBRANCH   8   9
ENDBRANCH   5   8
ENDBRANCH   1   2
BRANCH   1  15
ATOM     15  C   UNL     1       2.492   5.815  19.798  0.00  0.00    +0.000 C 
BRANCH  15  27
ATOM     16  O   UNL     1       5.511   5.573  19.900  0.00  0.00    +0.000 OA
ATOM     17  C   UNL     1       4.723   4.917  19.207  0.00  0.00    +0.000 C 
ATOM     18  C   UNL     1       5.138   4.567  17.805  0.00  0.00    +0.000 A 
ATOM     19  C   UNL     1       6.508   4.840  17.543  0.00  0.00    +0.000 A 
ATOM     20  C   UNL     1       7.095   4.625  16.298  0.00  0.00    +0.000 A 
ATOM     21  C   UNL     1       6.325   4.131  15.267  0.00  0.00    +0.000 A 
ATOM     22  C   UNL     1       4.980   3.851  15.498  0.00  0.00    +0.000 A 
ATOM     23  C   UNL     1       4.352   4.048  16.762  0.00  0.00    +0.000 A 
ATOM     24  C   UNL     1       2.888   3.675  16.736  0.00  0.00    +0.000 C 
ATOM     25  C   UNL     1       2.015   3.500  17.963  0.00  0.00    +0.000 C 
ATOM     26  C   UNL     1       2.753   3.284  19.262  0.00  0.00    +0.000 C 
ATOM     27  C   UNL     1       3.384   4.558  19.807  0.00  0.00    +0.000 C 
ENDBRANCH  15  27
ENDBRANCH   1  15
TORSDOF 5
ENDMDL
MODEL 3
REMARK VINA RESULT:      -7.6      2.264      3.556
REMARK  Name = 
REMARK  5 active torsions:
REMARK  status: ('A' for Active; 'I' for Inactive)
REMARK    1  A    between atoms: C_12  and  C_13
REMARK    2  A    between atoms: C_13  and  C_14
REMARK    3  A    between atoms: C_14  and  N_15
REMARK    4  A    between atoms: C_18  and  O_19
REMARK    5  A    between atoms: O_19  and  C_20
REMARK                            x       y       z     vdW  Elec       q    Type
REMARK                         _______ _______ _______ _____ _____    ______ ____
ROOT
ATOM      1  C   UNL     1       1.040   4.008  20.678  0.00  0.00    +0.000 C 
ENDROOT
BRANCH   1   2
ATOM      2  N   UNL     1       1.820   3.112  19.807  0.00  0.00    +0.000 NA
ATOM      3  C   UNL     1       1.747   3.557  18.410  0.00  0.00    +0.000 C 
ATOM      4  C   UNL     1       2.524   2.622  17.500  0.00  0.00    +0.000 C 
ATOM      5  C   UNL     1       4.004   2.579  17.878  0.00  0.00    +0.000 C 
ATOM      6  C   UNL     1       4.097   2.169  19.354  0.00  0.00    +0.000 C 
ATOM      7  C   UNL     1       3.225   3.055  20.257  0.00  0.00    +0.000 C 
BRANCH   5   8
ATOM      8  O   UNL     1       4.639   3.862  17.742  0.00  0.00    +0.000 OA
BRANCH   8   9
ATOM      9  C   UNL     1       5.360   4.090  16.601  0.00  0.00    +0.000 A 
ATOM     10  C   UNL     1       4.876   3.923  15.304  0.00  0.00    +0.000 A 
ATOM     11  C   UNL     1       5.666   4.251  14.201  0.00  0.00    +0.000 A 
ATOM     12  C   UNL     1       6.959   4.729  14.387  0.00  0.00    +0.000 A 
ATOM     13  C   UNL     1       7.454   4.892  15.679  0.00  0.00    +0.000 A 
ATOM     14  C   UNL     1       6.651   4.589  16.782  0.00  0.00    +0.000 A 
ENDBRANCH   8   9
ENDBRANCH   5   8
ENDBRANCH   1   2
BRANCH   1  15
ATOM     15  C   UNL     1       0.856   5.433  20.118  0.00  0.00    +0.000 C 
BRANCH  15  27
ATOM     16  O   UNL     1       0.660   7.784  22.021  0.00  0.00    +0.000 OA
ATOM     17  C   UNL     1       1.260   7.734  20.940  0.00  0.00    +0.000 C 
ATOM     18  C   UNL     1       1.229   8.953  20.060  0.00  0.00    +0.000 A 
ATOM     19  C   UNL     1       0.704  10.101  20.712  0.00  0.00    +0.000 A 
ATOM     20  C   UNL     1       0.553  11.329  20.072  0.00  0.00    +0.000 A 
ATOM     21  C   UNL     1       0.920  11.448  18.749  0.00  0.00    +0.000 A 
ATOM     22  C   UNL     1       1.442  10.339  18.086  0.00  0.00    +0.000 A 
ATOM     23  C   UNL     1       1.620   9.072  18.714  0.00  0.00    +0.000 A 
ATOM     24  C   UNL     1       2.194   8.042  17.770  0.00  0.00    +0.000 C 
ATOM     25  C   UNL     1       2.760   6.700  18.189  0.00  0.00    +0.000 C 
ATOM     26  C   UNL     1       3.141   6.580  19.645  0.00  0.00    +0.000 C 
ATOM     27  C   UNL     1       1.937   6.437  20.565  0.00  0.00    +0.000 C 
ENDBRANCH  15  27
ENDBRANCH   1  15
TORSDOF 5
ENDMDL
MODEL 4
REMARK VINA RESULT:      -7.6      3.680      6.135
REMARK  Name = 
REMARK  5 active torsions:
REMARK  status: ('A' for Active; 'I' for Inactive)
REMARK    1  A    between atoms: C_12  and  C_13
REMARK    2  A    between atoms: C_13  and  C_14
REMARK    3  A    between atoms: C_14  and  N_15
REMARK    4  A    between atoms: C_18  and  O_19
REMARK    5  A    between atoms: O_19  and  C_20
REMARK                            x       y       z     vdW  Elec       q    Type
REMARK                         _______ _______ _______ _____ _____    ______ ____
ROOT
ATOM      1  C   UNL     1       4.994   4.617  19.705  0.00  0.00    +0.000 C 
ENDROOT
BRANCH   1   2
ATOM      2  N   UNL     1       6.184   4.983  18.918  0.00  0.00    +0.000 NA
ATOM      3  C   UNL     1       6.386   4.036  17.814  0.00  0.00    +0.000 C 
ATOM      4  C   UNL     1       7.628   4.389  17.016  0.00  0.00    +0.000 C 
ATOM      5  C   UNL     1       7.516   5.780  16.396  0.00  0.00    +0.000 C 
ATOM      6  C   UNL     1       7.250   6.777  17.532  0.00  0.00    +0.000 C 
ATOM      7  C   UNL     1       6.053   6.359  18.401  0.00  0.00    +0.000 C 
BRANCH   5   8
ATOM      8  O   UNL     1       6.423   5.877  15.466  0.00  0.00    +0.000 OA
BRANCH   8   9
ATOM      9  C   UNL     1       6.472   5.082  14.353  0.00  0.00    +0.000 A 
ATOM     10  C   UNL     1       5.532   4.105  14.026  0.00  0.00    +0.000 A 
ATOM     11  C   UNL     1       5.630   3.394  12.829  0.00  0.00    +0.000 A 
ATOM     12  C   UNL     1       6.683   3.641  11.956  0.00  0.00    +0.000 A 
ATOM     13  C   UNL     1       7.631   4.611  12.275  0.00  0.00    +0.000 A 
ATOM     14  C   UNL     1       7.516   5.340  13.462  0.00  0.00    +0.000 A 
ENDBRANCH   8   9
ENDBRANCH   5   8
ENDBRANCH   1   2
BRANCH   1  15
ATOM     15  C   UNL     1       4.204   3.420  19.138  0.00  0.00    +0.000 C 
BRANCH  15  27
ATOM     16  O   UNL     1       3.410   5.310  16.905  0.00  0.00    +0.000 OA
ATOM     17  C   UNL     1       2.863   5.168  18.006  0.00  0.00    +0.000 C 
ATOM     18  C   UNL     1       2.338   6.396  18.698  0.00  0.00    +0.000 A 
ATOM     19  C   UNL     1       2.330   7.546  17.863  0.00  0.00    +0.000 A 
ATOM     20  C   UNL     1       1.916   8.799  18.310  0.00  0.00    +0.000 A 
ATOM     21  C   UNL     1       1.499   8.944  19.616  0.00  0.00    +0.000 A 
ATOM     22  C   UNL     1       1.494   7.831  20.454  0.00  0.00    +0.000 A 
ATOM     23  C   UNL     1       1.899   6.534  20.026  0.00  0.00    +0.000 A 
ATOM     24  C   UNL     1       1.806   5.512  21.134  0.00  0.00    +0.000 C 
ATOM     25  C   UNL     1       1.890   4.010  20.939  0.00  0.00    +0.000 C 
ATOM     26  C   UNL     1       1.637   3.521  19.534  0.00  0.00    +0.000 C 
ATOM     27  C   UNL     1       2.806   3.778  18.594  0.00  0.00    +0.000 C 
ENDBRANCH  15  27
ENDBRANCH   1  15
TORSDOF 5
ENDMDL
MODEL 5
REMARK VINA RESULT:      -7.6      0.677      1.150
REMARK  Name = 
REMARK  5 active torsions:
REMARK  status: ('A' for Active; 'I' for Inactive)
REMARK    1  A    between atoms: C_12  and  C_13
REMARK    2  A    between atoms: C_13  and  C_14
REMARK    3  A    between atoms: C_14  and  N_15
REMARK    4  A    between atoms: C_18  and  O_19
REMARK    5  A    between atoms: O_19  and  C_20
REMARK                            x       y       z     vdW  Elec       q    Type
REMARK                         _______ _______ _______ _____ _____    ______ ____
ROOT
ATOM      1  C   UNL     1       1.583   7.281  21.351  0.00  0.00    +0.000 C 
ENDROOT
BRANCH   1   2
ATOM      2  N   UNL     1       1.598   6.215  20.335  0.00  0.00    +0.000 NA
ATOM      3  C   UNL     1       2.359   6.639  19.153  0.00  0.00    +0.000 C 
ATOM      4  C   UNL     1       2.356   5.556  18.087  0.00  0.00    +0.000 C 
ATOM      5  C   UNL     1       3.003   4.270  18.597  0.00  0.00    +0.000 C 
ATOM      6  C   UNL     1       2.254   3.842  19.867  0.00  0.00    +0.000 C 
ATOM      7  C   UNL     1       2.170   4.977  20.900  0.00  0.00    +0.000 C 
BRANCH   5   8
ATOM      8  O   UNL     1       4.385   4.457  18.949  0.00  0.00    +0.000 OA
BRANCH   8   9
ATOM      9  C   UNL     1       5.254   4.776  17.941  0.00  0.00    +0.000 A 
ATOM     10  C   UNL     1       6.230   5.769  18.011  0.00  0.00    +0.000 A 
ATOM     11  C   UNL     1       7.118   5.972  16.954  0.00  0.00    +0.000 A 
ATOM     12  C   UNL     1       7.022   5.195  15.805  0.00  0.00    +0.000 A 
ATOM     13  C   UNL     1       6.046   4.204  15.721  0.00  0.00    +0.000 A 
ATOM     14  C   UNL     1       5.175   3.986  16.792  0.00  0.00    +0.000 A 
ENDBRANCH   8   9
ENDBRANCH   5   8
ENDBRANCH   1   2
BRANCH   1  15
ATOM     15  C   UNL     1       0.463   8.323  21.158  0.00  0.00    +0.000 C 
BRANCH  15  27
ATOM     16  O   UNL     1       0.069  10.144  23.549  0.00  0.00    +0.000 OA
ATOM     17  C   UNL     1      -0.043  10.434  22.351  0.00  0.00    +0.000 C 
ATOM     18  C   UNL     1      -1.147  11.374  21.953  0.00  0.00    +0.000 A 
ATOM     19  C   UNL     1      -1.774  12.002  23.063  0.00  0.00    +0.000 A 
ATOM     20  C   UNL     1      -2.844  12.884  22.925  0.00  0.00    +0.000 A 
ATOM     21  C   UNL     1      -3.326  13.166  21.665  0.00  0.00    +0.000 A 
ATOM     22  C   UNL     1      -2.726  12.567  20.559  0.00  0.00    +0.000 A 
ATOM     23  C   UNL     1      -1.624  11.670  20.664  0.00  0.00    +0.000 A 
ATOM     24  C   UNL     1      -1.174  11.159  19.315  0.00  0.00    +0.000 C 
ATOM     25  C   UNL     1       0.128  10.426  19.055  0.00  0.00    +0.000 C 
ATOM     26  C   UNL     1       1.191  10.591  20.115  0.00  0.00    +0.000 C 
ATOM     27  C   UNL     1       0.907   9.784  21.373  0.00  0.00    +0.000 C 
ENDBRANCH  15  27
ENDBRANCH   1  15
TORSDOF 5
ENDMDL
MODEL 6
REMARK VINA RESULT:      -7.6      2.175      9.238
REMARK  Name = 
REMARK  5 active torsions:
REMARK  status: ('A' for Active; 'I' for Inactive)
REMARK    1  A    between atoms: C_12  and  C_13
REMARK    2  A    between atoms: C_13  and  C_14
REMARK    3  A    between atoms: C_14  and  N_15
REMARK    4  A    between atoms: C_18  and  O_19
REMARK    5  A    between atoms: O_19  and  C_20
REMARK                            x       y       z     vdW  Elec       q    Type
REMARK                         _______ _______ _______ _____ _____    ______ ____
ROOT
ATOM      1  C   UNL     1       2.062   6.884  20.140  0.00  0.00    +0.000 C 
ENDROOT
BRANCH   1   2
ATOM      2  N   UNL     1       1.820   8.304  19.834  0.00  0.00    +0.000 NA
ATOM      3  C   UNL     1       1.281   8.456  18.476  0.00  0.00    +0.000 C 
ATOM      4  C   UNL     1       1.056   9.920  18.141  0.00  0.00    +0.000 C 
ATOM      5  C   UNL     1       0.051  10.563  19.095  0.00  0.00    +0.000 C 
ATOM      6  C   UNL     1       0.572  10.364  20.525  0.00  0.00    +0.000 C 
ATOM      7  C   UNL     1       0.897   8.893  20.824  0.00  0.00    +0.000 C 
BRANCH   5   8
ATOM      8  O   UNL     1      -1.247   9.947  19.015  0.00  0.00    +0.000 OA
BRANCH   8   9
ATOM      9  C   UNL     1      -2.044  10.294  17.958  0.00  0.00    +0.000 A 
ATOM     10  C   UNL     1      -1.946   9.760  16.674  0.00  0.00    +0.000 A 
ATOM     11  C   UNL     1      -2.853  10.125  15.678  0.00  0.00    +0.000 A 
ATOM     12  C   UNL     1      -3.855  11.049  15.954  0.00  0.00    +0.000 A 
ATOM     13  C   UNL     1      -3.958  11.594  17.232  0.00  0.00    +0.000 A 
ATOM     14  C   UNL     1      -3.065  11.206  18.234  0.00  0.00    +0.000 A 
ENDBRANCH   8   9
ENDBRANCH   5   8
ENDBRANCH   1   2
BRANCH   1  15
ATOM     15  C   UNL     1       2.623   6.068  18.958  0.00  0.00    +0.000 C 
BRANCH  15  27
ATOM     16  O   UNL     1       4.916   7.432  17.519  0.00  0.00    +0.000 OA
ATOM     17  C   UNL     1       4.766   6.220  17.726  0.00  0.00    +0.000 C 
ATOM     18  C   UNL     1       5.175   5.263  16.641  0.00  0.00    +0.000 A 
ATOM     19  C   UNL     1       5.916   5.884  15.599  0.00  0.00    +0.000 A 
ATOM     20  C   UNL     1       6.365   5.190  14.477  0.00  0.00    +0.000 A 
ATOM     21  C   UNL     1       6.082   3.847  14.358  0.00  0.00    +0.000 A 
ATOM     22  C   UNL     1       5.360   3.213  15.368  0.00  0.00    +0.000 A 
ATOM     23  C   UNL     1       4.897   3.890  16.533  0.00  0.00    +0.000 A 
ATOM     24  C   UNL     1       4.135   2.973  17.461  0.00  0.00    +0.000 C 
ATOM     25  C   UNL     1       3.761   3.302  18.893  0.00  0.00    +0.000 C 
ATOM     26  C   UNL     1       4.550   4.420  19.531  0.00  0.00    +0.000 C 
ATOM     27  C   UNL     1       4.139   5.798  19.033  0.00  0.00    +0.000 C 
ENDBRANCH  15  27
ENDBRANCH   1  15
TORSDOF 5
ENDMDL
MODEL 7
REMARK VINA RESULT:      -7.5      2.317      9.365
REMARK  Name = 
REMARK  5 active torsions:
REMARK  status: ('A' for Active; 'I' for Inactive)
REMARK    1  A    between atoms: C_12  and  C_13
REMARK    2  A    between atoms: C_13  and  C_14
REMARK    3  A    between atoms: C_14  and  N_15
REMARK    4  A    between atoms: C_18  and  O_19
REMARK    5  A    between atoms: O_19  and  C_20
REMARK                            x       y       z     vdW  Elec       q    Type
REMARK                         _______ _______ _______ _____ _____    ______ ____
ROOT
ATOM      1  C   UNL     1       2.188   6.984  20.103  0.00  0.00    +0.000 C 
ENDROOT
BRANCH   1   2
ATOM      2  N   UNL     1       1.837   8.377  19.780  0.00  0.00    +0.000 NA
ATOM      3  C   UNL     1       1.928   8.611  18.333  0.00  0.00    +0.000 C 
ATOM      4  C   UNL     1       1.597  10.054  17.994  0.00  0.00    +0.000 C 
ATOM      5  C   UNL     1       0.173  10.413  18.416  0.00  0.00    +0.000 C 
ATOM      6  C   UNL     1       0.044  10.121  19.917  0.00  0.00    +0.000 C 
ATOM      7  C   UNL     1       0.480   8.691  20.269  0.00  0.00    +0.000 C 
BRANCH   5   8
ATOM      8  O   UNL     1      -0.814   9.621  17.732  0.00  0.00    +0.000 OA
BRANCH   8   9
ATOM      9  C   UNL     1      -2.007  10.223  17.433  0.00  0.00    +0.000 A 
ATOM     10  C   UNL     1      -2.722  11.053  18.295  0.00  0.00    +0.000 A 
ATOM     11  C   UNL     1      -3.895  11.679  17.873  0.00  0.00    +0.000 A 
ATOM     12  C   UNL     1      -4.376  11.462  16.586  0.00  0.00    +0.000 A 
ATOM     13  C   UNL     1      -3.673  10.630  15.718  0.00  0.00    +0.000 A 
ATOM     14  C   UNL     1      -2.484  10.025  16.135  0.00  0.00    +0.000 A 
ENDBRANCH   8   9
ENDBRANCH   5   8
ENDBRANCH   1   2
BRANCH   1  15
ATOM     15  C   UNL     1       2.741   6.178  18.910  0.00  0.00    +0.000 C 
BRANCH  15  27
ATOM     16  O   UNL     1       5.236   7.375  17.674  0.00  0.00    +0.000 OA
ATOM     17  C   UNL     1       4.960   6.176  17.808  0.00  0.00    +0.000 C 
ATOM     18  C   UNL     1       5.340   5.235  16.699  0.00  0.00    +0.000 A 
ATOM     19  C   UNL     1       6.198   5.827  15.733  0.00  0.00    +0.000 A 
ATOM     20  C   UNL     1       6.646   5.146  14.603  0.00  0.00    +0.000 A 
ATOM     21  C   UNL     1       6.243   3.843  14.400  0.00  0.00    +0.000 A 
ATOM     22  C   UNL     1       5.405   3.237  15.333  0.00  0.00    +0.000 A 
ATOM     23  C   UNL     1       4.939   3.901  16.504  0.00  0.00    +0.000 A 
ATOM     24  C   UNL     1       4.039   3.022  17.339  0.00  0.00    +0.000 C 
ATOM     25  C   UNL     1       3.612   3.319  18.764  0.00  0.00    +0.000 C 
ATOM     26  C   UNL     1       4.464   4.323  19.502  0.00  0.00    +0.000 C 
ATOM     27  C   UNL     1       4.217   5.757  19.055  0.00  0.00    +0.000 C 
ENDBRANCH  15  27
ENDBRANCH   1  15
TORSDOF 5
ENDMDL
MODEL 8
REMARK VINA RESULT:      -7.5      1.722      9.300
REMARK  Name = 
REMARK  5 active torsions:
REMARK  status: ('A' for Active; 'I' for Inactive)
REMARK    1  A    between atoms: C_12  and  C_13
REMARK    2  A    between atoms: C_13  and  C_14
REMARK    3  A    between atoms: C_14  and  N_15
REMARK    4  A    between atoms: C_18  and  O_19
REMARK    5  A    between atoms: O_19  and  C_20
REMARK                            x       y       z     vdW  Elec       q    Type
REMARK                         _______ _______ _______ _____ _____    ______ ____
ROOT
ATOM      1  C   UNL     1       2.769   6.389  18.693  0.00  0.00    +0.000 C 
ENDROOT
BRANCH   1   2
ATOM      2  N   UNL     1       2.514   7.814  18.967  0.00  0.00    +0.000 NA
ATOM      3  C   UNL     1       2.190   8.529  17.727  0.00  0.00    +0.000 C 
ATOM      4  C   UNL     1       1.953  10.005  17.996  0.00  0.00    +0.000 C 
ATOM      5  C   UNL     1       0.781  10.216  18.953  0.00  0.00    +0.000 C 
ATOM      6  C   UNL     1       1.078   9.429  20.236  0.00  0.00    +0.000 C 
ATOM      7  C   UNL     1       1.419   7.959  19.948  0.00  0.00    +0.000 C 
BRANCH   5   8
ATOM      8  O   UNL     1      -0.458   9.721  18.415  0.00  0.00    +0.000 OA
BRANCH   8   9
ATOM      9  C   UNL     1      -1.578  10.482  18.614  0.00  0.00    +0.000 A 
ATOM     10  C   UNL     1      -1.678  11.537  19.520  0.00  0.00    +0.000 A 
ATOM     11  C   UNL     1      -2.843  12.301  19.599  0.00  0.00    +0.000 A 
ATOM     12  C   UNL     1      -3.930  12.000  18.786  0.00  0.00    +0.000 A 
ATOM     13  C   UNL     1      -3.844  10.943  17.882  0.00  0.00    +0.000 A 
ATOM     14  C   UNL     1      -2.666  10.197  17.786  0.00  0.00    +0.000 A 
ENDBRANCH   8   9
ENDBRANCH   5   8
ENDBRANCH   1   2
BRANCH   1  15
ATOM     15  C   UNL     1       2.957   5.525  19.956  0.00  0.00    +0.000 C 
BRANCH  15  27
ATOM     16  O   UNL     1       5.967   5.525  19.596  0.00  0.00    +0.000 OA
ATOM     17  C   UNL     1       5.134   4.827  19.003  0.00  0.00    +0.000 C 
ATOM     18  C   UNL     1       5.356   4.552  17.542  0.00  0.00    +0.000 A 
ATOM     19  C   UNL     1       6.646   4.941  17.090  0.00  0.00    +0.000 A 
ATOM     20  C   UNL     1       7.052   4.810  15.763  0.00  0.00    +0.000 A 
ATOM     21  C   UNL     1       6.174   4.284  14.840  0.00  0.00    +0.000 A 
ATOM     22  C   UNL     1       4.904   3.891  15.257  0.00  0.00    +0.000 A 
ATOM     23  C   UNL     1       4.462   4.001  16.607  0.00  0.00    +0.000 A 
ATOM     24  C   UNL     1       3.044   3.512  16.785  0.00  0.00    +0.000 C 
ATOM     25  C   UNL     1       2.383   3.233  18.121  0.00  0.00    +0.000 C 
ATOM     26  C   UNL     1       3.324   3.040  19.285  0.00  0.00    +0.000 C 
ATOM     27  C   UNL     1       3.933   4.344  19.781  0.00  0.00    +0.000 C 
ENDBRANCH  15  27
ENDBRANCH   1  15
TORSDOF 5
ENDMDL
MODEL 9
REMARK VINA RESULT:      -7.4      2.965      8.331
REMARK  Name = 
REMARK  5 active torsions:
REMARK  status: ('A' for Active; 'I' for Inactive)
REMARK    1  A    between atoms: C_12  and  C_13
REMARK    2  A    between atoms: C_13  and  C_14
REMARK    3  A    between atoms: C_14  and  N_15
REMARK    4  A    between atoms: C_18  and  O_19
REMARK    5  A    between atoms: O_19  and  C_20
REMARK                            x       y       z     vdW  Elec       q    Type
REMARK                         _______ _______ _______ _____ _____    ______ ____
ROOT
ATOM      1  C   UNL     1       3.346   2.339  17.872  0.00  0.00    +0.000 C 
ENDROOT
BRANCH   1   2
ATOM      2  N   UNL     1       2.490   2.805  18.976  0.00  0.00    +0.000 NA
ATOM      3  C   UNL     1       3.296   3.086  20.171  0.00  0.00    +0.000 C 
ATOM      4  C   UNL     1       2.418   3.539  21.325  0.00  0.00    +0.000 C 
ATOM      5  C   UNL     1       1.667   4.824  20.981  0.00  0.00    +0.000 C 
ATOM      6  C   UNL     1       0.861   4.565  19.701  0.00  0.00    +0.000 C 
ATOM      7  C   UNL     1       1.737   4.007  18.569  0.00  0.00    +0.000 C 
BRANCH   5   8
ATOM      8  O   UNL     1       2.556   5.924  20.721  0.00  0.00    +0.000 OA
BRANCH   8   9
ATOM      9  C   UNL     1       1.999   7.095  20.283  0.00  0.00    +0.000 A 
ATOM     10  C   UNL     1       1.172   7.920  21.044  0.00  0.00    +0.000 A 
ATOM     11  C   UNL     1       0.709   9.133  20.533  0.00  0.00    +0.000 A 
ATOM     12  C   UNL     1       1.054   9.521  19.243  0.00  0.00    +0.000 A 
ATOM     13  C   UNL     1       1.874   8.701  18.471  0.00  0.00    +0.000 A 
ATOM     14  C   UNL     1       2.358   7.500  18.996  0.00  0.00    +0.000 A 
ENDBRANCH   8   9
ENDBRANCH   5   8
ENDBRANCH   1   2
BRANCH   1  15
ATOM     15  C   UNL     1       3.943   3.470  17.012  0.00  0.00    +0.000 C 
BRANCH  15  27
ATOM     16  O   UNL     1       6.211   3.615  19.018  0.00  0.00    +0.000 OA
ATOM     17  C   UNL     1       6.160   4.134  17.895  0.00  0.00    +0.000 C 
ATOM     18  C   UNL     1       6.751   5.506  17.724  0.00  0.00    +0.000 A 
ATOM     19  C   UNL     1       7.516   5.929  18.845  0.00  0.00    +0.000 A 
ATOM     20  C   UNL     1       8.124   7.181  18.914  0.00  0.00    +0.000 A 
ATOM     21  C   UNL     1       7.981   8.057  17.860  0.00  0.00    +0.000 A 
ATOM     22  C   UNL     1       7.240   7.666  16.747  0.00  0.00    +0.000 A 
ATOM     23  C   UNL     1       6.615   6.390  16.639  0.00  0.00    +0.000 A 
ATOM     24  C   UNL     1       5.867   6.228  15.337  0.00  0.00    +0.000 C 
ATOM     25  C   UNL     1       5.341   4.913  14.795  0.00  0.00    +0.000 C 
ATOM     26  C   UNL     1       5.962   3.671  15.387  0.00  0.00    +0.000 C 
ATOM     27  C   UNL     1       5.466   3.369  16.793  0.00  0.00    +0.000 C 
ENDBRANCH  15  27
ENDBRANCH   1  15
TORSDOF 5
ENDMDL
