MODEL 1
REMARK VINA RESULT:      -7.8      0.000      0.000
REMARK  Name = 
REMARK  14 active torsions:
REMARK  status: ('A' for Active; 'I' for Inactive)
REMARK    1  A    between atoms: C_1  and  C_2
REMARK    2  A    between atoms: C_2  and  C_3
REMARK    3  A    between atoms: C_3  and  N_4
REMARK    4  A    between atoms: N_4  and  C_13
REMARK    5  A    between atoms: C_5  and  C_7
REMARK    6  A    between atoms: C_13  and  C_14
REMARK    7  A    between atoms: C_13  and  C_16
REMARK    8  A    between atoms: C_19  and  C_20
REMARK    9  A    between atoms: C_20  and  C_21
REMARK   10  A    between atoms: C_20  and  N_23
REMARK   11  A    between atoms: N_23  and  C_24
REMARK   12  A    between atoms: C_24  and  C_25
REMARK   13  A    between atoms: C_25  and  C_26
REMARK   14  A    between atoms: C_27  and  C_29
REMARK                            x       y       z     vdW  Elec       q    Type
REMARK                         _______ _______ _______ _____ _____    ______ ____
ROOT
ATOM      1  C   UNL     1       3.340   6.722  18.694  0.00  0.00    +0.000 A 
ATOM      2  C   UNL     1       2.960   7.768  17.817  0.00  0.00    +0.000 A 
ATOM      3  C   UNL     1       2.027   8.750  18.211  0.00  0.00    +0.000 A 
ATOM      4  C   UNL     1       1.401   8.668  19.463  0.00  0.00    +0.000 A 
ATOM      5  C   UNL     1       1.789   7.624  20.318  0.00  0.00    +0.000 A 
ATOM      6  C   UNL     1       2.694   6.650  19.929  0.00  0.00    +0.000 A 
ENDROOT
BRANCH   1   7
ATOM      7  C   UNL     1       4.429   5.692  18.387  0.00  0.00    +0.000 C 
BRANCH   7   8
ATOM      8  N   UNL     1       4.041   4.684  17.391  0.00  0.00    +0.000 N 
ATOM      9  C   UNL     1       3.092   3.643  17.572  0.00  0.00    +0.000 C 
ATOM     10  O   UNL     1       2.710   2.973  16.610  0.00  0.00    +0.000 OA
BRANCH   9  11
ATOM     11  C   UNL     1       2.491   3.280  18.903  0.00  0.00    +0.000 A 
ATOM     12  C   UNL     1       3.328   2.794  19.909  0.00  0.00    +0.000 A 
ATOM     13  C   UNL     1       2.850   2.618  21.222  0.00  0.00    +0.000 A 
ATOM     14  C   UNL     1       1.524   2.908  21.538  0.00  0.00    +0.000 A 
ATOM     15  C   UNL     1       0.680   3.387  20.553  0.00  0.00    +0.000 A 
ATOM     16  C   UNL     1       1.184   3.606  19.270  0.00  0.00    +0.000 A 
ENDBRANCH   9  11
BRANCH   8  17
ATOM     17  C   UNL     1       4.568   4.888  16.034  0.00  0.00    +0.000 C 
BRANCH  17  19
ATOM     18  C   UNL     1       6.064   4.010  14.121  0.00  0.00    +0.000 C 
ATOM     19  C   UNL     1       5.713   3.966  15.599  0.00  0.00    +0.000 C 
ENDBRANCH  17  19
ENDBRANCH   8  17
ENDBRANCH   7   8
BRANCH   7  20
ATOM     20  C   UNL     1       5.766   6.265  18.072  0.00  0.00    +0.000 C 
ATOM     21  N   UNL     1       6.807   6.705  17.796  0.00  0.00    +0.000 NA
ENDBRANCH   7  20
ENDBRANCH   1   7
BRANCH   4  22
ATOM     22  C   UNL     1       0.105   9.433  19.770  0.00  0.00    +0.000 C 
BRANCH  22  23
ATOM     23  N   UNL     1       0.108  10.891  19.329  0.00  0.00    +0.000 N 
ATOM     24  C   UNL     1       0.852  11.838  20.093  0.00  0.00    +0.000 C 
ATOM     25  O   UNL     1       1.566  11.514  21.040  0.00  0.00    +0.000 OA
BRANCH  24  26
ATOM     26  C   UNL     1       0.866  13.311  19.810  0.00  0.00    +0.000 A 
ATOM     27  C   UNL     1       0.005  14.241  20.401  0.00  0.00    +0.000 A 
ATOM     28  C   UNL     1       0.101  15.602  20.089  0.00  0.00    +0.000 A 
ATOM     29  C   UNL     1       1.117  16.060  19.254  0.00  0.00    +0.000 A 
ATOM     30  C   UNL     1       2.036  15.159  18.726  0.00  0.00    +0.000 A 
ATOM     31  C   UNL     1       1.905  13.793  18.992  0.00  0.00    +0.000 A 
ENDBRANCH  24  26
BRANCH  23  32
ATOM     32  C   UNL     1      -0.778  11.371  18.260  0.00  0.00    +0.000 C 
BRANCH  32  33
ATOM     33  C   UNL     1      -2.181  10.819  18.031  0.00  0.00    +0.000 C 
ATOM     34  C   UNL     1      -2.273   9.870  16.844  0.00  0.00    +0.000 C 
ENDBRANCH  32  33
ENDBRANCH  23  32
ENDBRANCH  22  23
BRANCH  22  35
ATOM     35  C   UNL     1      -0.042   9.279  21.276  0.00  0.00    +0.000 C 
ATOM     36  N   UNL     1      -0.164   9.151  22.524  0.00  0.00    +0.000 NA
ENDBRANCH  22  35
ENDBRANCH   4  22
TORSDOF 12
ENDMDL
MODEL 2
REMARK VINA RESULT:      -7.7      1.823      8.991
REMARK  Name = 
REMARK  14 active torsions:
REMARK  status: ('A' for Active; 'I' for Inactive)
REMARK    1  A    between atoms: C_1  and  C_2
REMARK    2  A    between atoms: C_2  and  C_3
REMARK    3  A    between atoms: C_3  and  N_4
REMARK    4  A    between atoms: N_4  and  C_13
REMARK    5  A    between atoms: C_5  and  C_7
REMARK    6  A    between atoms: C_13  and  C_14
REMARK    7  A    between atoms: C_13  and  C_16
REMARK    8  A    between atoms: C_19  and  C_20
REMARK    9  A    between atoms: C_20  and  C_21
REMARK   10  A    between atoms: C_20  and  N_23
REMARK   11  A    between atoms: N_23  and  C_24
REMARK   12  A    between atoms: C_24  and  C_25
REMARK   13  A    between atoms: C_25  and  C_26
REMARK   14  A    between atoms: C_27  and  C_29
REMARK                            x       y       z     vdW  Elec       q    Type
REMARK                         _______ _______ _______ _____ _____    ______ ____
ROOT
ATOM      1  C   UNL     1       1.049   9.695  20.322  0.00  0.00    +0.000 A 
ATOM      2  C   UNL     1       1.690   9.303  19.121  0.00  0.00    +0.000 A 
ATOM      3  C   UNL     1       2.136   7.978  18.928  0.00  0.00    +0.000 A 
ATOM      4  C   UNL     1       2.015   7.035  19.958  0.00  0.00    +0.000 A 
ATOM      5  C   UNL     1       1.378   7.442  21.142  0.00  0.00    +0.000 A 
ATOM      6  C   UNL     1       0.952   8.745  21.341  0.00  0.00    +0.000 A 
ENDROOT
BRANCH   1   7
ATOM      7  C   UNL     1       0.432  11.074  20.560  0.00  0.00    +0.000 C 
BRANCH   7   8
ATOM      8  N   UNL     1      -0.472  11.523  19.493  0.00  0.00    +0.000 N 
ATOM      9  C   UNL     1      -0.207  12.539  18.536  0.00  0.00    +0.000 C 
ATOM     10  O   UNL     1      -0.960  12.702  17.574  0.00  0.00    +0.000 OA
BRANCH   9  11
ATOM     11  C   UNL     1       0.972  13.471  18.611  0.00  0.00    +0.000 A 
ATOM     12  C   UNL     1       0.852  14.650  19.349  0.00  0.00    +0.000 A 
ATOM     13  C   UNL     1       1.977  15.459  19.603  0.00  0.00    +0.000 A 
ATOM     14  C   UNL     1       3.230  15.107  19.104  0.00  0.00    +0.000 A 
ATOM     15  C   UNL     1       3.366  13.944  18.368  0.00  0.00    +0.000 A 
ATOM     16  C   UNL     1       2.252  13.127  18.170  0.00  0.00    +0.000 A 
ENDBRANCH   9  11
BRANCH   8  17
ATOM     17  C   UNL     1      -1.689  10.721  19.305  0.00  0.00    +0.000 C 
BRANCH  17  19
ATOM     18  C   UNL     1      -3.116   9.810  17.355  0.00  0.00    +0.000 C 
ATOM     19  C   UNL     1      -1.757   9.870  18.031  0.00  0.00    +0.000 C 
ENDBRANCH  17  19
ENDBRANCH   8  17
ENDBRANCH   7   8
BRANCH   7  20
ATOM     20  C   UNL     1      -0.191  11.263  21.899  0.00  0.00    +0.000 C 
ATOM     21  N   UNL     1      -0.659  11.434  22.950  0.00  0.00    +0.000 NA
ENDBRANCH   7  20
ENDBRANCH   1   7
BRANCH   4  22
ATOM     22  C   UNL     1       2.841   5.740  19.969  0.00  0.00    +0.000 C 
BRANCH  22  23
ATOM     23  N   UNL     1       3.309   5.273  18.597  0.00  0.00    +0.000 N 
ATOM     24  C   UNL     1       4.684   5.421  18.254  0.00  0.00    +0.000 C 
ATOM     25  O   UNL     1       5.529   5.826  19.051  0.00  0.00    +0.000 OA
BRANCH  24  26
ATOM     26  C   UNL     1       5.250   5.078  16.908  0.00  0.00    +0.000 A 
ATOM     27  C   UNL     1       5.681   3.802  16.529  0.00  0.00    +0.000 A 
ATOM     28  C   UNL     1       6.181   3.569  15.244  0.00  0.00    +0.000 A 
ATOM     29  C   UNL     1       6.170   4.586  14.292  0.00  0.00    +0.000 A 
ATOM     30  C   UNL     1       5.664   5.838  14.625  0.00  0.00    +0.000 A 
ATOM     31  C   UNL     1       5.218   6.086  15.927  0.00  0.00    +0.000 A 
ENDBRANCH  24  26
BRANCH  23  32
ATOM     32  C   UNL     1       2.354   4.853  17.563  0.00  0.00    +0.000 C 
BRANCH  32  33
ATOM     33  C   UNL     1       1.613   3.520  17.606  0.00  0.00    +0.000 C 
ATOM     34  C   UNL     1       2.536   2.316  17.747  0.00  0.00    +0.000 C 
ENDBRANCH  32  33
ENDBRANCH  23  32
ENDBRANCH  22  23
BRANCH  22  35
ATOM     35  C   UNL     1       1.912   4.741  20.641  0.00  0.00    +0.000 C 
ATOM     36  N   UNL     1       1.142   3.913  21.198  0.00  0.00    +0.000 NA
ENDBRANCH  22  35
ENDBRANCH   4  22
TORSDOF 12
ENDMDL
MODEL 3
REMARK VINA RESULT:      -7.7      2.314      4.680
REMARK  Name = 
REMARK  14 active torsions:
REMARK  status: ('A' for Active; 'I' for Inactive)
REMARK    1  A    between atoms: C_1  and  C_2
REMARK    2  A    between atoms: C_2  and  C_3
REMARK    3  A    between atoms: C_3  and  N_4
REMARK    4  A    between atoms: N_4  and  C_13
REMARK    5  A    between atoms: C_5  and  C_7
REMARK    6  A    between atoms: C_13  and  C_14
REMARK    7  A    between atoms: C_13  and  C_16
REMARK    8  A    between atoms: C_19  and  C_20
REMARK    9  A    between atoms: C_20  and  C_21
REMARK   10  A    between atoms: C_20  and  N_23
REMARK   11  A    between atoms: N_23  and  C_24
REMARK   12  A    between atoms: C_24  and  C_25
REMARK   13  A    between atoms: C_25  and  C_26
REMARK   14  A    between atoms: C_27  and  C_29
REMARK                            x       y       z     vdW  Elec       q    Type
REMARK                         _______ _______ _______ _____ _____    ______ ____
ROOT
ATOM      1  C   UNL     1       2.313   6.952  18.568  0.00  0.00    +0.000 A 
ATOM      2  C   UNL     1       1.877   7.213  19.891  0.00  0.00    +0.000 A 
ATOM      3  C   UNL     1       1.378   8.481  20.259  0.00  0.00    +0.000 A 
ATOM      4  C   UNL     1       1.372   9.534  19.334  0.00  0.00    +0.000 A 
ATOM      5  C   UNL     1       1.809   9.256  18.028  0.00  0.00    +0.000 A 
ATOM      6  C   UNL     1       2.313   8.017  17.666  0.00  0.00    +0.000 A 
ENDROOT
BRANCH   1   7
ATOM      7  C   UNL     1       2.752   5.577  18.061  0.00  0.00    +0.000 C 
BRANCH   7   8
ATOM      8  N   UNL     1       3.772   4.925  18.895  0.00  0.00    +0.000 N 
ATOM      9  C   UNL     1       5.115   4.651  18.523  0.00  0.00    +0.000 C 
ATOM     10  O   UNL     1       5.931   4.271  19.366  0.00  0.00    +0.000 OA
BRANCH   9  11
ATOM     11  C   UNL     1       5.640   4.795  17.120  0.00  0.00    +0.000 A 
ATOM     12  C   UNL     1       6.864   5.437  16.923  0.00  0.00    +0.000 A 
ATOM     13  C   UNL     1       7.484   5.432  15.658  0.00  0.00    +0.000 A 
ATOM     14  C   UNL     1       6.877   4.801  14.573  0.00  0.00    +0.000 A 
ATOM     15  C   UNL     1       5.662   4.164  14.751  0.00  0.00    +0.000 A 
ATOM     16  C   UNL     1       5.087   4.133  16.022  0.00  0.00    +0.000 A 
ENDBRANCH   9  11
BRANCH   8  17
ATOM     17  C   UNL     1       3.400   4.694  20.299  0.00  0.00    +0.000 C 
BRANCH  17  19
ATOM     18  C   UNL     1       1.539   3.242  21.346  0.00  0.00    +0.000 C 
ATOM     19  C   UNL     1       2.888   3.292  20.649  0.00  0.00    +0.000 C 
ENDBRANCH  17  19
ENDBRANCH   8  17
ENDBRANCH   7   8
BRANCH   7  20
ATOM     20  C   UNL     1       1.642   4.637  17.747  0.00  0.00    +0.000 C 
ATOM     21  N   UNL     1       0.755   3.920  17.517  0.00  0.00    +0.000 NA
ENDBRANCH   7  20
ENDBRANCH   1   7
BRANCH   4  22
ATOM     22  C   UNL     1       1.249  10.999  19.777  0.00  0.00    +0.000 C 
BRANCH  22  23
ATOM     23  N   UNL     1      -0.180  11.502  19.924  0.00  0.00    +0.000 N 
ATOM     24  C   UNL     1      -0.636  11.910  21.212  0.00  0.00    +0.000 C 
ATOM     25  O   UNL     1       0.104  11.961  22.194  0.00  0.00    +0.000 OA
BRANCH  24  26
ATOM     26  C   UNL     1      -2.042  12.343  21.501  0.00  0.00    +0.000 A 
ATOM     27  C   UNL     1      -2.957  12.768  20.533  0.00  0.00    +0.000 A 
ATOM     28  C   UNL     1      -4.258  13.139  20.892  0.00  0.00    +0.000 A 
ATOM     29  C   UNL     1      -4.686  13.003  22.210  0.00  0.00    +0.000 A 
ATOM     30  C   UNL     1      -3.816  12.501  23.172  0.00  0.00    +0.000 A 
ATOM     31  C   UNL     1      -2.499  12.184  22.822  0.00  0.00    +0.000 A 
ENDBRANCH  24  26
BRANCH  23  32
ATOM     32  C   UNL     1      -1.147  11.399  18.823  0.00  0.00    +0.000 C 
BRANCH  32  33
ATOM     33  C   UNL     1      -1.812  10.087  18.418  0.00  0.00    +0.000 C 
ATOM     34  C   UNL     1      -2.029   9.955  16.916  0.00  0.00    +0.000 C 
ENDBRANCH  32  33
ENDBRANCH  23  32
ENDBRANCH  22  23
BRANCH  22  35
ATOM     35  C   UNL     1       2.026  11.752  18.709  0.00  0.00    +0.000 C 
ATOM     36  N   UNL     1       2.671  12.377  17.823  0.00  0.00    +0.000 NA
ENDBRANCH  22  35
ENDBRANCH   4  22
TORSDOF 12
ENDMDL
MODEL 4
REMARK VINA RESULT:      -7.6      2.235      4.591
REMARK  Name = 
REMARK  14 active torsions:
REMARK  status: ('A' for Active; 'I' for Inactive)
REMARK    1  A    between atoms: C_1  and  C_2
REMARK    2  A    between atoms: C_2  and  C_3
REMARK    3  A    between atoms: C_3  and  N_4
REMARK    4  A    between atoms: N_4  and  C_13
REMARK    5  A    between atoms: C_5  and  C_7
REMARK    6  A    between atoms: C_13  and  C_14
REMARK    7  A    between atoms: C_13  and  C_16
REMARK    8  A    between atoms: C_19  and  C_20
REMARK    9  A    between atoms: C_20  and  C_21
REMARK   10  A    between atoms: C_20  and  N_23
REMARK   11  A    between atoms: N_23  and  C_24
REMARK   12  A    between atoms: C_24  and  C_25
REMARK   13  A    between atoms: C_25  and  C_26
REMARK   14  A    between atoms: C_27  and  C_29
REMARK                            x       y       z     vdW  Elec       q    Type
REMARK                         _______ _______ _______ _____ _____    ______ ____
ROOT
ATOM      1  C   UNL     1       2.343   6.870  18.682  0.00  0.00    +0.000 A 
ATOM      2  C   UNL     1       1.949   7.117  20.020  0.00  0.00    +0.000 A 
ATOM      3  C   UNL     1       1.420   8.367  20.407  0.00  0.00    +0.000 A 
ATOM      4  C   UNL     1       1.340   9.418  19.483  0.00  0.00    +0.000 A 
ATOM      5  C   UNL     1       1.737   9.154  18.162  0.00  0.00    +0.000 A 
ATOM      6  C   UNL     1       2.270   7.934  17.781  0.00  0.00    +0.000 A 
ENDROOT
BRANCH   1   7
ATOM      7  C   UNL     1       2.811   5.512  18.158  0.00  0.00    +0.000 C 
BRANCH   7   8
ATOM      8  N   UNL     1       3.738   4.806  19.055  0.00  0.00    +0.000 N 
ATOM      9  C   UNL     1       5.099   4.500  18.788  0.00  0.00    +0.000 C 
ATOM     10  O   UNL     1       5.830   4.074  19.685  0.00  0.00    +0.000 OA
BRANCH   9  11
ATOM     11  C   UNL     1       5.744   4.664  17.439  0.00  0.00    +0.000 A 
ATOM     12  C   UNL     1       5.371   3.803  16.406  0.00  0.00    +0.000 A 
ATOM     13  C   UNL     1       5.804   4.031  15.085  0.00  0.00    +0.000 A 
ATOM     14  C   UNL     1       6.631   5.113  14.788  0.00  0.00    +0.000 A 
ATOM     15  C   UNL     1       7.014   5.974  15.801  0.00  0.00    +0.000 A 
ATOM     16  C   UNL     1       6.533   5.764  17.094  0.00  0.00    +0.000 A 
ENDBRANCH   9  11
BRANCH   8  17
ATOM     17  C   UNL     1       3.243   4.552  20.415  0.00  0.00    +0.000 C 
BRANCH  17  19
ATOM     18  C   UNL     1       1.558   2.992  21.597  0.00  0.00    +0.000 C 
ATOM     19  C   UNL     1       2.794   3.118  20.723  0.00  0.00    +0.000 C 
ENDBRANCH  17  19
ENDBRANCH   8  17
ENDBRANCH   7   8
BRANCH   7  20
ATOM     20  C   UNL     1       1.724   4.605  17.697  0.00  0.00    +0.000 C 
ATOM     21  N   UNL     1       0.855   3.920  17.339  0.00  0.00    +0.000 NA
ENDBRANCH   7  20
ENDBRANCH   1   7
BRANCH   4  22
ATOM     22  C   UNL     1       1.183  10.879  19.931  0.00  0.00    +0.000 C 
BRANCH  22  23
ATOM     23  N   UNL     1      -0.257  11.331  20.131  0.00  0.00    +0.000 N 
ATOM     24  C   UNL     1      -0.554  12.227  21.199  0.00  0.00    +0.000 C 
ATOM     25  O   UNL     1       0.317  12.724  21.911  0.00  0.00    +0.000 OA
BRANCH  24  26
ATOM     26  C   UNL     1      -1.941  12.678  21.549  0.00  0.00    +0.000 A 
ATOM     27  C   UNL     1      -2.653  12.255  22.675  0.00  0.00    +0.000 A 
ATOM     28  C   UNL     1      -3.940  12.742  22.931  0.00  0.00    +0.000 A 
ATOM     29  C   UNL     1      -4.492  13.727  22.117  0.00  0.00    +0.000 A 
ATOM     30  C   UNL     1      -3.762  14.223  21.041  0.00  0.00    +0.000 A 
ATOM     31  C   UNL     1      -2.500  13.694  20.752  0.00  0.00    +0.000 A 
ENDBRANCH  24  26
BRANCH  23  32
ATOM     32  C   UNL     1      -1.363  10.726  19.376  0.00  0.00    +0.000 C 
BRANCH  32  33
ATOM     33  C   UNL     1      -1.754  11.172  17.971  0.00  0.00    +0.000 C 
ATOM     34  C   UNL     1      -3.246  11.438  17.812  0.00  0.00    +0.000 C 
ENDBRANCH  32  33
ENDBRANCH  23  32
ENDBRANCH  22  23
BRANCH  22  35
ATOM     35  C   UNL     1       1.893  11.658  18.835  0.00  0.00    +0.000 C 
ATOM     36  N   UNL     1       2.482  12.303  17.927  0.00  0.00    +0.000 NA
ENDBRANCH  22  35
ENDBRANCH   4  22
TORSDOF 12
ENDMDL
MODEL 5
REMARK VINA RESULT:      -7.6      1.836      8.996
REMARK  Name = 
REMARK  14 active torsions:
REMARK  status: ('A' for Active; 'I' for Inactive)
REMARK    1  A    between atoms: C_1  and  C_2
REMARK    2  A    between atoms: C_2  and  C_3
REMARK    3  A    between atoms: C_3  and  N_4
REMARK    4  A    between atoms: N_4  and  C_13
REMARK    5  A    between atoms: C_5  and  C_7
REMARK    6  A    between atoms: C_13  and  C_14
REMARK    7  A    between atoms: C_13  and  C_16
REMARK    8  A    between atoms: C_19  and  C_20
REMARK    9  A    between atoms: C_20  and  C_21
REMARK   10  A    between atoms: C_20  and  N_23
REMARK   11  A    between atoms: N_23  and  C_24
REMARK   12  A    between atoms: C_24  and  C_25
REMARK   13  A    between atoms: C_25  and  C_26
REMARK   14  A    between atoms: C_27  and  C_29
REMARK                            x       y       z     vdW  Elec       q    Type
REMARK                         _______ _______ _______ _____ _____    ______ ____
ROOT
ATOM      1  C   UNL     1       1.048   9.667  20.359  0.00  0.00    +0.000 A 
ATOM      2  C   UNL     1       1.686   9.262  19.161  0.00  0.00    +0.000 A 
ATOM      3  C   UNL     1       2.111   7.930  18.972  0.00  0.00    +0.000 A 
ATOM      4  C   UNL     1       1.972   6.992  20.004  0.00  0.00    +0.000 A 
ATOM      5  C   UNL     1       1.339   7.411  21.185  0.00  0.00    +0.000 A 
ATOM      6  C   UNL     1       0.934   8.721  21.380  0.00  0.00    +0.000 A 
ENDROOT
BRANCH   1   7
ATOM      7  C   UNL     1       0.453  11.057  20.593  0.00  0.00    +0.000 C 
BRANCH   7   8
ATOM      8  N   UNL     1      -0.431  11.523  19.515  0.00  0.00    +0.000 N 
ATOM      9  C   UNL     1      -0.167  12.583  18.609  0.00  0.00    +0.000 C 
ATOM     10  O   UNL     1      -0.895  12.764  17.630  0.00  0.00    +0.000 OA
BRANCH   9  11
ATOM     11  C   UNL     1       0.982  13.544  18.757  0.00  0.00    +0.000 A 
ATOM     12  C   UNL     1       2.201  13.234  18.152  0.00  0.00    +0.000 A 
ATOM     13  C   UNL     1       3.243  14.181  18.104  0.00  0.00    +0.000 A 
ATOM     14  C   UNL     1       3.083  15.441  18.677  0.00  0.00    +0.000 A 
ATOM     15  C   UNL     1       1.882  15.763  19.284  0.00  0.00    +0.000 A 
ATOM     16  C   UNL     1       0.842  14.833  19.277  0.00  0.00    +0.000 A 
ENDBRANCH   9  11
BRANCH   8  17
ATOM     17  C   UNL     1      -1.618  10.695  19.258  0.00  0.00    +0.000 C 
BRANCH  17  19
ATOM     18  C   UNL     1      -3.068   9.728  17.353  0.00  0.00    +0.000 C 
ATOM     19  C   UNL     1      -1.675   9.984  17.901  0.00  0.00    +0.000 C 
ENDBRANCH  17  19
ENDBRANCH   8  17
ENDBRANCH   7   8
BRANCH   7  20
ATOM     20  C   UNL     1      -0.182  11.255  21.925  0.00  0.00    +0.000 C 
ATOM     21  N   UNL     1      -0.701  11.393  22.956  0.00  0.00    +0.000 NA
ENDBRANCH   7  20
ENDBRANCH   1   7
BRANCH   4  22
ATOM     22  C   UNL     1       2.777   5.683  20.020  0.00  0.00    +0.000 C 
BRANCH  22  23
ATOM     23  N   UNL     1       3.345   5.270  18.669  0.00  0.00    +0.000 N 
ATOM     24  C   UNL     1       4.691   5.621  18.354  0.00  0.00    +0.000 C 
ATOM     25  O   UNL     1       5.443   6.164  19.162  0.00  0.00    +0.000 OA
BRANCH  24  26
ATOM     26  C   UNL     1       5.336   5.345  17.029  0.00  0.00    +0.000 A 
ATOM     27  C   UNL     1       5.076   6.059  15.854  0.00  0.00    +0.000 A 
ATOM     28  C   UNL     1       5.738   5.742  14.664  0.00  0.00    +0.000 A 
ATOM     29  C   UNL     1       6.736   4.770  14.653  0.00  0.00    +0.000 A 
ATOM     30  C   UNL     1       7.069   4.110  15.832  0.00  0.00    +0.000 A 
ATOM     31  C   UNL     1       6.367   4.387  17.009  0.00  0.00    +0.000 A 
ENDBRANCH  24  26
BRANCH  23  32
ATOM     32  C   UNL     1       2.493   4.691  17.622  0.00  0.00    +0.000 C 
BRANCH  32  33
ATOM     33  C   UNL     1       2.719   3.299  17.040  0.00  0.00    +0.000 C 
ATOM     34  C   UNL     1       2.292   2.175  17.975  0.00  0.00    +0.000 C 
ENDBRANCH  32  33
ENDBRANCH  23  32
ENDBRANCH  22  23
BRANCH  22  35
ATOM     35  C   UNL     1       1.784   4.671  20.570  0.00  0.00    +0.000 C 
ATOM     36  N   UNL     1       0.962   3.832  21.027  0.00  0.00    +0.000 NA
ENDBRANCH  22  35
ENDBRANCH   4  22
TORSDOF 12
ENDMDL
MODEL 6
REMARK VINA RESULT:      -7.5      0.472      1.219
REMARK  Name = 
REMARK  14 active torsions:
REMARK  status: ('A' for Active; 'I' for Inactive)
REMARK    1  A    between atoms: C_1  and  C_2
REMARK    2  A    between atoms: C_2  and  C_3
REMARK    3  A    between atoms: C_3  and  N_4
REMARK    4  A    between atoms: N_4  and  C_13
REMARK    5  A    between atoms: C_5  and  C_7
REMARK    6  A    between atoms: C_13  and  C_14
REMARK    7  A    between atoms: C_13  and  C_16
REMARK    8  A    between atoms: C_19  and  C_20
REMARK    9  A    between atoms: C_20  and  C_21
REMARK   10  A    between atoms: C_20  and  N_23
REMARK   11  A    between atoms: N_23  and  C_24
REMARK   12  A    between atoms: C_24  and  C_25
REMARK   13  A    between atoms: C_25  and  C_26
REMARK   14  A    between atoms: C_27  and  C_29
REMARK                            x       y       z     vdW  Elec       q    Type
REMARK                         _______ _______ _______ _____ _____    ______ ____
ROOT
ATOM      1  C   UNL     1       3.385   6.937  18.461  0.00  0.00    +0.000 A 
ATOM      2  C   UNL     1       2.927   7.980  17.619  0.00  0.00    +0.000 A 
ATOM      3  C   UNL     1       1.964   8.911  18.064  0.00  0.00    +0.000 A 
ATOM      4  C   UNL     1       1.386   8.776  19.334  0.00  0.00    +0.000 A 
ATOM      5  C   UNL     1       1.852   7.735  20.155  0.00  0.00    +0.000 A 
ATOM      6  C   UNL     1       2.786   6.811  19.716  0.00  0.00    +0.000 A 
ENDROOT
BRANCH   1   7
ATOM      7  C   UNL     1       4.508   5.965  18.096  0.00  0.00    +0.000 C 
BRANCH   7   8
ATOM      8  N   UNL     1       4.087   4.852  17.233  0.00  0.00    +0.000 N 
ATOM      9  C   UNL     1       3.152   3.836  17.566  0.00  0.00    +0.000 C 
ATOM     10  O   UNL     1       2.735   3.064  16.700  0.00  0.00    +0.000 OA
BRANCH   9  11
ATOM     11  C   UNL     1       2.610   3.620  18.953  0.00  0.00    +0.000 A 
ATOM     12  C   UNL     1       1.235   3.743  19.165  0.00  0.00    +0.000 A 
ATOM     13  C   UNL     1       0.659   3.370  20.395  0.00  0.00    +0.000 A 
ATOM     14  C   UNL     1       1.456   2.888  21.433  0.00  0.00    +0.000 A 
ATOM     15  C   UNL     1       2.820   2.764  21.241  0.00  0.00    +0.000 A 
ATOM     16  C   UNL     1       3.367   3.088  19.999  0.00  0.00    +0.000 A 
ENDBRANCH   9  11
BRANCH   8  17
ATOM     17  C   UNL     1       4.556   4.908  15.841  0.00  0.00    +0.000 C 
BRANCH  17  19
ATOM     18  C   UNL     1       6.512   4.376  14.242  0.00  0.00    +0.000 C 
ATOM     19  C   UNL     1       5.716   3.977  15.473  0.00  0.00    +0.000 C 
ENDBRANCH  17  19
ENDBRANCH   8  17
ENDBRANCH   7   8
BRANCH   7  20
ATOM     20  C   UNL     1       5.748   6.603  17.574  0.00  0.00    +0.000 C 
ATOM     21  N   UNL     1       6.710   7.125  17.182  0.00  0.00    +0.000 NA
ENDBRANCH   7  20
ENDBRANCH   1   7
BRANCH   4  22
ATOM     22  C   UNL     1       0.068   9.474  19.701  0.00  0.00    +0.000 C 
BRANCH  22  23
ATOM     23  N   UNL     1      -0.010  10.939  19.292  0.00  0.00    +0.000 N 
ATOM     24  C   UNL     1       0.720  11.903  20.048  0.00  0.00    +0.000 C 
ATOM     25  O   UNL     1       1.483  11.593  20.961  0.00  0.00    +0.000 OA
BRANCH  24  26
ATOM     26  C   UNL     1       0.658  13.380  19.797  0.00  0.00    +0.000 A 
ATOM     27  C   UNL     1       1.499  14.073  18.922  0.00  0.00    +0.000 A 
ATOM     28  C   UNL     1       1.359  15.453  18.737  0.00  0.00    +0.000 A 
ATOM     29  C   UNL     1       0.317  16.140  19.354  0.00  0.00    +0.000 A 
ATOM     30  C   UNL     1      -0.584  15.451  20.160  0.00  0.00    +0.000 A 
ATOM     31  C   UNL     1      -0.408  14.083  20.390  0.00  0.00    +0.000 A 
ENDBRANCH  24  26
BRANCH  23  32
ATOM     32  C   UNL     1      -0.956  11.400  18.268  0.00  0.00    +0.000 C 
BRANCH  32  33
ATOM     33  C   UNL     1      -2.458  11.510  18.511  0.00  0.00    +0.000 C 
ATOM     34  C   UNL     1      -3.300  11.013  17.342  0.00  0.00    +0.000 C 
ENDBRANCH  32  33
ENDBRANCH  23  32
ENDBRANCH  22  23
BRANCH  22  35
ATOM     35  C   UNL     1      -0.020   9.283  21.207  0.00  0.00    +0.000 C 
ATOM     36  N   UNL     1      -0.093   9.124  22.456  0.00  0.00    +0.000 NA
ENDBRANCH  22  35
ENDBRANCH   4  22
TORSDOF 12
ENDMDL
MODEL 7
REMARK VINA RESULT:      -7.5      1.143      1.680
REMARK  Name = 
REMARK  14 active torsions:
REMARK  status: ('A' for Active; 'I' for Inactive)
REMARK    1  A    between atoms: C_1  and  C_2
REMARK    2  A    between atoms: C_2  and  C_3
REMARK    3  A    between atoms: C_3  and  N_4
REMARK    4  A    between atoms: N_4  and  C_13
REMARK    5  A    between atoms: C_5  and  C_7
REMARK    6  A    between atoms: C_13  and  C_14
REMARK    7  A    between atoms: C_13  and  C_16
REMARK    8  A    between atoms: C_19  and  C_20
REMARK    9  A    between atoms: C_20  and  C_21
REMARK   10  A    between atoms: C_20  and  N_23
REMARK   11  A    between atoms: N_23  and  C_24
REMARK   12  A    between atoms: C_24  and  C_25
REMARK   13  A    between atoms: C_25  and  C_26
REMARK   14  A    between atoms: C_27  and  C_29
REMARK                            x       y       z     vdW  Elec       q    Type
REMARK                         _______ _______ _______ _____ _____    ______ ____
ROOT
ATOM      1  C   UNL     1       3.348   6.741  18.701  0.00  0.00    +0.000 A 
ATOM      2  C   UNL     1       2.961   7.789  17.830  0.00  0.00    +0.000 A 
ATOM      3  C   UNL     1       2.042   8.779  18.239  0.00  0.00    +0.000 A 
ATOM      4  C   UNL     1       1.437   8.702  19.501  0.00  0.00    +0.000 A 
ATOM      5  C   UNL     1       1.832   7.656  20.350  0.00  0.00    +0.000 A 
ATOM      6  C   UNL     1       2.722   6.674  19.947  0.00  0.00    +0.000 A 
ENDROOT
BRANCH   1   7
ATOM      7  C   UNL     1       4.424   5.703  18.377  0.00  0.00    +0.000 C 
BRANCH   7   8
ATOM      8  N   UNL     1       4.023   4.715  17.365  0.00  0.00    +0.000 N 
ATOM      9  C   UNL     1       3.069   3.677  17.533  0.00  0.00    +0.000 C 
ATOM     10  O   UNL     1       2.676   3.027  16.561  0.00  0.00    +0.000 OA
BRANCH   9  11
ATOM     11  C   UNL     1       2.476   3.292  18.862  0.00  0.00    +0.000 A 
ATOM     12  C   UNL     1       3.322   2.811  19.862  0.00  0.00    +0.000 A 
ATOM     13  C   UNL     1       2.849   2.615  21.174  0.00  0.00    +0.000 A 
ATOM     14  C   UNL     1       1.519   2.881  21.494  0.00  0.00    +0.000 A 
ATOM     15  C   UNL     1       0.665   3.356  20.514  0.00  0.00    +0.000 A 
ATOM     16  C   UNL     1       1.164   3.594  19.232  0.00  0.00    +0.000 A 
ENDBRANCH   9  11
BRANCH   8  17
ATOM     17  C   UNL     1       4.541   4.943  16.008  0.00  0.00    +0.000 C 
BRANCH  17  19
ATOM     18  C   UNL     1       6.806   4.657  14.802  0.00  0.00    +0.000 C 
ATOM     19  C   UNL     1       5.649   3.996  15.532  0.00  0.00    +0.000 C 
ENDBRANCH  17  19
ENDBRANCH   8  17
ENDBRANCH   7   8
BRANCH   7  20
ATOM     20  C   UNL     1       5.768   6.264  18.069  0.00  0.00    +0.000 C 
ATOM     21  N   UNL     1       6.805   6.727  17.818  0.00  0.00    +0.000 NA
ENDBRANCH   7  20
ENDBRANCH   1   7
BRANCH   4  22
ATOM     22  C   UNL     1       0.152   9.477  19.829  0.00  0.00    +0.000 C 
BRANCH  22  23
ATOM     23  N   UNL     1       0.328  10.987  19.927  0.00  0.00    +0.000 N 
ATOM     24  C   UNL     1       0.260  11.765  18.734  0.00  0.00    +0.000 C 
ATOM     25  O   UNL     1      -0.025  11.280  17.640  0.00  0.00    +0.000 OA
BRANCH  24  26
ATOM     26  C   UNL     1       0.499  13.244  18.688  0.00  0.00    +0.000 A 
ATOM     27  C   UNL     1      -0.484  14.215  18.902  0.00  0.00    +0.000 A 
ATOM     28  C   UNL     1      -0.166  15.577  18.856  0.00  0.00    +0.000 A 
ATOM     29  C   UNL     1       1.155  15.983  18.688  0.00  0.00    +0.000 A 
ATOM     30  C   UNL     1       2.160  15.030  18.560  0.00  0.00    +0.000 A 
ATOM     31  C   UNL     1       1.833  13.670  18.549  0.00  0.00    +0.000 A 
ENDBRANCH  24  26
BRANCH  23  32
ATOM     32  C   UNL     1       0.748  11.631  21.178  0.00  0.00    +0.000 C 
BRANCH  32  33
ATOM     33  C   UNL     1      -0.131  12.616  21.943  0.00  0.00    +0.000 C 
ATOM     34  C   UNL     1      -1.107  11.943  22.899  0.00  0.00    +0.000 C 
ENDBRANCH  32  33
ENDBRANCH  23  32
ENDBRANCH  22  23
BRANCH  22  35
ATOM     35  C   UNL     1      -0.304   8.856  21.141  0.00  0.00    +0.000 C 
ATOM     36  N   UNL     1      -0.682   8.341  22.227  0.00  0.00    +0.000 NA
ENDBRANCH  22  35
ENDBRANCH   4  22
TORSDOF 12
ENDMDL
MODEL 8
REMARK VINA RESULT:      -7.4      2.202      9.075
REMARK  Name = 
REMARK  14 active torsions:
REMARK  status: ('A' for Active; 'I' for Inactive)
REMARK    1  A    between atoms: C_1  and  C_2
REMARK    2  A    between atoms: C_2  and  C_3
REMARK    3  A    between atoms: C_3  and  N_4
REMARK    4  A    between atoms: N_4  and  C_13
REMARK    5  A    between atoms: C_5  and  C_7
REMARK    6  A    between atoms: C_13  and  C_14
REMARK    7  A    between atoms: C_13  and  C_16
REMARK    8  A    between atoms: C_19  and  C_20
REMARK    9  A    between atoms: C_20  and  C_21
REMARK   10  A    between atoms: C_20  and  N_23
REMARK   11  A    between atoms: N_23  and  C_24
REMARK   12  A    between atoms: C_24  and  C_25
REMARK   13  A    between atoms: C_25  and  C_26
REMARK   14  A    between atoms: C_27  and  C_29
REMARK                            x       y       z     vdW  Elec       q    Type
REMARK                         _______ _______ _______ _____ _____    ______ ____
ROOT
ATOM      1  C   UNL     1       0.689   9.621  19.733  0.00  0.00    +0.000 A 
ATOM      2  C   UNL     1       1.341   9.212  18.543  0.00  0.00    +0.000 A 
ATOM      3  C   UNL     1       2.018   7.976  18.469  0.00  0.00    +0.000 A 
ATOM      4  C   UNL     1       2.118   7.156  19.601  0.00  0.00    +0.000 A 
ATOM      5  C   UNL     1       1.465   7.578  20.771  0.00  0.00    +0.000 A 
ATOM      6  C   UNL     1       0.813   8.797  20.853  0.00  0.00    +0.000 A 
ENDROOT
BRANCH   1   7
ATOM      7  C   UNL     1      -0.164  10.885  19.857  0.00  0.00    +0.000 C 
BRANCH   7   8
ATOM      8  N   UNL     1       0.572  12.064  20.335  0.00  0.00    +0.000 N 
ATOM      9  C   UNL     1       0.147  12.972  21.341  0.00  0.00    +0.000 C 
ATOM     10  O   UNL     1       0.926  13.814  21.791  0.00  0.00    +0.000 OA
BRANCH   9  11
ATOM     11  C   UNL     1      -1.241  12.985  21.923  0.00  0.00    +0.000 A 
ATOM     12  C   UNL     1      -2.269  13.591  21.200  0.00  0.00    +0.000 A 
ATOM     13  C   UNL     1      -3.610  13.467  21.611  0.00  0.00    +0.000 A 
ATOM     14  C   UNL     1      -3.935  12.750  22.762  0.00  0.00    +0.000 A 
ATOM     15  C   UNL     1      -2.928  12.146  23.493  0.00  0.00    +0.000 A 
ATOM     16  C   UNL     1      -1.610  12.235  23.042  0.00  0.00    +0.000 A 
ENDBRANCH   9  11
BRANCH   8  17
ATOM     17  C   UNL     1       1.948  12.206  19.836  0.00  0.00    +0.000 C 
BRANCH  17  19
ATOM     18  C   UNL     1       3.065  14.165  18.579  0.00  0.00    +0.000 C 
ATOM     19  C   UNL     1       2.123  12.975  18.521  0.00  0.00    +0.000 C 
ENDBRANCH  17  19
ENDBRANCH   8  17
ENDBRANCH   7   8
BRANCH   7  20
ATOM     20  C   UNL     1      -0.977  11.217  18.655  0.00  0.00    +0.000 C 
ATOM     21  N   UNL     1      -1.609  11.506  17.723  0.00  0.00    +0.000 NA
ENDBRANCH   7  20
ENDBRANCH   1   7
BRANCH   4  22
ATOM     22  C   UNL     1       3.170   6.041  19.702  0.00  0.00    +0.000 C 
BRANCH  22  23
ATOM     23  N   UNL     1       3.567   5.420  18.369  0.00  0.00    +0.000 N 
ATOM     24  C   UNL     1       4.846   5.731  17.821  0.00  0.00    +0.000 C 
ATOM     25  O   UNL     1       5.680   6.407  18.421  0.00  0.00    +0.000 OA
BRANCH  24  26
ATOM     26  C   UNL     1       5.318   5.250  16.481  0.00  0.00    +0.000 A 
ATOM     27  C   UNL     1       5.204   5.976  15.292  0.00  0.00    +0.000 A 
ATOM     28  C   UNL     1       5.688   5.455  14.087  0.00  0.00    +0.000 A 
ATOM     29  C   UNL     1       6.375   4.244  14.073  0.00  0.00    +0.000 A 
ATOM     30  C   UNL     1       6.574   3.549  15.262  0.00  0.00    +0.000 A 
ATOM     31  C   UNL     1       6.040   4.042  16.456  0.00  0.00    +0.000 A 
ENDBRANCH  24  26
BRANCH  23  32
ATOM     32  C   UNL     1       2.603   4.668  17.555  0.00  0.00    +0.000 C 
BRANCH  32  33
ATOM     33  C   UNL     1       2.516   3.145  17.564  0.00  0.00    +0.000 C 
ATOM     34  C   UNL     1       3.563   2.482  18.449  0.00  0.00    +0.000 C 
ENDBRANCH  32  33
ENDBRANCH  23  32
ENDBRANCH  22  23
BRANCH  22  35
ATOM     35  C   UNL     1       2.524   5.037  20.645  0.00  0.00    +0.000 C 
ATOM     36  N   UNL     1       1.990   4.205  21.427  0.00  0.00    +0.000 NA
ENDBRANCH  22  35
ENDBRANCH   4  22
TORSDOF 12
ENDMDL
MODEL 9
REMARK VINA RESULT:      -7.4      1.209      2.094
REMARK  Name = 
REMARK  14 active torsions:
REMARK  status: ('A' for Active; 'I' for Inactive)
REMARK    1  A    between atoms: C_1  and  C_2
REMARK    2  A    between atoms: C_2  and  C_3
REMARK    3  A    between atoms: C_3  and  N_4
REMARK    4  A    between atoms: N_4  and  C_13
REMARK    5  A    between atoms: C_5  and  C_7
REMARK    6  A    between atoms: C_13  and  C_14
REMARK    7  A    between atoms: C_13  and  C_16
REMARK    8  A    between atoms: C_19  and  C_20
REMARK    9  A    between atoms: C_20  and  C_21
REMARK   10  A    between atoms: C_20  and  N_23
REMARK   11  A    between atoms: N_23  and  C_24
REMARK   12  A    between atoms: C_24  and  C_25
REMARK   13  A    between atoms: C_25  and  C_26
REMARK   14  A    between atoms: C_27  and  C_29
REMARK                            x       y       z     vdW  Elec       q    Type
REMARK                         _______ _______ _______ _____ _____    ______ ____
ROOT
ATOM      1  C   UNL     1       3.463   6.930  18.419  0.00  0.00    +0.000 A 
ATOM      2  C   UNL     1       3.053   7.907  17.479  0.00  0.00    +0.000 A 
ATOM      3  C   UNL     1       2.147   8.929  17.835  0.00  0.00    +0.000 A 
ATOM      4  C   UNL     1       1.578   8.955  19.116  0.00  0.00    +0.000 A 
ATOM      5  C   UNL     1       1.996   7.977  20.033  0.00  0.00    +0.000 A 
ATOM      6  C   UNL     1       2.873   6.964  19.684  0.00  0.00    +0.000 A 
ENDROOT
BRANCH   1   7
ATOM      7  C   UNL     1       4.527   5.866  18.148  0.00  0.00    +0.000 C 
BRANCH   7   8
ATOM      8  N   UNL     1       4.083   4.781  17.261  0.00  0.00    +0.000 N 
ATOM      9  C   UNL     1       3.128   3.777  17.572  0.00  0.00    +0.000 C 
ATOM     10  O   UNL     1       2.695   3.032  16.689  0.00  0.00    +0.000 OA
BRANCH   9  11
ATOM     11  C   UNL     1       2.580   3.542  18.954  0.00  0.00    +0.000 A 
ATOM     12  C   UNL     1       1.210   3.699  19.171  0.00  0.00    +0.000 A 
ATOM     13  C   UNL     1       0.625   3.312  20.392  0.00  0.00    +0.000 A 
ATOM     14  C   UNL     1       1.408   2.783  21.416  0.00  0.00    +0.000 A 
ATOM     15  C   UNL     1       2.768   2.624  21.220  0.00  0.00    +0.000 A 
ATOM     16  C   UNL     1       3.323   2.963  19.985  0.00  0.00    +0.000 A 
ENDBRANCH   9  11
BRANCH   8  17
ATOM     17  C   UNL     1       4.554   4.857  15.870  0.00  0.00    +0.000 C 
BRANCH  17  19
ATOM     18  C   UNL     1       6.105   3.940  14.021  0.00  0.00    +0.000 C 
ATOM     19  C   UNL     1       5.709   3.925  15.488  0.00  0.00    +0.000 C 
ENDBRANCH  17  19
ENDBRANCH   8  17
ENDBRANCH   7   8
BRANCH   7  20
ATOM     20  C   UNL     1       5.851   6.394  17.719  0.00  0.00    +0.000 C 
ATOM     21  N   UNL     1       6.898   6.781  17.392  0.00  0.00    +0.000 NA
ENDBRANCH   7  20
ENDBRANCH   1   7
BRANCH   4  22
ATOM     22  C   UNL     1       0.304   9.758  19.418  0.00  0.00    +0.000 C 
BRANCH  22  23
ATOM     23  N   UNL     1       0.520  11.257  19.576  0.00  0.00    +0.000 N 
ATOM     24  C   UNL     1      -0.617  12.117  19.596  0.00  0.00    +0.000 C 
ATOM     25  O   UNL     1      -1.771  11.692  19.582  0.00  0.00    +0.000 OA
BRANCH  24  26
ATOM     26  C   UNL     1      -0.531  13.612  19.662  0.00  0.00    +0.000 A 
ATOM     27  C   UNL     1      -0.415  14.452  18.550  0.00  0.00    +0.000 A 
ATOM     28  C   UNL     1      -0.357  15.841  18.705  0.00  0.00    +0.000 A 
ATOM     29  C   UNL     1      -0.507  16.412  19.966  0.00  0.00    +0.000 A 
ATOM     30  C   UNL     1      -0.710  15.596  21.074  0.00  0.00    +0.000 A 
ATOM     31  C   UNL     1      -0.710  14.206  20.926  0.00  0.00    +0.000 A 
ENDBRANCH  24  26
BRANCH  23  32
ATOM     32  C   UNL     1       1.864  11.849  19.520  0.00  0.00    +0.000 C 
BRANCH  32  33
ATOM     33  C   UNL     1       2.476  12.404  18.238  0.00  0.00    +0.000 C 
ATOM     34  C   UNL     1       3.146  13.759  18.423  0.00  0.00    +0.000 C 
ENDBRANCH  32  33
ENDBRANCH  23  32
ENDBRANCH  22  23
BRANCH  22  35
ATOM     35  C   UNL     1      -0.225   9.107  20.687  0.00  0.00    +0.000 C 
ATOM     36  N   UNL     1      -0.664   8.567  21.738  0.00  0.00    +0.000 NA
ENDBRANCH  22  35
ENDBRANCH   4  22
TORSDOF 12
ENDMDL
