MODEL 1
REMARK VINA RESULT:      -6.2      0.000      0.000
REMARK  Name = 
REMARK  10 active torsions:
REMARK  status: ('A' for Active; 'I' for Inactive)
REMARK    1  A    between atoms: C_1  and  O_2
REMARK    2  A    between atoms: O_2  and  C_3
REMARK    3  A    between atoms: C_3  and  C_4
REMARK    4  A    between atoms: C_4  and  O_5
REMARK    5  A    between atoms: O_5  and  C_6
REMARK    6  A    between atoms: C_6  and  C_7
REMARK    7  A    between atoms: C_7  and  N_8
REMARK    8  A    between atoms: C_9  and  C_11
REMARK    9  A    between atoms: C_14  and  N_15
REMARK   10  A    between atoms: C_18  and  C_19
REMARK                            x       y       z     vdW  Elec       q    Type
REMARK                         _______ _______ _______ _____ _____    ______ ____
ROOT
ATOM      1  C   UNL     1       2.666   7.195  18.867  0.00  0.00    +0.000 A 
ATOM      2  C   UNL     1       2.192   7.190  20.177  0.00  0.00    +0.000 A 
ATOM      3  C   UNL     1       1.341   8.205  20.614  0.00  0.00    +0.000 A 
ATOM      4  C   UNL     1       0.954   9.266  19.777  0.00  0.00    +0.000 A 
ATOM      5  C   UNL     1       1.433   9.250  18.458  0.00  0.00    +0.000 A 
ATOM      6  C   UNL     1       2.284   8.230  18.005  0.00  0.00    +0.000 A 
ENDROOT
BRANCH   4   7
ATOM      7  N   UNL     1       0.105  10.258  20.249  0.00  0.00    +0.000 N 
ATOM      8  C   UNL     1      -0.845  10.954  19.397  0.00  0.00    +0.000 C 
ATOM      9  C   UNL     1      -1.419  12.009  20.306  0.00  0.00    +0.000 C 
ATOM     10  C   UNL     1      -0.933  11.488  21.629  0.00  0.00    +0.000 C 
ATOM     11  C   UNL     1      -1.355  12.144  22.901  0.00  0.00    +0.000 C 
ATOM     12  N   UNL     1      -0.093  10.509  21.575  0.00  0.00    +0.000 NA
ENDBRANCH   4   7
BRANCH   1  14
ATOM     13  N   UNL     1       4.101   5.308  19.430  0.00  0.00    +0.000 N 
ATOM     14  C   UNL     1       3.534   6.063  18.433  0.00  0.00    +0.000 C 
ATOM     15  O   UNL     1       3.760   5.882  17.238  0.00  0.00    +0.000 OA
ATOM     16  H   UNL     1       3.825   5.436  20.395  0.00  0.00    +0.000 HD
BRANCH  13  17
ATOM     17  C   UNL     1       4.973   4.187  19.122  0.00  0.00    +0.000 C 
BRANCH  17  18
ATOM     18  C   UNL     1       4.278   2.834  19.275  0.00  0.00    +0.000 C 
BRANCH  18  19
ATOM     19  O   UNL     1       3.849   2.352  17.994  0.00  0.00    +0.000 OA
BRANCH  19  20
ATOM     20  C   UNL     1       2.431   2.468  17.850  0.00  0.00    +0.000 C 
BRANCH  20  21
ATOM     21  C   UNL     1       1.739   1.998  19.125  0.00  0.00    +0.000 C 
BRANCH  21  23
ATOM     22  C   UNL     1       0.929   3.801  20.404  0.00  0.00    +0.000 C 
ATOM     23  O   UNL     1       0.624   2.849  19.394  0.00  0.00    +0.000 OA
ENDBRANCH  21  23
ENDBRANCH  20  21
ENDBRANCH  19  20
ENDBRANCH  18  19
ENDBRANCH  17  18
ENDBRANCH  13  17
ENDBRANCH   1  14
TORSDOF 8
ENDMDL
MODEL 2
REMARK VINA RESULT:      -6.0      2.061      3.528
REMARK  Name = 
REMARK  10 active torsions:
REMARK  status: ('A' for Active; 'I' for Inactive)
REMARK    1  A    between atoms: C_1  and  O_2
REMARK    2  A    between atoms: O_2  and  C_3
REMARK    3  A    between atoms: C_3  and  C_4
REMARK    4  A    between atoms: C_4  and  O_5
REMARK    5  A    between atoms: O_5  and  C_6
REMARK    6  A    between atoms: C_6  and  C_7
REMARK    7  A    between atoms: C_7  and  N_8
REMARK    8  A    between atoms: C_9  and  C_11
REMARK    9  A    between atoms: C_14  and  N_15
REMARK   10  A    between atoms: C_18  and  C_19
REMARK                            x       y       z     vdW  Elec       q    Type
REMARK                         _______ _______ _______ _____ _____    ______ ____
ROOT
ATOM      1  C   UNL     1       2.444   7.595  18.576  0.00  0.00    +0.000 A 
ATOM      2  C   UNL     1       2.068   8.658  17.759  0.00  0.00    +0.000 A 
ATOM      3  C   UNL     1       1.297   9.697  18.278  0.00  0.00    +0.000 A 
ATOM      4  C   UNL     1       0.855   9.703  19.613  0.00  0.00    +0.000 A 
ATOM      5  C   UNL     1       1.251   8.629  20.423  0.00  0.00    +0.000 A 
ATOM      6  C   UNL     1       2.033   7.581  19.914  0.00  0.00    +0.000 A 
ENDROOT
BRANCH   4   7
ATOM      7  N   UNL     1       0.087  10.755  20.093  0.00  0.00    +0.000 N 
ATOM      8  C   UNL     1       0.636  11.818  20.918  0.00  0.00    +0.000 C 
ATOM      9  C   UNL     1      -0.579  12.624  21.299  0.00  0.00    +0.000 C 
ATOM     10  C   UNL     1      -1.568  12.061  20.319  0.00  0.00    +0.000 C 
ATOM     11  C   UNL     1      -2.941  12.638  20.213  0.00  0.00    +0.000 C 
ATOM     12  N   UNL     1      -1.175  11.027  19.652  0.00  0.00    +0.000 NA
ENDBRANCH   4   7
BRANCH   1  14
ATOM     13  N   UNL     1       3.202   5.279  18.537  0.00  0.00    +0.000 N 
ATOM     14  C   UNL     1       3.310   6.532  17.987  0.00  0.00    +0.000 C 
ATOM     15  O   UNL     1       4.111   6.814  17.098  0.00  0.00    +0.000 OA
ATOM     16  H   UNL     1       2.474   5.069  19.207  0.00  0.00    +0.000 HD
BRANCH  13  17
ATOM     17  C   UNL     1       4.006   4.171  18.047  0.00  0.00    +0.000 C 
BRANCH  17  18
ATOM     18  C   UNL     1       5.087   3.737  19.038  0.00  0.00    +0.000 C 
BRANCH  18  19
ATOM     19  O   UNL     1       6.065   4.775  19.186  0.00  0.00    +0.000 OA
BRANCH  19  20
ATOM     20  C   UNL     1       7.029   4.727  18.132  0.00  0.00    +0.000 C 
BRANCH  20  21
ATOM     21  C   UNL     1       7.454   6.142  17.751  0.00  0.00    +0.000 C 
BRANCH  21  23
ATOM     22  C   UNL     1       6.973   5.079  15.705  0.00  0.00    +0.000 C 
ATOM     23  O   UNL     1       7.378   6.289  16.333  0.00  0.00    +0.000 OA
ENDBRANCH  21  23
ENDBRANCH  20  21
ENDBRANCH  19  20
ENDBRANCH  18  19
ENDBRANCH  17  18
ENDBRANCH  13  17
ENDBRANCH   1  14
TORSDOF 8
ENDMDL
MODEL 3
REMARK VINA RESULT:      -6.0      1.353      1.839
REMARK  Name = 
REMARK  10 active torsions:
REMARK  status: ('A' for Active; 'I' for Inactive)
REMARK    1  A    between atoms: C_1  and  O_2
REMARK    2  A    between atoms: O_2  and  C_3
REMARK    3  A    between atoms: C_3  and  C_4
REMARK    4  A    between atoms: C_4  and  O_5
REMARK    5  A    between atoms: O_5  and  C_6
REMARK    6  A    between atoms: C_6  and  C_7
REMARK    7  A    between atoms: C_7  and  N_8
REMARK    8  A    between atoms: C_9  and  C_11
REMARK    9  A    between atoms: C_14  and  N_15
REMARK   10  A    between atoms: C_18  and  C_19
REMARK                            x       y       z     vdW  Elec       q    Type
REMARK                         _______ _______ _______ _____ _____    ______ ____
ROOT
ATOM      1  C   UNL     1       2.646   7.221  18.656  0.00  0.00    +0.000 A 
ATOM      2  C   UNL     1       2.166   7.286  19.963  0.00  0.00    +0.000 A 
ATOM      3  C   UNL     1       1.394   8.375  20.368  0.00  0.00    +0.000 A 
ATOM      4  C   UNL     1       1.098   9.442  19.503  0.00  0.00    +0.000 A 
ATOM      5  C   UNL     1       1.582   9.356  18.189  0.00  0.00    +0.000 A 
ATOM      6  C   UNL     1       2.352   8.261  17.767  0.00  0.00    +0.000 A 
ENDROOT
BRANCH   4   7
ATOM      7  N   UNL     1       0.327  10.509  19.944  0.00  0.00    +0.000 N 
ATOM      8  C   UNL     1       0.852  11.560  20.799  0.00  0.00    +0.000 C 
ATOM      9  C   UNL     1      -0.365  12.390  21.117  0.00  0.00    +0.000 C 
ATOM     10  C   UNL     1      -1.311  11.848  20.084  0.00  0.00    +0.000 C 
ATOM     11  C   UNL     1      -2.664  12.453  19.906  0.00  0.00    +0.000 C 
ATOM     12  N   UNL     1      -0.904  10.807  19.437  0.00  0.00    +0.000 NA
ENDBRANCH   4   7
BRANCH   1  14
ATOM     13  N   UNL     1       2.717   4.991  17.675  0.00  0.00    +0.000 N 
ATOM     14  C   UNL     1       3.425   6.013  18.257  0.00  0.00    +0.000 C 
ATOM     15  O   UNL     1       4.626   5.945  18.509  0.00  0.00    +0.000 OA
ATOM     16  H   UNL     1       1.749   5.120  17.410  0.00  0.00    +0.000 HD
BRANCH  13  17
ATOM     17  C   UNL     1       3.372   3.764  17.257  0.00  0.00    +0.000 C 
BRANCH  17  18
ATOM     18  C   UNL     1       2.531   2.516  17.532  0.00  0.00    +0.000 C 
BRANCH  18  19
ATOM     19  O   UNL     1       1.256   2.890  18.072  0.00  0.00    +0.000 OA
BRANCH  19  20
ATOM     20  C   UNL     1       1.158   2.532  19.452  0.00  0.00    +0.000 C 
BRANCH  20  21
ATOM     21  C   UNL     1       0.873   3.773  20.292  0.00  0.00    +0.000 C 
BRANCH  21  23
ATOM     22  C   UNL     1       2.681   2.728  21.381  0.00  0.00    +0.000 C 
ATOM     23  O   UNL     1       1.692   3.747  21.461  0.00  0.00    +0.000 OA
ENDBRANCH  21  23
ENDBRANCH  20  21
ENDBRANCH  19  20
ENDBRANCH  18  19
ENDBRANCH  17  18
ENDBRANCH  13  17
ENDBRANCH   1  14
TORSDOF 8
ENDMDL
MODEL 4
REMARK VINA RESULT:      -6.0      1.188      1.822
REMARK  Name = 
REMARK  10 active torsions:
REMARK  status: ('A' for Active; 'I' for Inactive)
REMARK    1  A    between atoms: C_1  and  O_2
REMARK    2  A    between atoms: O_2  and  C_3
REMARK    3  A    between atoms: C_3  and  C_4
REMARK    4  A    between atoms: C_4  and  O_5
REMARK    5  A    between atoms: O_5  and  C_6
REMARK    6  A    between atoms: C_6  and  C_7
REMARK    7  A    between atoms: C_7  and  N_8
REMARK    8  A    between atoms: C_9  and  C_11
REMARK    9  A    between atoms: C_14  and  N_15
REMARK   10  A    between atoms: C_18  and  C_19
REMARK                            x       y       z     vdW  Elec       q    Type
REMARK                         _______ _______ _______ _____ _____    ______ ____
ROOT
ATOM      1  C   UNL     1       2.423   7.469  18.733  0.00  0.00    +0.000 A 
ATOM      2  C   UNL     1       1.941   8.630  18.133  0.00  0.00    +0.000 A 
ATOM      3  C   UNL     1       1.189   9.538  18.878  0.00  0.00    +0.000 A 
ATOM      4  C   UNL     1       0.869   9.311  20.228  0.00  0.00    +0.000 A 
ATOM      5  C   UNL     1       1.369   8.141  20.817  0.00  0.00    +0.000 A 
ATOM      6  C   UNL     1       2.135   7.224  20.080  0.00  0.00    +0.000 A 
ENDROOT
BRANCH   4   7
ATOM      7  N   UNL     1       0.116  10.239  20.936  0.00  0.00    +0.000 N 
ATOM      8  C   UNL     1      -0.133  10.127  22.363  0.00  0.00    +0.000 C 
ATOM      9  C   UNL     1      -1.091  11.257  22.639  0.00  0.00    +0.000 C 
ATOM     10  C   UNL     1      -0.938  12.029  21.359  0.00  0.00    +0.000 C 
ATOM     11  C   UNL     1      -1.618  13.346  21.185  0.00  0.00    +0.000 C 
ATOM     12  N   UNL     1      -0.256  11.449  20.429  0.00  0.00    +0.000 NA
ENDBRANCH   4   7
BRANCH   1  14
ATOM     13  N   UNL     1       3.094   5.208  18.119  0.00  0.00    +0.000 N 
ATOM     14  C   UNL     1       3.264   6.554  17.908  0.00  0.00    +0.000 C 
ATOM     15  O   UNL     1       4.100   7.016  17.134  0.00  0.00    +0.000 OA
ATOM     16  H   UNL     1       2.340   4.867  18.702  0.00  0.00    +0.000 HD
BRANCH  13  17
ATOM     17  C   UNL     1       3.868   4.226  17.378  0.00  0.00    +0.000 C 
BRANCH  17  18
ATOM     18  C   UNL     1       3.592   2.790  17.825  0.00  0.00    +0.000 C 
BRANCH  18  19
ATOM     19  O   UNL     1       2.181   2.535  17.823  0.00  0.00    +0.000 OA
BRANCH  19  20
ATOM     20  C   UNL     1       1.739   2.080  19.104  0.00  0.00    +0.000 C 
BRANCH  20  21
ATOM     21  C   UNL     1       0.756   3.082  19.701  0.00  0.00    +0.000 C 
BRANCH  21  23
ATOM     22  C   UNL     1       2.333   3.253  21.440  0.00  0.00    +0.000 C 
ATOM     23  O   UNL     1       1.458   3.965  20.576  0.00  0.00    +0.000 OA
ENDBRANCH  21  23
ENDBRANCH  20  21
ENDBRANCH  19  20
ENDBRANCH  18  19
ENDBRANCH  17  18
ENDBRANCH  13  17
ENDBRANCH   1  14
TORSDOF 8
ENDMDL
MODEL 5
REMARK VINA RESULT:      -5.9      1.990      3.418
REMARK  Name = 
REMARK  10 active torsions:
REMARK  status: ('A' for Active; 'I' for Inactive)
REMARK    1  A    between atoms: C_1  and  O_2
REMARK    2  A    between atoms: O_2  and  C_3
REMARK    3  A    between atoms: C_3  and  C_4
REMARK    4  A    between atoms: C_4  and  O_5
REMARK    5  A    between atoms: O_5  and  C_6
REMARK    6  A    between atoms: C_6  and  C_7
REMARK    7  A    between atoms: C_7  and  N_8
REMARK    8  A    between atoms: C_9  and  C_11
REMARK    9  A    between atoms: C_14  and  N_15
REMARK   10  A    between atoms: C_18  and  C_19
REMARK                            x       y       z     vdW  Elec       q    Type
REMARK                         _______ _______ _______ _____ _____    ______ ____
ROOT
ATOM      1  C   UNL     1       2.323   7.707  18.723  0.00  0.00    +0.000 A 
ATOM      2  C   UNL     1       1.900   8.788  17.953  0.00  0.00    +0.000 A 
ATOM      3  C   UNL     1       1.119   9.791  18.528  0.00  0.00    +0.000 A 
ATOM      4  C   UNL     1       0.712   9.739  19.872  0.00  0.00    +0.000 A 
ATOM      5  C   UNL     1       1.154   8.648  20.635  0.00  0.00    +0.000 A 
ATOM      6  C   UNL     1       1.947   7.637  20.069  0.00  0.00    +0.000 A 
ENDROOT
BRANCH   4   7
ATOM      7  N   UNL     1      -0.067  10.756  20.409  0.00  0.00    +0.000 N 
ATOM      8  C   UNL     1      -0.527  11.892  19.628  0.00  0.00    +0.000 C 
ATOM      9  C   UNL     1      -1.194  12.771  20.654  0.00  0.00    +0.000 C 
ATOM     10  C   UNL     1      -1.296  11.793  21.790  0.00  0.00    +0.000 C 
ATOM     11  C   UNL     1      -2.018  12.163  23.043  0.00  0.00    +0.000 C 
ATOM     12  N   UNL     1      -0.669  10.676  21.630  0.00  0.00    +0.000 NA
ENDBRANCH   4   7
BRANCH   1  14
ATOM     13  N   UNL     1       3.114   5.407  18.566  0.00  0.00    +0.000 N 
ATOM     14  C   UNL     1       3.197   6.687  18.075  0.00  0.00    +0.000 C 
ATOM     15  O   UNL     1       3.984   7.021  17.192  0.00  0.00    +0.000 OA
ATOM     16  H   UNL     1       2.396   5.156  19.233  0.00  0.00    +0.000 HD
BRANCH  13  17
ATOM     17  C   UNL     1       3.928   4.336  18.016  0.00  0.00    +0.000 C 
BRANCH  17  18
ATOM     18  C   UNL     1       5.043   3.891  18.962  0.00  0.00    +0.000 C 
BRANCH  18  19
ATOM     19  O   UNL     1       6.305   4.402  18.513  0.00  0.00    +0.000 OA
BRANCH  19  20
ATOM     20  C   UNL     1       6.368   4.433  17.085  0.00  0.00    +0.000 C 
BRANCH  20  21
ATOM     21  C   UNL     1       7.046   5.718  16.622  0.00  0.00    +0.000 C 
BRANCH  21  23
ATOM     22  C   UNL     1       6.757   4.739  14.499  0.00  0.00    +0.000 C 
ATOM     23  O   UNL     1       7.618   5.508  15.330  0.00  0.00    +0.000 OA
ENDBRANCH  21  23
ENDBRANCH  20  21
ENDBRANCH  19  20
ENDBRANCH  18  19
ENDBRANCH  17  18
ENDBRANCH  13  17
ENDBRANCH   1  14
TORSDOF 8
ENDMDL
MODEL 6
REMARK VINA RESULT:      -5.9      2.286      3.887
REMARK  Name = 
REMARK  10 active torsions:
REMARK  status: ('A' for Active; 'I' for Inactive)
REMARK    1  A    between atoms: C_1  and  O_2
REMARK    2  A    between atoms: O_2  and  C_3
REMARK    3  A    between atoms: C_3  and  C_4
REMARK    4  A    between atoms: C_4  and  O_5
REMARK    5  A    between atoms: O_5  and  C_6
REMARK    6  A    between atoms: C_6  and  C_7
REMARK    7  A    between atoms: C_7  and  N_8
REMARK    8  A    between atoms: C_9  and  C_11
REMARK    9  A    between atoms: C_14  and  N_15
REMARK   10  A    between atoms: C_18  and  C_19
REMARK                            x       y       z     vdW  Elec       q    Type
REMARK                         _______ _______ _______ _____ _____    ______ ____
ROOT
ATOM      1  C   UNL     1       2.727   6.766  19.086  0.00  0.00    +0.000 A 
ATOM      2  C   UNL     1       2.562   7.768  18.132  0.00  0.00    +0.000 A 
ATOM      3  C   UNL     1       1.795   8.894  18.430  0.00  0.00    +0.000 A 
ATOM      4  C   UNL     1       1.147   9.049  19.667  0.00  0.00    +0.000 A 
ATOM      5  C   UNL     1       1.331   8.035  20.619  0.00  0.00    +0.000 A 
ATOM      6  C   UNL     1       2.108   6.901  20.334  0.00  0.00    +0.000 A 
ENDROOT
BRANCH   4   7
ATOM      7  N   UNL     1       0.390  10.184  19.926  0.00  0.00    +0.000 N 
ATOM      8  C   UNL     1       0.903  11.321  20.671  0.00  0.00    +0.000 C 
ATOM      9  C   UNL     1      -0.301  12.217  20.811  0.00  0.00    +0.000 C 
ATOM     10  C   UNL     1      -1.208  11.572  19.802  0.00  0.00    +0.000 C 
ATOM     11  C   UNL     1      -2.528  12.185  19.471  0.00  0.00    +0.000 C 
ATOM     12  N   UNL     1      -0.801  10.448  19.315  0.00  0.00    +0.000 NA
ENDBRANCH   4   7
BRANCH   1  14
ATOM     13  N   UNL     1       3.266   4.910  17.601  0.00  0.00    +0.000 N 
ATOM     14  C   UNL     1       3.597   5.606  18.738  0.00  0.00    +0.000 C 
ATOM     15  O   UNL     1       4.516   5.279  19.486  0.00  0.00    +0.000 OA
ATOM     16  H   UNL     1       2.557   5.260  16.970  0.00  0.00    +0.000 HD
BRANCH  13  17
ATOM     17  C   UNL     1       4.038   3.757  17.174  0.00  0.00    +0.000 C 
BRANCH  17  18
ATOM     18  C   UNL     1       5.122   4.111  16.154  0.00  0.00    +0.000 C 
BRANCH  18  19
ATOM     19  O   UNL     1       6.372   4.336  16.821  0.00  0.00    +0.000 OA
BRANCH  19  20
ATOM     20  C   UNL     1       6.992   5.538  16.357  0.00  0.00    +0.000 C 
BRANCH  20  21
ATOM     21  C   UNL     1       7.241   6.480  17.530  0.00  0.00    +0.000 C 
BRANCH  21  23
ATOM     22  C   UNL     1       8.086   8.653  17.862  0.00  0.00    +0.000 C 
ATOM     23  O   UNL     1       7.255   7.827  17.056  0.00  0.00    +0.000 OA
ENDBRANCH  21  23
ENDBRANCH  20  21
ENDBRANCH  19  20
ENDBRANCH  18  19
ENDBRANCH  17  18
ENDBRANCH  13  17
ENDBRANCH   1  14
TORSDOF 8
ENDMDL
MODEL 7
REMARK VINA RESULT:      -5.9      2.032      3.634
REMARK  Name = 
REMARK  10 active torsions:
REMARK  status: ('A' for Active; 'I' for Inactive)
REMARK    1  A    between atoms: C_1  and  O_2
REMARK    2  A    between atoms: O_2  and  C_3
REMARK    3  A    between atoms: C_3  and  C_4
REMARK    4  A    between atoms: C_4  and  O_5
REMARK    5  A    between atoms: O_5  and  C_6
REMARK    6  A    between atoms: C_6  and  C_7
REMARK    7  A    between atoms: C_7  and  N_8
REMARK    8  A    between atoms: C_9  and  C_11
REMARK    9  A    between atoms: C_14  and  N_15
REMARK   10  A    between atoms: C_18  and  C_19
REMARK                            x       y       z     vdW  Elec       q    Type
REMARK                         _______ _______ _______ _____ _____    ______ ____
ROOT
ATOM      1  C   UNL     1       2.442   7.619  18.602  0.00  0.00    +0.000 A 
ATOM      2  C   UNL     1       1.926   8.729  17.936  0.00  0.00    +0.000 A 
ATOM      3  C   UNL     1       1.099   9.625  18.613  0.00  0.00    +0.000 A 
ATOM      4  C   UNL     1       0.739   9.437  19.959  0.00  0.00    +0.000 A 
ATOM      5  C   UNL     1       1.275   8.319  20.615  0.00  0.00    +0.000 A 
ATOM      6  C   UNL     1       2.114   7.415  19.947  0.00  0.00    +0.000 A 
ENDROOT
BRANCH   4   7
ATOM      7  N   UNL     1      -0.087  10.351  20.598  0.00  0.00    +0.000 N 
ATOM      8  C   UNL     1      -0.096  10.532  22.040  0.00  0.00    +0.000 C 
ATOM      9  C   UNL     1      -1.228  11.502  22.262  0.00  0.00    +0.000 C 
ATOM     10  C   UNL     1      -1.435  11.969  20.849  0.00  0.00    +0.000 C 
ATOM     11  C   UNL     1      -2.404  13.064  20.548  0.00  0.00    +0.000 C 
ATOM     12  N   UNL     1      -0.785  11.322  19.940  0.00  0.00    +0.000 NA
ENDBRANCH   4   7
BRANCH   1  14
ATOM     13  N   UNL     1       3.248   5.373  18.106  0.00  0.00    +0.000 N 
ATOM     14  C   UNL     1       3.360   6.717  17.849  0.00  0.00    +0.000 C 
ATOM     15  O   UNL     1       4.205   7.191  17.091  0.00  0.00    +0.000 OA
ATOM     16  H   UNL     1       2.487   5.018  18.671  0.00  0.00    +0.000 HD
BRANCH  13  17
ATOM     17  C   UNL     1       4.099   4.404  17.437  0.00  0.00    +0.000 C 
BRANCH  17  18
ATOM     18  C   UNL     1       4.926   3.564  18.412  0.00  0.00    +0.000 C 
BRANCH  18  19
ATOM     19  O   UNL     1       6.022   4.336  18.921  0.00  0.00    +0.000 OA
BRANCH  19  20
ATOM     20  C   UNL     1       6.831   4.844  17.857  0.00  0.00    +0.000 C 
BRANCH  20  21
ATOM     21  C   UNL     1       7.488   6.153  18.284  0.00  0.00    +0.000 C 
BRANCH  21  23
ATOM     22  C   UNL     1       7.775   8.381  17.579  0.00  0.00    +0.000 C 
ATOM     23  O   UNL     1       7.531   7.042  17.167  0.00  0.00    +0.000 OA
ENDBRANCH  21  23
ENDBRANCH  20  21
ENDBRANCH  19  20
ENDBRANCH  18  19
ENDBRANCH  17  18
ENDBRANCH  13  17
ENDBRANCH   1  14
TORSDOF 8
ENDMDL
MODEL 8
REMARK VINA RESULT:      -5.9      2.547      3.890
REMARK  Name = 
REMARK  10 active torsions:
REMARK  status: ('A' for Active; 'I' for Inactive)
REMARK    1  A    between atoms: C_1  and  O_2
REMARK    2  A    between atoms: O_2  and  C_3
REMARK    3  A    between atoms: C_3  and  C_4
REMARK    4  A    between atoms: C_4  and  O_5
REMARK    5  A    between atoms: O_5  and  C_6
REMARK    6  A    between atoms: C_6  and  C_7
REMARK    7  A    between atoms: C_7  and  N_8
REMARK    8  A    between atoms: C_9  and  C_11
REMARK    9  A    between atoms: C_14  and  N_15
REMARK   10  A    between atoms: C_18  and  C_19
REMARK                            x       y       z     vdW  Elec       q    Type
REMARK                         _______ _______ _______ _____ _____    ______ ____
ROOT
ATOM      1  C   UNL     1       2.891   6.883  18.579  0.00  0.00    +0.000 A 
ATOM      2  C   UNL     1       2.676   7.933  17.689  0.00  0.00    +0.000 A 
ATOM      3  C   UNL     1       1.894   9.022  18.073  0.00  0.00    +0.000 A 
ATOM      4  C   UNL     1       1.282   9.092  19.336  0.00  0.00    +0.000 A 
ATOM      5  C   UNL     1       1.516   8.030  20.221  0.00  0.00    +0.000 A 
ATOM      6  C   UNL     1       2.307   6.932  19.850  0.00  0.00    +0.000 A 
ENDROOT
BRANCH   4   7
ATOM      7  N   UNL     1       0.509  10.193  19.681  0.00  0.00    +0.000 N 
ATOM      8  C   UNL     1       1.034  11.320  20.433  0.00  0.00    +0.000 C 
ATOM      9  C   UNL     1      -0.184  12.172  20.679  0.00  0.00    +0.000 C 
ATOM     10  C   UNL     1      -1.134  11.533  19.706  0.00  0.00    +0.000 C 
ATOM     11  C   UNL     1      -2.490  12.114  19.480  0.00  0.00    +0.000 C 
ATOM     12  N   UNL     1      -0.726  10.439  19.156  0.00  0.00    +0.000 NA
ENDBRANCH   4   7
BRANCH   1  14
ATOM     13  N   UNL     1       4.988   5.655  18.772  0.00  0.00    +0.000 N 
ATOM     14  C   UNL     1       3.774   5.764  18.139  0.00  0.00    +0.000 C 
ATOM     15  O   UNL     1       3.428   5.035  17.212  0.00  0.00    +0.000 OA
ATOM     16  H   UNL     1       5.199   6.220  19.584  0.00  0.00    +0.000 HD
BRANCH  13  17
ATOM     17  C   UNL     1       5.931   4.609  18.416  0.00  0.00    +0.000 C 
BRANCH  17  18
ATOM     18  C   UNL     1       7.324   5.149  18.092  0.00  0.00    +0.000 C 
BRANCH  18  19
ATOM     19  O   UNL     1       7.444   5.394  16.684  0.00  0.00    +0.000 OA
BRANCH  19  20
ATOM     20  C   UNL     1       6.837   4.344  15.927  0.00  0.00    +0.000 C 
BRANCH  20  21
ATOM     21  C   UNL     1       6.927   4.659  14.438  0.00  0.00    +0.000 C 
BRANCH  21  23
ATOM     22  C   UNL     1       6.269   3.512  12.489  0.00  0.00    +0.000 C 
ATOM     23  O   UNL     1       5.854   4.009  13.755  0.00  0.00    +0.000 OA
ENDBRANCH  21  23
ENDBRANCH  20  21
ENDBRANCH  19  20
ENDBRANCH  18  19
ENDBRANCH  17  18
ENDBRANCH  13  17
ENDBRANCH   1  14
TORSDOF 8
ENDMDL
MODEL 9
REMARK VINA RESULT:      -5.9      2.603      4.237
REMARK  Name = 
REMARK  10 active torsions:
REMARK  status: ('A' for Active; 'I' for Inactive)
REMARK    1  A    between atoms: C_1  and  O_2
REMARK    2  A    between atoms: O_2  and  C_3
REMARK    3  A    between atoms: C_3  and  C_4
REMARK    4  A    between atoms: C_4  and  O_5
REMARK    5  A    between atoms: O_5  and  C_6
REMARK    6  A    between atoms: C_6  and  C_7
REMARK    7  A    between atoms: C_7  and  N_8
REMARK    8  A    between atoms: C_9  and  C_11
REMARK    9  A    between atoms: C_14  and  N_15
REMARK   10  A    between atoms: C_18  and  C_19
REMARK                            x       y       z     vdW  Elec       q    Type
REMARK                         _______ _______ _______ _____ _____    ______ ____
ROOT
ATOM      1  C   UNL     1       3.304   5.863  18.012  0.00  0.00    +0.000 A 
ATOM      2  C   UNL     1       3.162   7.183  17.589  0.00  0.00    +0.000 A 
ATOM      3  C   UNL     1       2.511   8.110  18.403  0.00  0.00    +0.000 A 
ATOM      4  C   UNL     1       1.959   7.752  19.645  0.00  0.00    +0.000 A 
ATOM      5  C   UNL     1       2.118   6.421  20.058  0.00  0.00    +0.000 A 
ATOM      6  C   UNL     1       2.779   5.482  19.251  0.00  0.00    +0.000 A 
ENDROOT
BRANCH   4   7
ATOM      7  N   UNL     1       1.316   8.703  20.427  0.00  0.00    +0.000 N 
ATOM      8  C   UNL     1       1.306   8.652  21.879  0.00  0.00    +0.000 C 
ATOM      9  C   UNL     1       0.387   9.784  22.259  0.00  0.00    +0.000 C 
ATOM     10  C   UNL     1       0.316  10.500  20.940  0.00  0.00    +0.000 C 
ATOM     11  C   UNL     1      -0.405  11.802  20.824  0.00  0.00    +0.000 C 
ATOM     12  N   UNL     1       0.846   9.886  19.936  0.00  0.00    +0.000 NA
ENDBRANCH   4   7
BRANCH   1  14
ATOM     13  N   UNL     1       4.821   5.488  16.141  0.00  0.00    +0.000 N 
ATOM     14  C   UNL     1       4.051   4.923  17.127  0.00  0.00    +0.000 C 
ATOM     15  O   UNL     1       3.911   3.709  17.262  0.00  0.00    +0.000 OA
ATOM     16  H   UNL     1       4.976   6.488  16.117  0.00  0.00    +0.000 HD
BRANCH  13  17
ATOM     17  C   UNL     1       5.583   4.666  15.217  0.00  0.00    +0.000 C 
BRANCH  17  18
ATOM     18  C   UNL     1       6.842   4.070  15.848  0.00  0.00    +0.000 C 
BRANCH  18  19
ATOM     19  O   UNL     1       7.599   5.097  16.503  0.00  0.00    +0.000 OA
BRANCH  19  20
ATOM     20  C   UNL     1       7.712   4.838  17.904  0.00  0.00    +0.000 C 
BRANCH  20  21
ATOM     21  C   UNL     1       7.274   6.066  18.696  0.00  0.00    +0.000 C 
BRANCH  21  23
ATOM     22  C   UNL     1       7.810   8.186  17.823  0.00  0.00    +0.000 C 
ATOM     23  O   UNL     1       8.274   7.079  18.584  0.00  0.00    +0.000 OA
ENDBRANCH  21  23
ENDBRANCH  20  21
ENDBRANCH  19  20
ENDBRANCH  18  19
ENDBRANCH  17  18
ENDBRANCH  13  17
ENDBRANCH   1  14
TORSDOF 8
ENDMDL
