MODEL 1
REMARK VINA RESULT:      -2.8      0.000      0.000
REMARK  Name = 
REMARK  1 active torsions:
REMARK  status: ('A' for Active; 'I' for Inactive)
REMARK    1  A    between atoms: C_1  and  C_2
REMARK                            x       y       z     vdW  Elec       q    Type
REMARK                         _______ _______ _______ _____ _____    ______ ____
ROOT
ATOM      1  C   UNL     1       4.429   3.238  11.452  0.00  0.00    +0.000 C 
ATOM      2  C   UNL     1       5.745   2.717  11.999  0.00  0.00    +0.000 C 
ATOM      3 CL   UNL     1       6.280   1.296  11.074  0.00  0.00    +0.000 Cl
ATOM      4 CL   UNL     1       6.988   3.988  11.932  0.00  0.00    +0.000 Cl
ENDROOT
TORSDOF 0
ENDMDL
MODEL 2
REMARK VINA RESULT:      -2.8      1.667      2.380
REMARK  Name = 
REMARK  1 active torsions:
REMARK  status: ('A' for Active; 'I' for Inactive)
REMARK    1  A    between atoms: C_1  and  C_2
REMARK                            x       y       z     vdW  Elec       q    Type
REMARK                         _______ _______ _______ _____ _____    ______ ____
ROOT
ATOM      1  C   UNL     1       6.669   3.694  12.094  0.00  0.00    +0.000 C 
ATOM      2  C   UNL     1       5.650   2.576  11.979  0.00  0.00    +0.000 C 
ATOM      3 CL   UNL     1       4.151   3.179  11.236  0.00  0.00    +0.000 Cl
ATOM      4 CL   UNL     1       6.309   1.236  11.012  0.00  0.00    +0.000 Cl
ENDROOT
TORSDOF 0
ENDMDL
MODEL 3
REMARK VINA RESULT:      -2.7      1.644      2.417
REMARK  Name = 
REMARK  1 active torsions:
REMARK  status: ('A' for Active; 'I' for Inactive)
REMARK    1  A    between atoms: C_1  and  C_2
REMARK                            x       y       z     vdW  Elec       q    Type
REMARK                         _______ _______ _______ _____ _____    ______ ____
ROOT
ATOM      1  C   UNL     1       6.174   1.407  11.186  0.00  0.00    +0.000 C 
ATOM      2  C   UNL     1       5.689   2.613  11.970  0.00  0.00    +0.000 C 
ATOM      3 CL   UNL     1       6.925   3.891  11.965  0.00  0.00    +0.000 Cl
ATOM      4 CL   UNL     1       4.174   3.232  11.274  0.00  0.00    +0.000 Cl
ENDROOT
TORSDOF 0
ENDMDL
MODEL 4
REMARK VINA RESULT:      -2.7      1.826      2.130
REMARK  Name = 
REMARK  1 active torsions:
REMARK  status: ('A' for Active; 'I' for Inactive)
REMARK    1  A    between atoms: C_1  and  C_2
REMARK                            x       y       z     vdW  Elec       q    Type
REMARK                         _______ _______ _______ _____ _____    ______ ____
ROOT
ATOM      1  C   UNL     1       5.849   4.009  14.032  0.00  0.00    +0.000 C 
ATOM      2  C   UNL     1       6.111   3.431  12.653  0.00  0.00    +0.000 C 
ATOM      3 CL   UNL     1       4.601   3.359  11.717  0.00  0.00    +0.000 Cl
ATOM      4 CL   UNL     1       7.314   4.415  11.789  0.00  0.00    +0.000 Cl
ENDROOT
TORSDOF 0
ENDMDL
MODEL 5
REMARK VINA RESULT:      -2.6      9.899      9.978
REMARK  Name = 
REMARK  1 active torsions:
REMARK  status: ('A' for Active; 'I' for Inactive)
REMARK    1  A    between atoms: C_1  and  C_2
REMARK                            x       y       z     vdW  Elec       q    Type
REMARK                         _______ _______ _______ _____ _____    ______ ____
ROOT
ATOM      1  C   UNL     1       1.803   4.785  20.097  0.00  0.00    +0.000 C 
ATOM      2  C   UNL     1       0.904   3.588  20.348  0.00  0.00    +0.000 C 
ATOM      3 CL   UNL     1       0.812   2.569  18.894  0.00  0.00    +0.000 Cl
ATOM      4 CL   UNL     1       1.514   2.635  21.720  0.00  0.00    +0.000 Cl
ENDROOT
TORSDOF 0
ENDMDL
MODEL 6
REMARK VINA RESULT:      -2.6      0.960      2.149
REMARK  Name = 
REMARK  1 active torsions:
REMARK  status: ('A' for Active; 'I' for Inactive)
REMARK    1  A    between atoms: C_1  and  C_2
REMARK                            x       y       z     vdW  Elec       q    Type
REMARK                         _______ _______ _______ _____ _____    ______ ____
ROOT
ATOM      1  C   UNL     1       4.085   3.275  11.404  0.00  0.00    +0.000 C 
ATOM      2  C   UNL     1       5.575   3.121  11.652  0.00  0.00    +0.000 C 
ATOM      3 CL   UNL     1       5.976   3.588  13.320  0.00  0.00    +0.000 Cl
ATOM      4 CL   UNL     1       6.080   1.442  11.354  0.00  0.00    +0.000 Cl
ENDROOT
TORSDOF 0
ENDMDL
MODEL 7
REMARK VINA RESULT:      -2.6      9.893     10.207
REMARK  Name = 
REMARK  1 active torsions:
REMARK  status: ('A' for Active; 'I' for Inactive)
REMARK    1  A    between atoms: C_1  and  C_2
REMARK                            x       y       z     vdW  Elec       q    Type
REMARK                         _______ _______ _______ _____ _____    ______ ____
ROOT
ATOM      1  C   UNL     1       1.693   2.685  21.590  0.00  0.00    +0.000 C 
ATOM      2  C   UNL     1       0.947   3.496  20.546  0.00  0.00    +0.000 C 
ATOM      3 CL   UNL     1       1.732   5.074  20.313  0.00  0.00    +0.000 Cl
ATOM      4 CL   UNL     1       0.889   2.613  19.004  0.00  0.00    +0.000 Cl
ENDROOT
TORSDOF 0
ENDMDL
MODEL 8
REMARK VINA RESULT:      -2.6      2.164      2.898
REMARK  Name = 
REMARK  1 active torsions:
REMARK  status: ('A' for Active; 'I' for Inactive)
REMARK    1  A    between atoms: C_1  and  C_2
REMARK                            x       y       z     vdW  Elec       q    Type
REMARK                         _______ _______ _______ _____ _____    ______ ____
ROOT
ATOM      1  C   UNL     1       7.074   4.022  11.849  0.00  0.00    +0.000 C 
ATOM      2  C   UNL     1       5.930   3.350  12.587  0.00  0.00    +0.000 C 
ATOM      3 CL   UNL     1       5.597   4.198  14.114  0.00  0.00    +0.000 Cl
ATOM      4 CL   UNL     1       4.469   3.328  11.573  0.00  0.00    +0.000 Cl
ENDROOT
TORSDOF 0
ENDMDL
MODEL 9
REMARK VINA RESULT:      -2.6      9.881     10.038
REMARK  Name = 
REMARK  1 active torsions:
REMARK  status: ('A' for Active; 'I' for Inactive)
REMARK    1  A    between atoms: C_1  and  C_2
REMARK                            x       y       z     vdW  Elec       q    Type
REMARK                         _______ _______ _______ _____ _____    ______ ____
ROOT
ATOM      1  C   UNL     1       1.242   3.165  19.021  0.00  0.00    +0.000 C 
ATOM      2  C   UNL     1       0.940   3.750  20.389  0.00  0.00    +0.000 C 
ATOM      3 CL   UNL     1       1.506   2.654  21.669  0.00  0.00    +0.000 Cl
ATOM      4 CL   UNL     1       1.716   5.340  20.564  0.00  0.00    +0.000 Cl
ENDROOT
TORSDOF 0
ENDMDL
