MODEL 1
REMARK VINA RESULT:      -7.2      0.000      0.000
REMARK  Name = 
REMARK  3 active torsions:
REMARK  status: ('A' for Active; 'I' for Inactive)
REMARK    1  A    between atoms: C_2  and  C_3
REMARK    2  A    between atoms: N_14  and  C_15
REMARK    3  A    between atoms: C_15  and  C_16
REMARK                            x       y       z     vdW  Elec       q    Type
REMARK                         _______ _______ _______ _____ _____    ______ ____
ROOT
ATOM      1  O   UNL     1       5.139   3.291  19.009  0.00  0.00    +0.000 OA
ATOM      2  C   UNL     1       4.886   4.325  18.378  0.00  0.00    +0.000 C 
ATOM      3  N   UNL     1       3.950   5.257  18.824  0.00  0.00    +0.000 N 
ATOM      4  C   UNL     1       3.571   6.503  18.143  0.00  0.00    +0.000 C 
ATOM      5  C   UNL     1       2.080   6.861  18.313  0.00  0.00    +0.000 C 
ATOM      6  N   UNL     1       1.580   6.798  19.703  0.00  0.00    +0.000 NA
ATOM      7  C   UNL     1       1.911   5.458  20.241  0.00  0.00    +0.000 C 
ATOM      8  C   UNL     1       3.406   5.095  20.178  0.00  0.00    +0.000 C 
ENDROOT
BRANCH   2   9
ATOM      9  C   UNL     1       5.596   4.490  17.086  0.00  0.00    +0.000 A 
ATOM     10  C   UNL     1       4.925   4.099  15.916  0.00  0.00    +0.000 A 
ATOM     11  C   UNL     1       5.546   4.241  14.670  0.00  0.00    +0.000 A 
ATOM     12  C   UNL     1       6.822   4.785  14.601  0.00  0.00    +0.000 A 
ATOM     13  F   UNL     1       7.406   4.949  13.407  0.00  0.00    +0.000 F 
ATOM     14  C   UNL     1       7.511   5.147  15.751  0.00  0.00    +0.000 A 
ATOM     15  C   UNL     1       6.906   4.959  16.990  0.00  0.00    +0.000 A 
ATOM     16  F   UNL     1       7.630   5.235  18.081  0.00  0.00    +0.000 F 
ENDBRANCH   2   9
BRANCH   6  17
ATOM     17  C   UNL     1       2.141   7.903  20.500  0.00  0.00    +0.000 C 
BRANCH  17  18
ATOM     18  C   UNL     1       1.109   8.885  21.009  0.00  0.00    +0.000 A 
ATOM     19  C   UNL     1       0.392   9.691  20.108  0.00  0.00    +0.000 A 
ATOM     20  C   UNL     1      -0.564  10.591  20.577  0.00  0.00    +0.000 A 
ATOM     21  C   UNL     1      -0.812  10.682  21.938  0.00  0.00    +0.000 A 
ATOM     22  F   UNL     1      -1.732  11.547  22.385  0.00  0.00    +0.000 F 
ATOM     23  C   UNL     1      -0.117   9.892  22.846  0.00  0.00    +0.000 A 
ATOM     24  C   UNL     1       0.844   8.993  22.383  0.00  0.00    +0.000 A 
ENDBRANCH  17  18
ENDBRANCH   6  17
TORSDOF 3
ENDMDL
MODEL 2
REMARK VINA RESULT:      -7.2      0.334      1.034
REMARK  Name = 
REMARK  3 active torsions:
REMARK  status: ('A' for Active; 'I' for Inactive)
REMARK    1  A    between atoms: C_2  and  C_3
REMARK    2  A    between atoms: N_14  and  C_15
REMARK    3  A    between atoms: C_15  and  C_16
REMARK                            x       y       z     vdW  Elec       q    Type
REMARK                         _______ _______ _______ _____ _____    ______ ____
ROOT
ATOM      1  O   UNL     1       4.945   3.134  19.230  0.00  0.00    +0.000 OA
ATOM      2  C   UNL     1       4.742   4.202  18.639  0.00  0.00    +0.000 C 
ATOM      3  N   UNL     1       3.813   5.136  19.091  0.00  0.00    +0.000 N 
ATOM      4  C   UNL     1       3.491   6.422  18.455  0.00  0.00    +0.000 C 
ATOM      5  C   UNL     1       2.004   6.811  18.583  0.00  0.00    +0.000 C 
ATOM      6  N   UNL     1       1.448   6.697  19.948  0.00  0.00    +0.000 NA
ATOM      7  C   UNL     1       1.724   5.326  20.436  0.00  0.00    +0.000 C 
ATOM      8  C   UNL     1       3.211   4.928  20.414  0.00  0.00    +0.000 C 
ENDROOT
BRANCH   2   9
ATOM      9  C   UNL     1       5.508   4.406  17.384  0.00  0.00    +0.000 A 
ATOM     10  C   UNL     1       4.867   4.107  16.171  0.00  0.00    +0.000 A 
ATOM     11  C   UNL     1       5.540   4.291  14.958  0.00  0.00    +0.000 A 
ATOM     12  C   UNL     1       6.839   4.784  14.966  0.00  0.00    +0.000 A 
ATOM     13  F   UNL     1       7.474   4.988  13.805  0.00  0.00    +0.000 F 
ATOM     14  C   UNL     1       7.497   5.054  16.158  0.00  0.00    +0.000 A 
ATOM     15  C   UNL     1       6.838   4.825  17.362  0.00  0.00    +0.000 A 
ATOM     16  F   UNL     1       7.530   5.011  18.493  0.00  0.00    +0.000 F 
ENDBRANCH   2   9
BRANCH   6  17
ATOM     17  C   UNL     1       2.003   7.750  20.817  0.00  0.00    +0.000 C 
BRANCH  17  18
ATOM     18  C   UNL     1       1.025   8.854  21.155  0.00  0.00    +0.000 A 
ATOM     19  C   UNL     1       0.565   9.015  22.473  0.00  0.00    +0.000 A 
ATOM     20  C   UNL     1      -0.331  10.037  22.784  0.00  0.00    +0.000 A 
ATOM     21  C   UNL     1      -0.761  10.900  21.790  0.00  0.00    +0.000 A 
ATOM     22  F   UNL     1      -1.621  11.882  22.094  0.00  0.00    +0.000 F 
ATOM     23  C   UNL     1      -0.315  10.762  20.481  0.00  0.00    +0.000 A 
ATOM     24  C   UNL     1       0.577   9.738  20.161  0.00  0.00    +0.000 A 
ENDBRANCH  17  18
ENDBRANCH   6  17
TORSDOF 3
ENDMDL
MODEL 3
REMARK VINA RESULT:      -7.0      1.207      1.854
REMARK  Name = 
REMARK  3 active torsions:
REMARK  status: ('A' for Active; 'I' for Inactive)
REMARK    1  A    between atoms: C_2  and  C_3
REMARK    2  A    between atoms: N_14  and  C_15
REMARK    3  A    between atoms: C_15  and  C_16
REMARK                            x       y       z     vdW  Elec       q    Type
REMARK                         _______ _______ _______ _____ _____    ______ ____
ROOT
ATOM      1  O   UNL     1       4.520   3.011  19.662  0.00  0.00    +0.000 OA
ATOM      2  C   UNL     1       4.416   4.093  19.070  0.00  0.00    +0.000 C 
ATOM      3  N   UNL     1       3.528   5.084  19.483  0.00  0.00    +0.000 N 
ATOM      4  C   UNL     1       3.322   6.390  18.842  0.00  0.00    +0.000 C 
ATOM      5  C   UNL     1       1.859   6.875  18.901  0.00  0.00    +0.000 C 
ATOM      6  N   UNL     1       1.230   6.792  20.236  0.00  0.00    +0.000 NA
ATOM      7  C   UNL     1       1.393   5.404  20.727  0.00  0.00    +0.000 C 
ATOM      8  C   UNL     1       2.850   4.909  20.774  0.00  0.00    +0.000 C 
ENDROOT
BRANCH   2   9
ATOM      9  C   UNL     1       5.253   4.252  17.855  0.00  0.00    +0.000 A 
ATOM     10  C   UNL     1       6.571   4.706  18.024  0.00  0.00    +0.000 A 
ATOM     11  C   UNL     1       7.406   4.866  16.914  0.00  0.00    +0.000 A 
ATOM     12  C   UNL     1       6.925   4.557  15.647  0.00  0.00    +0.000 A 
ATOM     13  F   UNL     1       7.732   4.681  14.586  0.00  0.00    +0.000 F 
ATOM     14  C   UNL     1       5.615   4.138  15.461  0.00  0.00    +0.000 A 
ATOM     15  C   UNL     1       4.776   4.027  16.565  0.00  0.00    +0.000 A 
ATOM     16  F   UNL     1       3.495   3.706  16.340  0.00  0.00    +0.000 F 
ENDBRANCH   2   9
BRANCH   6  17
ATOM     17  C   UNL     1       1.810   7.803  21.139  0.00  0.00    +0.000 C 
BRANCH  17  18
ATOM     18  C   UNL     1       0.870   8.939  21.481  0.00  0.00    +0.000 A 
ATOM     19  C   UNL     1       0.347   9.058  22.780  0.00  0.00    +0.000 A 
ATOM     20  C   UNL     1      -0.514  10.109  23.096  0.00  0.00    +0.000 A 
ATOM     21  C   UNL     1      -0.844  11.042  22.127  0.00  0.00    +0.000 A 
ATOM     22  F   UNL     1      -1.670  12.051  22.435  0.00  0.00    +0.000 F 
ATOM     23  C   UNL     1      -0.334  10.945  20.837  0.00  0.00    +0.000 A 
ATOM     24  C   UNL     1       0.523   9.893  20.512  0.00  0.00    +0.000 A 
ENDBRANCH  17  18
ENDBRANCH   6  17
TORSDOF 3
ENDMDL
MODEL 4
REMARK VINA RESULT:      -7.0      1.126      1.499
REMARK  Name = 
REMARK  3 active torsions:
REMARK  status: ('A' for Active; 'I' for Inactive)
REMARK    1  A    between atoms: C_2  and  C_3
REMARK    2  A    between atoms: N_14  and  C_15
REMARK    3  A    between atoms: C_15  and  C_16
REMARK                            x       y       z     vdW  Elec       q    Type
REMARK                         _______ _______ _______ _____ _____    ______ ____
ROOT
ATOM      1  O   UNL     1       4.797   3.041  19.549  0.00  0.00    +0.000 OA
ATOM      2  C   UNL     1       4.609   4.103  18.943  0.00  0.00    +0.000 C 
ATOM      3  N   UNL     1       3.688   5.054  19.377  0.00  0.00    +0.000 N 
ATOM      4  C   UNL     1       3.384   6.334  18.722  0.00  0.00    +0.000 C 
ATOM      5  C   UNL     1       1.901   6.741  18.837  0.00  0.00    +0.000 C 
ATOM      6  N   UNL     1       1.336   6.652  20.201  0.00  0.00    +0.000 NA
ATOM      7  C   UNL     1       1.595   5.285  20.708  0.00  0.00    +0.000 C 
ATOM      8  C   UNL     1       3.077   4.870  20.700  0.00  0.00    +0.000 C 
ENDROOT
BRANCH   2   9
ATOM      9  C   UNL     1       5.383   4.282  17.689  0.00  0.00    +0.000 A 
ATOM     10  C   UNL     1       6.705   4.742  17.796  0.00  0.00    +0.000 A 
ATOM     11  C   UNL     1       7.482   4.919  16.647  0.00  0.00    +0.000 A 
ATOM     12  C   UNL     1       6.939   4.623  15.403  0.00  0.00    +0.000 A 
ATOM     13  F   UNL     1       7.690   4.765  14.304  0.00  0.00    +0.000 F 
ATOM     14  C   UNL     1       5.623   4.199  15.278  0.00  0.00    +0.000 A 
ATOM     15  C   UNL     1       4.842   4.070  16.421  0.00  0.00    +0.000 A 
ATOM     16  F   UNL     1       3.553   3.744  16.258  0.00  0.00    +0.000 F 
ENDBRANCH   2   9
BRANCH   6  17
ATOM     17  C   UNL     1       1.899   7.711  21.058  0.00  0.00    +0.000 C 
BRANCH  17  18
ATOM     18  C   UNL     1       0.940   8.844  21.354  0.00  0.00    +0.000 A 
ATOM     19  C   UNL     1       0.466   9.660  20.313  0.00  0.00    +0.000 A 
ATOM     20  C   UNL     1      -0.423  10.700  20.585  0.00  0.00    +0.000 A 
ATOM     21  C   UNL     1      -0.845  10.920  21.886  0.00  0.00    +0.000 A 
ATOM     22  F   UNL     1      -1.700  11.918  22.143  0.00  0.00    +0.000 F 
ATOM     23  C   UNL     1      -0.391  10.121  22.930  0.00  0.00    +0.000 A 
ATOM     24  C   UNL     1       0.503   9.083  22.665  0.00  0.00    +0.000 A 
ENDBRANCH  17  18
ENDBRANCH   6  17
TORSDOF 3
ENDMDL
MODEL 5
REMARK VINA RESULT:      -6.8      4.709      7.248
REMARK  Name = 
REMARK  3 active torsions:
REMARK  status: ('A' for Active; 'I' for Inactive)
REMARK    1  A    between atoms: C_2  and  C_3
REMARK    2  A    between atoms: N_14  and  C_15
REMARK    3  A    between atoms: C_15  and  C_16
REMARK                            x       y       z     vdW  Elec       q    Type
REMARK                         _______ _______ _______ _____ _____    ______ ____
ROOT
ATOM      1  O   UNL     1       3.721   2.907  16.775  0.00  0.00    +0.000 OA
ATOM      2  C   UNL     1       3.910   3.647  17.749  0.00  0.00    +0.000 C 
ATOM      3  N   UNL     1       4.897   4.630  17.756  0.00  0.00    +0.000 N 
ATOM      4  C   UNL     1       5.206   5.545  18.864  0.00  0.00    +0.000 C 
ATOM      5  C   UNL     1       6.709   5.869  18.985  0.00  0.00    +0.000 C 
ATOM      6  N   UNL     1       7.364   6.266  17.721  0.00  0.00    +0.000 NA
ATOM      7  C   UNL     1       7.086   5.212  16.718  0.00  0.00    +0.000 C 
ATOM      8  C   UNL     1       5.591   4.920  16.495  0.00  0.00    +0.000 C 
ENDROOT
BRANCH   2   9
ATOM      9  C   UNL     1       3.057   3.389  18.936  0.00  0.00    +0.000 A 
ATOM     10  C   UNL     1       3.638   2.718  20.025  0.00  0.00    +0.000 A 
ATOM     11  C   UNL     1       2.882   2.458  21.173  0.00  0.00    +0.000 A 
ATOM     12  C   UNL     1       1.560   2.880  21.230  0.00  0.00    +0.000 A 
ATOM     13  F   UNL     1       0.843   2.657  22.339  0.00  0.00    +0.000 F 
ATOM     14  C   UNL     1       0.962   3.515  20.150  0.00  0.00    +0.000 A 
ATOM     15  C   UNL     1       1.706   3.729  18.994  0.00  0.00    +0.000 A 
ATOM     16  F   UNL     1       1.075   4.263  17.941  0.00  0.00    +0.000 F 
ENDBRANCH   2   9
BRANCH   6  17
ATOM     17  C   UNL     1       6.906   7.604  17.305  0.00  0.00    +0.000 C 
BRANCH  17  18
ATOM     18  C   UNL     1       7.755   8.740  17.833  0.00  0.00    +0.000 A 
ATOM     19  C   UNL     1       8.677   8.514  18.868  0.00  0.00    +0.000 A 
ATOM     20  C   UNL     1       9.463   9.561  19.350  0.00  0.00    +0.000 A 
ATOM     21  C   UNL     1       9.338  10.825  18.796  0.00  0.00    +0.000 A 
ATOM     22  F   UNL     1      10.096  11.827  19.260  0.00  0.00    +0.000 F 
ATOM     23  C   UNL     1       8.435  11.069  17.768  0.00  0.00    +0.000 A 
ATOM     24  C   UNL     1       7.641  10.028  17.285  0.00  0.00    +0.000 A 
ENDBRANCH  17  18
ENDBRANCH   6  17
TORSDOF 3
ENDMDL
MODEL 6
REMARK VINA RESULT:      -6.8      4.454      7.139
REMARK  Name = 
REMARK  3 active torsions:
REMARK  status: ('A' for Active; 'I' for Inactive)
REMARK    1  A    between atoms: C_2  and  C_3
REMARK    2  A    between atoms: N_14  and  C_15
REMARK    3  A    between atoms: C_15  and  C_16
REMARK                            x       y       z     vdW  Elec       q    Type
REMARK                         _______ _______ _______ _____ _____    ______ ____
ROOT
ATOM      1  O   UNL     1       3.811   3.348  16.585  0.00  0.00    +0.000 OA
ATOM      2  C   UNL     1       4.044   4.012  17.603  0.00  0.00    +0.000 C 
ATOM      3  N   UNL     1       5.033   4.992  17.640  0.00  0.00    +0.000 N 
ATOM      4  C   UNL     1       5.392   5.822  18.799  0.00  0.00    +0.000 C 
ATOM      5  C   UNL     1       6.900   6.138  18.878  0.00  0.00    +0.000 C 
ATOM      6  N   UNL     1       7.499   6.630  17.620  0.00  0.00    +0.000 NA
ATOM      7  C   UNL     1       7.175   5.654  16.554  0.00  0.00    +0.000 C 
ATOM      8  C   UNL     1       5.671   5.379  16.375  0.00  0.00    +0.000 C 
ENDROOT
BRANCH   2   9
ATOM      9  C   UNL     1       3.244   3.663  18.804  0.00  0.00    +0.000 A 
ATOM     10  C   UNL     1       1.947   4.191  18.902  0.00  0.00    +0.000 A 
ATOM     11  C   UNL     1       1.148   3.887  20.009  0.00  0.00    +0.000 A 
ATOM     12  C   UNL     1       1.643   3.049  20.999  0.00  0.00    +0.000 A 
ATOM     13  F   UNL     1       0.869   2.733  22.045  0.00  0.00    +0.000 F 
ATOM     14  C   UNL     1       2.935   2.545  20.933  0.00  0.00    +0.000 A 
ATOM     15  C   UNL     1       3.741   2.889  19.852  0.00  0.00    +0.000 A 
ATOM     16  F   UNL     1       5.009   2.459  19.863  0.00  0.00    +0.000 F 
ENDBRANCH   2   9
BRANCH   6  17
ATOM     17  C   UNL     1       7.027   7.995  17.327  0.00  0.00    +0.000 C 
BRANCH  17  18
ATOM     18  C   UNL     1       7.906   9.089  17.891  0.00  0.00    +0.000 A 
ATOM     19  C   UNL     1       8.784   8.815  18.953  0.00  0.00    +0.000 A 
ATOM     20  C   UNL     1       9.600   9.822  19.468  0.00  0.00    +0.000 A 
ATOM     21  C   UNL     1       9.548  11.095  18.922  0.00  0.00    +0.000 A 
ATOM     22  F   UNL     1      10.333  12.060  19.418  0.00  0.00    +0.000 F 
ATOM     23  C   UNL     1       8.689  11.386  17.868  0.00  0.00    +0.000 A 
ATOM     24  C   UNL     1       7.867  10.384  17.352  0.00  0.00    +0.000 A 
ENDBRANCH  17  18
ENDBRANCH   6  17
TORSDOF 3
ENDMDL
MODEL 7
REMARK VINA RESULT:      -6.8      3.342      4.382
REMARK  Name = 
REMARK  3 active torsions:
REMARK  status: ('A' for Active; 'I' for Inactive)
REMARK    1  A    between atoms: C_2  and  C_3
REMARK    2  A    between atoms: N_14  and  C_15
REMARK    3  A    between atoms: C_15  and  C_16
REMARK                            x       y       z     vdW  Elec       q    Type
REMARK                         _______ _______ _______ _____ _____    ______ ____
ROOT
ATOM      1  O   UNL     1       2.013   5.743  20.829  0.00  0.00    +0.000 OA
ATOM      2  C   UNL     1       2.373   6.309  19.789  0.00  0.00    +0.000 C 
ATOM      3  N   UNL     1       2.036   7.631  19.508  0.00  0.00    +0.000 N 
ATOM      4  C   UNL     1       2.403   8.385  18.301  0.00  0.00    +0.000 C 
ATOM      5  C   UNL     1       1.311   9.374  17.844  0.00  0.00    +0.000 C 
ATOM      6  N   UNL     1       0.770  10.240  18.913  0.00  0.00    +0.000 NA
ATOM      7  C   UNL     1       0.321   9.365  20.020  0.00  0.00    +0.000 C 
ATOM      8  C   UNL     1       1.408   8.425  20.572  0.00  0.00    +0.000 C 
ENDROOT
BRANCH   2   9
ATOM      9  C   UNL     1       3.140   5.478  18.828  0.00  0.00    +0.000 A 
ATOM     10  C   UNL     1       4.541   5.515  18.904  0.00  0.00    +0.000 A 
ATOM     11  C   UNL     1       5.312   4.744  18.028  0.00  0.00    +0.000 A 
ATOM     12  C   UNL     1       4.679   3.933  17.094  0.00  0.00    +0.000 A 
ATOM     13  F   UNL     1       5.415   3.172  16.274  0.00  0.00    +0.000 F 
ATOM     14  C   UNL     1       3.295   3.911  16.984  0.00  0.00    +0.000 A 
ATOM     15  C   UNL     1       2.537   4.716  17.828  0.00  0.00    +0.000 A 
ATOM     16  F   UNL     1       1.211   4.737  17.637  0.00  0.00    +0.000 F 
ENDBRANCH   2   9
BRANCH   6  17
ATOM     17  C   UNL     1       1.777  11.235  19.324  0.00  0.00    +0.000 C 
BRANCH  17  18
ATOM     18  C   UNL     1       1.330  12.672  19.162  0.00  0.00    +0.000 A 
ATOM     19  C   UNL     1       2.255  13.721  19.295  0.00  0.00    +0.000 A 
ATOM     20  C   UNL     1       1.845  15.044  19.139  0.00  0.00    +0.000 A 
ATOM     21  C   UNL     1       0.520  15.322  18.842  0.00  0.00    +0.000 A 
ATOM     22  F   UNL     1       0.130  16.594  18.691  0.00  0.00    +0.000 F 
ATOM     23  C   UNL     1      -0.411  14.299  18.702  0.00  0.00    +0.000 A 
ATOM     24  C   UNL     1      -0.007  12.973  18.862  0.00  0.00    +0.000 A 
ENDBRANCH  17  18
ENDBRANCH   6  17
TORSDOF 3
ENDMDL
MODEL 8
REMARK VINA RESULT:      -6.8      2.300      8.444
REMARK  Name = 
REMARK  3 active torsions:
REMARK  status: ('A' for Active; 'I' for Inactive)
REMARK    1  A    between atoms: C_2  and  C_3
REMARK    2  A    between atoms: N_14  and  C_15
REMARK    3  A    between atoms: C_15  and  C_16
REMARK                            x       y       z     vdW  Elec       q    Type
REMARK                         _______ _______ _______ _____ _____    ______ ____
ROOT
ATOM      1  O   UNL     1       2.146   5.831  20.783  0.00  0.00    +0.000 OA
ATOM      2  C   UNL     1       2.500   6.395  19.741  0.00  0.00    +0.000 C 
ATOM      3  N   UNL     1       3.424   5.828  18.866  0.00  0.00    +0.000 N 
ATOM      4  C   UNL     1       3.916   6.423  17.615  0.00  0.00    +0.000 C 
ATOM      5  C   UNL     1       5.396   6.097  17.326  0.00  0.00    +0.000 C 
ATOM      6  N   UNL     1       5.755   4.670  17.457  0.00  0.00    +0.000 NA
ATOM      7  C   UNL     1       5.321   4.215  18.798  0.00  0.00    +0.000 C 
ATOM      8  C   UNL     1       3.827   4.435  19.094  0.00  0.00    +0.000 C 
ENDROOT
BRANCH   2   9
ATOM      9  C   UNL     1       1.926   7.743  19.504  0.00  0.00    +0.000 A 
ATOM     10  C   UNL     1       1.981   8.257  18.198  0.00  0.00    +0.000 A 
ATOM     11  C   UNL     1       1.446   9.519  17.918  0.00  0.00    +0.000 A 
ATOM     12  C   UNL     1       0.849  10.250  18.938  0.00  0.00    +0.000 A 
ATOM     13  F   UNL     1       0.311  11.445  18.665  0.00  0.00    +0.000 F 
ATOM     14  C   UNL     1       0.816   9.769  20.240  0.00  0.00    +0.000 A 
ATOM     15  C   UNL     1       1.391   8.534  20.520  0.00  0.00    +0.000 A 
ATOM     16  F   UNL     1       1.421   8.141  21.800  0.00  0.00    +0.000 F 
ENDBRANCH   2   9
BRANCH   6  17
ATOM     17  C   UNL     1       5.163   3.889  16.355  0.00  0.00    +0.000 C 
BRANCH  17  18
ATOM     18  C   UNL     1       5.836   4.099  15.016  0.00  0.00    +0.000 A 
ATOM     19  C   UNL     1       5.286   3.540  13.851  0.00  0.00    +0.000 A 
ATOM     20  C   UNL     1       5.903   3.739  12.616  0.00  0.00    +0.000 A 
ATOM     21  C   UNL     1       7.058   4.500  12.541  0.00  0.00    +0.000 A 
ATOM     22  F   UNL     1       7.647   4.691  11.353  0.00  0.00    +0.000 F 
ATOM     23  C   UNL     1       7.617   5.066  13.681  0.00  0.00    +0.000 A 
ATOM     24  C   UNL     1       7.008   4.866  14.920  0.00  0.00    +0.000 A 
ENDBRANCH  17  18
ENDBRANCH   6  17
TORSDOF 3
ENDMDL
MODEL 9
REMARK VINA RESULT:      -6.8      4.426      7.092
REMARK  Name = 
REMARK  3 active torsions:
REMARK  status: ('A' for Active; 'I' for Inactive)
REMARK    1  A    between atoms: C_2  and  C_3
REMARK    2  A    between atoms: N_14  and  C_15
REMARK    3  A    between atoms: C_15  and  C_16
REMARK                            x       y       z     vdW  Elec       q    Type
REMARK                         _______ _______ _______ _____ _____    ______ ____
ROOT
ATOM      1  O   UNL     1       3.885   3.564  16.504  0.00  0.00    +0.000 OA
ATOM      2  C   UNL     1       4.116   4.191  17.545  0.00  0.00    +0.000 C 
ATOM      3  N   UNL     1       5.107   5.167  17.621  0.00  0.00    +0.000 N 
ATOM      4  C   UNL     1       5.465   5.954  18.810  0.00  0.00    +0.000 C 
ATOM      5  C   UNL     1       6.973   6.263  18.905  0.00  0.00    +0.000 C 
ATOM      6  N   UNL     1       7.577   6.797  17.667  0.00  0.00    +0.000 NA
ATOM      7  C   UNL     1       7.254   5.861  16.565  0.00  0.00    +0.000 C 
ATOM      8  C   UNL     1       5.750   5.596  16.372  0.00  0.00    +0.000 C 
ENDROOT
BRANCH   2   9
ATOM      9  C   UNL     1       3.312   3.802  18.731  0.00  0.00    +0.000 A 
ATOM     10  C   UNL     1       2.006   4.309  18.831  0.00  0.00    +0.000 A 
ATOM     11  C   UNL     1       1.202   3.967  19.923  0.00  0.00    +0.000 A 
ATOM     12  C   UNL     1       1.701   3.111  20.897  0.00  0.00    +0.000 A 
ATOM     13  F   UNL     1       0.923   2.759  21.928  0.00  0.00    +0.000 F 
ATOM     14  C   UNL     1       3.001   2.627  20.829  0.00  0.00    +0.000 A 
ATOM     15  C   UNL     1       3.810   3.009  19.764  0.00  0.00    +0.000 A 
ATOM     16  F   UNL     1       5.084   2.596  19.774  0.00  0.00    +0.000 F 
ENDBRANCH   2   9
BRANCH   6  17
ATOM     17  C   UNL     1       7.109   8.173  17.421  0.00  0.00    +0.000 C 
BRANCH  17  18
ATOM     18  C   UNL     1       8.021   9.246  17.974  0.00  0.00    +0.000 A 
ATOM     19  C   UNL     1       8.042  10.526  17.395  0.00  0.00    +0.000 A 
ATOM     20  C   UNL     1       8.878  11.517  17.910  0.00  0.00    +0.000 A 
ATOM     21  C   UNL     1       9.684  11.237  19.002  0.00  0.00    +0.000 A 
ATOM     22  F   UNL     1      10.484  12.191  19.494  0.00  0.00    +0.000 F 
ATOM     23  C   UNL     1       9.676   9.978  19.592  0.00  0.00    +0.000 A 
ATOM     24  C   UNL     1       8.846   8.981  19.078  0.00  0.00    +0.000 A 
ENDBRANCH  17  18
ENDBRANCH   6  17
TORSDOF 3
ENDMDL
