MODEL 1
REMARK VINA RESULT:      -8.9      0.000      0.000
REMARK  Name = 
REMARK  1 active torsions:
REMARK  status: ('A' for Active; 'I' for Inactive)
REMARK    1  A    between atoms: C_8  and  C_9
REMARK                            x       y       z     vdW  Elec       q    Type
REMARK                         _______ _______ _______ _____ _____    ______ ____
ROOT
ATOM      1  C   UNL     1       1.268   8.584  19.866  0.00  0.00    +0.000 A 
ATOM      2  N   UNL     1       1.367   7.390  20.390  0.00  0.00    +0.000 NA
ATOM      3  C   UNL     1       2.252   6.681  19.583  0.00  0.00    +0.000 A 
ATOM      4  C   UNL     1       2.805   7.450  18.441  0.00  0.00    +0.000 A 
ATOM      5  N   UNL     1       2.086   8.644  18.705  0.00  0.00    +0.000 N 
ATOM      6  C   UNL     1       3.803   6.781  17.519  0.00  0.00    +0.000 A 
ATOM      7  C   UNL     1       3.883   5.491  17.970  0.00  0.00    +0.000 A 
ATOM      8  C   UNL     1       3.504   4.709  18.989  0.00  0.00    +0.000 A 
ATOM      9  C   UNL     1       3.995   3.415  19.062  0.00  0.00    +0.000 A 
ATOM     10  C   UNL     1       3.607   2.635  20.055  0.00  0.00    +0.000 A 
ATOM     11  C   UNL     1       2.741   3.148  20.949  0.00  0.00    +0.000 A 
ATOM     12  C   UNL     1       2.241   4.481  20.858  0.00  0.00    +0.000 A 
ATOM     13  C   UNL     1       2.656   5.328  19.808  0.00  0.00    +0.000 A 
ATOM     14  C   UNL     1       4.784   5.019  17.106  0.00  0.00    +0.000 C 
ATOM     15  C   UNL     1       5.510   3.894  16.808  0.00  0.00    +0.000 C 
ATOM     16  C   UNL     1       5.766   5.339  15.866  0.00  0.00    +0.000 C 
ATOM     17  C   UNL     1       4.952   6.735  15.983  0.00  0.00    +0.000 C 
ATOM     18  H   UNL     1       2.119   9.487  18.165  0.00  0.00    +0.000 HD
ENDROOT
BRANCH   1  26
ATOM     19 CL   UNL     1      -0.661  10.044  17.909  0.00  0.00    +0.000 Cl
ATOM     20  C   UNL     1      -0.497  10.411  19.590  0.00  0.00    +0.000 A 
ATOM     21  C   UNL     1      -1.293  11.472  20.080  0.00  0.00    +0.000 A 
ATOM     22  C   UNL     1      -1.230  11.845  21.416  0.00  0.00    +0.000 A 
ATOM     23  C   UNL     1      -0.376  11.152  22.267  0.00  0.00    +0.000 A 
ATOM     24  C   UNL     1       0.412  10.081  21.779  0.00  0.00    +0.000 A 
ATOM     25 CL   UNL     1       1.439   9.310  22.940  0.00  0.00    +0.000 Cl
ATOM     26  C   UNL     1       0.395   9.693  20.414  0.00  0.00    +0.000 A 
ENDBRANCH   1  26
TORSDOF 1
ENDMDL
MODEL 2
REMARK VINA RESULT:      -8.9      0.146      1.832
REMARK  Name = 
REMARK  1 active torsions:
REMARK  status: ('A' for Active; 'I' for Inactive)
REMARK    1  A    between atoms: C_8  and  C_9
REMARK                            x       y       z     vdW  Elec       q    Type
REMARK                         _______ _______ _______ _____ _____    ______ ____
ROOT
ATOM      1  C   UNL     1       1.357   8.542  19.766  0.00  0.00    +0.000 A 
ATOM      2  N   UNL     1       1.458   7.349  20.293  0.00  0.00    +0.000 NA
ATOM      3  C   UNL     1       2.336   6.636  19.483  0.00  0.00    +0.000 A 
ATOM      4  C   UNL     1       2.882   7.401  18.334  0.00  0.00    +0.000 A 
ATOM      5  N   UNL     1       2.167   8.597  18.600  0.00  0.00    +0.000 N 
ATOM      6  C   UNL     1       3.873   6.727  17.407  0.00  0.00    +0.000 A 
ATOM      7  C   UNL     1       3.954   5.439  17.862  0.00  0.00    +0.000 A 
ATOM      8  C   UNL     1       3.582   4.661  18.886  0.00  0.00    +0.000 A 
ATOM      9  C   UNL     1       4.071   3.366  18.959  0.00  0.00    +0.000 A 
ATOM     10  C   UNL     1       3.689   2.589  19.958  0.00  0.00    +0.000 A 
ATOM     11  C   UNL     1       2.829   3.107  20.856  0.00  0.00    +0.000 A 
ATOM     12  C   UNL     1       2.331   4.440  20.764  0.00  0.00    +0.000 A 
ATOM     13  C   UNL     1       2.740   5.284  19.709  0.00  0.00    +0.000 A 
ATOM     14  C   UNL     1       4.849   4.962  16.993  0.00  0.00    +0.000 C 
ATOM     15  C   UNL     1       5.571   3.835  16.694  0.00  0.00    +0.000 C 
ATOM     16  C   UNL     1       5.822   5.277  15.746  0.00  0.00    +0.000 C 
ATOM     17  C   UNL     1       5.012   6.674  15.864  0.00  0.00    +0.000 C 
ATOM     18  H   UNL     1       2.197   9.437  18.056  0.00  0.00    +0.000 HD
ENDROOT
BRANCH   1  26
ATOM     19 CL   UNL     1       1.661   9.301  22.769  0.00  0.00    +0.000 Cl
ATOM     20  C   UNL     1       0.558  10.049  21.669  0.00  0.00    +0.000 A 
ATOM     21  C   UNL     1      -0.271  11.061  22.204  0.00  0.00    +0.000 A 
ATOM     22  C   UNL     1      -1.192  11.719  21.402  0.00  0.00    +0.000 A 
ATOM     23  C   UNL     1      -1.281  11.373  20.058  0.00  0.00    +0.000 A 
ATOM     24  C   UNL     1      -0.443  10.367  19.518  0.00  0.00    +0.000 A 
ATOM     25 CL   UNL     1      -0.662  10.024  17.836  0.00  0.00    +0.000 Cl
ATOM     26  C   UNL     1       0.489   9.653  20.316  0.00  0.00    +0.000 A 
ENDBRANCH   1  26
TORSDOF 1
ENDMDL
MODEL 3
REMARK VINA RESULT:      -8.8      0.862      3.139
REMARK  Name = 
REMARK  1 active torsions:
REMARK  status: ('A' for Active; 'I' for Inactive)
REMARK    1  A    between atoms: C_8  and  C_9
REMARK                            x       y       z     vdW  Elec       q    Type
REMARK                         _______ _______ _______ _____ _____    ______ ____
ROOT
ATOM      1  C   UNL     1       0.761   8.702  20.509  0.00  0.00    +0.000 A 
ATOM      2  N   UNL     1       1.613   8.613  19.521  0.00  0.00    +0.000 NA
ATOM      3  C   UNL     1       2.139   7.326  19.572  0.00  0.00    +0.000 A 
ATOM      4  C   UNL     1       1.596   6.475  20.660  0.00  0.00    +0.000 A 
ATOM      5  N   UNL     1       0.745   7.467  21.212  0.00  0.00    +0.000 N 
ATOM      6  C   UNL     1       2.079   5.045  20.784  0.00  0.00    +0.000 A 
ATOM      7  C   UNL     1       3.043   4.918  19.821  0.00  0.00    +0.000 A 
ATOM      8  C   UNL     1       3.567   5.559  18.768  0.00  0.00    +0.000 A 
ATOM      9  C   UNL     1       4.492   4.901  17.973  0.00  0.00    +0.000 A 
ATOM     10  C   UNL     1       5.026   5.538  16.946  0.00  0.00    +0.000 A 
ATOM     11  C   UNL     1       4.638   6.809  16.731  0.00  0.00    +0.000 A 
ATOM     12  C   UNL     1       3.688   7.474  17.561  0.00  0.00    +0.000 A 
ATOM     13  C   UNL     1       3.102   6.802  18.655  0.00  0.00    +0.000 A 
ATOM     14  C   UNL     1       3.373   3.640  20.016  0.00  0.00    +0.000 C 
ATOM     15  C   UNL     1       4.171   2.641  19.520  0.00  0.00    +0.000 C 
ATOM     16  C   UNL     1       3.091   2.281  20.840  0.00  0.00    +0.000 C 
ATOM     17  C   UNL     1       2.142   3.326  21.636  0.00  0.00    +0.000 C 
ATOM     18  H   UNL     1       0.157   7.360  22.016  0.00  0.00    +0.000 HD
ENDROOT
BRANCH   1  26
ATOM     19 CL   UNL     1      -0.452  10.350  18.164  0.00  0.00    +0.000 Cl
ATOM     20  C   UNL     1      -0.614  10.749  19.838  0.00  0.00    +0.000 A 
ATOM     21  C   UNL     1      -1.336  11.927  20.133  0.00  0.00    +0.000 A 
ATOM     22  C   UNL     1      -1.518  12.334  21.448  0.00  0.00    +0.000 A 
ATOM     23  C   UNL     1      -0.986  11.558  22.472  0.00  0.00    +0.000 A 
ATOM     24  C   UNL     1      -0.273  10.371  22.176  0.00  0.00    +0.000 A 
ATOM     25 CL   UNL     1       0.346   9.503  23.540  0.00  0.00    +0.000 Cl
ATOM     26  C   UNL     1      -0.042   9.941  20.843  0.00  0.00    +0.000 A 
ENDBRANCH   1  26
TORSDOF 1
ENDMDL
MODEL 4
REMARK VINA RESULT:      -8.8      0.864      3.622
REMARK  Name = 
REMARK  1 active torsions:
REMARK  status: ('A' for Active; 'I' for Inactive)
REMARK    1  A    between atoms: C_8  and  C_9
REMARK                            x       y       z     vdW  Elec       q    Type
REMARK                         _______ _______ _______ _____ _____    ______ ____
ROOT
ATOM      1  C   UNL     1       0.739   8.701  20.506  0.00  0.00    +0.000 A 
ATOM      2  N   UNL     1       1.589   8.612  19.517  0.00  0.00    +0.000 NA
ATOM      3  C   UNL     1       2.122   7.327  19.573  0.00  0.00    +0.000 A 
ATOM      4  C   UNL     1       1.585   6.479  20.667  0.00  0.00    +0.000 A 
ATOM      5  N   UNL     1       0.729   7.470  21.215  0.00  0.00    +0.000 N 
ATOM      6  C   UNL     1       2.074   5.052  20.798  0.00  0.00    +0.000 A 
ATOM      7  C   UNL     1       3.038   4.925  19.834  0.00  0.00    +0.000 A 
ATOM      8  C   UNL     1       3.557   5.563  18.777  0.00  0.00    +0.000 A 
ATOM      9  C   UNL     1       4.484   4.904  17.984  0.00  0.00    +0.000 A 
ATOM     10  C   UNL     1       5.013   5.539  16.953  0.00  0.00    +0.000 A 
ATOM     11  C   UNL     1       4.619   6.807  16.732  0.00  0.00    +0.000 A 
ATOM     12  C   UNL     1       3.667   7.472  17.560  0.00  0.00    +0.000 A 
ATOM     13  C   UNL     1       3.086   6.803  18.658  0.00  0.00    +0.000 A 
ATOM     14  C   UNL     1       3.373   3.649  20.035  0.00  0.00    +0.000 C 
ATOM     15  C   UNL     1       4.176   2.651  19.543  0.00  0.00    +0.000 C 
ATOM     16  C   UNL     1       3.098   2.293  20.866  0.00  0.00    +0.000 C 
ATOM     17  C   UNL     1       2.146   3.338  21.658  0.00  0.00    +0.000 C 
ATOM     18  H   UNL     1       0.142   7.365  22.020  0.00  0.00    +0.000 HD
ENDROOT
BRANCH   1  26
ATOM     19 CL   UNL     1       0.382   9.478  23.499  0.00  0.00    +0.000 Cl
ATOM     20  C   UNL     1      -0.288  10.351  22.167  0.00  0.00    +0.000 A 
ATOM     21  C   UNL     1      -1.068  11.484  22.490  0.00  0.00    +0.000 A 
ATOM     22  C   UNL     1      -1.652  12.249  21.489  0.00  0.00    +0.000 A 
ATOM     23  C   UNL     1      -1.449  11.889  20.162  0.00  0.00    +0.000 A 
ATOM     24  C   UNL     1      -0.656  10.761  19.838  0.00  0.00    +0.000 A 
ATOM     25 CL   UNL     1      -0.491  10.415  18.150  0.00  0.00    +0.000 Cl
ATOM     26  C   UNL     1      -0.069   9.938  20.835  0.00  0.00    +0.000 A 
ENDBRANCH   1  26
TORSDOF 1
ENDMDL
MODEL 5
REMARK VINA RESULT:      -8.3      1.008      1.008
REMARK  Name = 
REMARK  1 active torsions:
REMARK  status: ('A' for Active; 'I' for Inactive)
REMARK    1  A    between atoms: C_8  and  C_9
REMARK                            x       y       z     vdW  Elec       q    Type
REMARK                         _______ _______ _______ _____ _____    ______ ____
ROOT
ATOM      1  C   UNL     1       1.459   8.955  19.849  0.00  0.00    +0.000 A 
ATOM      2  N   UNL     1       1.459   7.772  20.406  0.00  0.00    +0.000 NA
ATOM      3  C   UNL     1       2.243   6.957  19.595  0.00  0.00    +0.000 A 
ATOM      4  C   UNL     1       2.830   7.637  18.413  0.00  0.00    +0.000 A 
ATOM      5  N   UNL     1       2.239   8.902  18.662  0.00  0.00    +0.000 N 
ATOM      6  C   UNL     1       3.726   6.847  17.482  0.00  0.00    +0.000 A 
ATOM      7  C   UNL     1       3.696   5.569  17.970  0.00  0.00    +0.000 A 
ATOM      8  C   UNL     1       3.278   4.857  19.025  0.00  0.00    +0.000 A 
ATOM      9  C   UNL     1       3.644   3.523  19.122  0.00  0.00    +0.000 A 
ATOM     10  C   UNL     1       3.216   2.813  20.151  0.00  0.00    +0.000 A 
ATOM     11  C   UNL     1       2.434   3.433  21.055  0.00  0.00    +0.000 A 
ATOM     12  C   UNL     1       2.063   4.806  20.938  0.00  0.00    +0.000 A 
ATOM     13  C   UNL     1       2.522   5.579  19.850  0.00  0.00    +0.000 A 
ATOM     14  C   UNL     1       4.518   4.987  17.094  0.00  0.00    +0.000 C 
ATOM     15  C   UNL     1       5.121   3.788  16.809  0.00  0.00    +0.000 C 
ATOM     16  C   UNL     1       5.484   5.174  15.816  0.00  0.00    +0.000 C 
ATOM     17  C   UNL     1       4.813   6.646  15.913  0.00  0.00    +0.000 C 
ATOM     18  H   UNL     1       2.335   9.722  18.094  0.00  0.00    +0.000 HD
ENDROOT
BRANCH   1  26
ATOM     19 CL   UNL     1       1.960  11.719  18.509  0.00  0.00    +0.000 Cl
ATOM     20  C   UNL     1       0.896  11.448  19.844  0.00  0.00    +0.000 A 
ATOM     21  C   UNL     1       0.236  12.586  20.360  0.00  0.00    +0.000 A 
ATOM     22  C   UNL     1      -0.636  12.472  21.434  0.00  0.00    +0.000 A 
ATOM     23  C   UNL     1      -0.856  11.217  21.990  0.00  0.00    +0.000 A 
ATOM     24  C   UNL     1      -0.204  10.074  21.466  0.00  0.00    +0.000 A 
ATOM     25 CL   UNL     1      -0.558   8.575  22.255  0.00  0.00    +0.000 Cl
ATOM     26  C   UNL     1       0.716  10.159  20.388  0.00  0.00    +0.000 A 
ENDBRANCH   1  26
TORSDOF 1
ENDMDL
MODEL 6
REMARK VINA RESULT:      -8.3      1.017      1.667
REMARK  Name = 
REMARK  1 active torsions:
REMARK  status: ('A' for Active; 'I' for Inactive)
REMARK    1  A    between atoms: C_8  and  C_9
REMARK                            x       y       z     vdW  Elec       q    Type
REMARK                         _______ _______ _______ _____ _____    ______ ____
ROOT
ATOM      1  C   UNL     1       1.458   8.985  19.823  0.00  0.00    +0.000 A 
ATOM      2  N   UNL     1       1.449   7.805  20.387  0.00  0.00    +0.000 NA
ATOM      3  C   UNL     1       2.232   6.982  19.584  0.00  0.00    +0.000 A 
ATOM      4  C   UNL     1       2.827   7.651  18.400  0.00  0.00    +0.000 A 
ATOM      5  N   UNL     1       2.242   8.921  18.639  0.00  0.00    +0.000 N 
ATOM      6  C   UNL     1       3.723   6.852  17.477  0.00  0.00    +0.000 A 
ATOM      7  C   UNL     1       3.684   5.576  17.973  0.00  0.00    +0.000 A 
ATOM      8  C   UNL     1       3.258   4.872  19.030  0.00  0.00    +0.000 A 
ATOM      9  C   UNL     1       3.616   3.538  19.136  0.00  0.00    +0.000 A 
ATOM     10  C   UNL     1       3.179   2.836  20.167  0.00  0.00    +0.000 A 
ATOM     11  C   UNL     1       2.397   3.465  21.064  0.00  0.00    +0.000 A 
ATOM     12  C   UNL     1       2.034   4.839  20.938  0.00  0.00    +0.000 A 
ATOM     13  C   UNL     1       2.502   5.603  19.847  0.00  0.00    +0.000 A 
ATOM     14  C   UNL     1       4.506   4.984  17.104  0.00  0.00    +0.000 C 
ATOM     15  C   UNL     1       5.104   3.781  16.828  0.00  0.00    +0.000 C 
ATOM     16  C   UNL     1       5.478   5.159  15.828  0.00  0.00    +0.000 C 
ATOM     17  C   UNL     1       4.815   6.635  15.914  0.00  0.00    +0.000 C 
ATOM     18  H   UNL     1       2.345   9.737  18.067  0.00  0.00    +0.000 HD
ENDROOT
BRANCH   1  26
ATOM     19 CL   UNL     1      -0.500   8.591  22.210  0.00  0.00    +0.000 Cl
ATOM     20  C   UNL     1      -0.194  10.099  21.423  0.00  0.00    +0.000 A 
ATOM     21  C   UNL     1      -0.917  11.215  21.905  0.00  0.00    +0.000 A 
ATOM     22  C   UNL     1      -0.744  12.469  21.336  0.00  0.00    +0.000 A 
ATOM     23  C   UNL     1       0.160  12.613  20.289  0.00  0.00    +0.000 A 
ATOM     24  C   UNL     1       0.893  11.498  19.814  0.00  0.00    +0.000 A 
ATOM     25 CL   UNL     1       1.976  11.811  18.500  0.00  0.00    +0.000 Cl
ATOM     26  C   UNL     1       0.719  10.196  20.352  0.00  0.00    +0.000 A 
ENDBRANCH   1  26
TORSDOF 1
ENDMDL
MODEL 7
REMARK VINA RESULT:      -8.3      1.438      2.256
REMARK  Name = 
REMARK  1 active torsions:
REMARK  status: ('A' for Active; 'I' for Inactive)
REMARK    1  A    between atoms: C_8  and  C_9
REMARK                            x       y       z     vdW  Elec       q    Type
REMARK                         _______ _______ _______ _____ _____    ______ ____
ROOT
ATOM      1  C   UNL     1       1.095   9.618  18.825  0.00  0.00    +0.000 A 
ATOM      2  N   UNL     1       1.065   8.559  19.592  0.00  0.00    +0.000 NA
ATOM      3  C   UNL     1       1.997   7.669  19.068  0.00  0.00    +0.000 A 
ATOM      4  C   UNL     1       2.724   8.163  17.871  0.00  0.00    +0.000 A 
ATOM      5  N   UNL     1       2.046   9.406  17.790  0.00  0.00    +0.000 N 
ATOM      6  C   UNL     1       3.784   7.284  17.241  0.00  0.00    +0.000 A 
ATOM      7  C   UNL     1       3.738   6.117  17.955  0.00  0.00    +0.000 A 
ATOM      8  C   UNL     1       3.200   5.580  19.058  0.00  0.00    +0.000 A 
ATOM      9  C   UNL     1       3.606   4.317  19.457  0.00  0.00    +0.000 A 
ATOM     10  C   UNL     1       3.061   3.776  20.532  0.00  0.00    +0.000 A 
ATOM     11  C   UNL     1       2.125   4.492  21.184  0.00  0.00    +0.000 A 
ATOM     12  C   UNL     1       1.714   5.790  20.757  0.00  0.00    +0.000 A 
ATOM     13  C   UNL     1       2.297   6.383  19.616  0.00  0.00    +0.000 A 
ATOM     14  C   UNL     1       4.708   5.446  17.329  0.00  0.00    +0.000 C 
ATOM     15  C   UNL     1       5.400   4.262  17.364  0.00  0.00    +0.000 C 
ATOM     16  C   UNL     1       5.845   5.467  16.185  0.00  0.00    +0.000 C 
ATOM     17  C   UNL     1       5.102   6.880  15.906  0.00  0.00    +0.000 C 
ATOM     18  H   UNL     1       2.189  10.114  17.096  0.00  0.00    +0.000 HD
ENDROOT
BRANCH   1  26
ATOM     19 CL   UNL     1       2.101  11.853  20.743  0.00  0.00    +0.000 Cl
ATOM     20  C   UNL     1       0.605  11.894  19.878  0.00  0.00    +0.000 A 
ATOM     21  C   UNL     1      -0.212  13.027  20.093  0.00  0.00    +0.000 A 
ATOM     22  C   UNL     1      -1.434  13.151  19.447  0.00  0.00    +0.000 A 
ATOM     23  C   UNL     1      -1.839  12.146  18.576  0.00  0.00    +0.000 A 
ATOM     24  C   UNL     1      -1.015  11.016  18.351  0.00  0.00    +0.000 A 
ATOM     25 CL   UNL     1      -1.640   9.833  17.252  0.00  0.00    +0.000 Cl
ATOM     26  C   UNL     1       0.226  10.842  19.017  0.00  0.00    +0.000 A 
ENDBRANCH   1  26
TORSDOF 1
ENDMDL
MODEL 8
REMARK VINA RESULT:      -8.3      1.506      1.649
REMARK  Name = 
REMARK  1 active torsions:
REMARK  status: ('A' for Active; 'I' for Inactive)
REMARK    1  A    between atoms: C_8  and  C_9
REMARK                            x       y       z     vdW  Elec       q    Type
REMARK                         _______ _______ _______ _____ _____    ______ ____
ROOT
ATOM      1  C   UNL     1       1.154   9.712  18.825  0.00  0.00    +0.000 A 
ATOM      2  N   UNL     1       1.106   8.656  19.595  0.00  0.00    +0.000 NA
ATOM      3  C   UNL     1       2.015   7.745  19.067  0.00  0.00    +0.000 A 
ATOM      4  C   UNL     1       2.744   8.219  17.863  0.00  0.00    +0.000 A 
ATOM      5  N   UNL     1       2.093   9.477  17.784  0.00  0.00    +0.000 N 
ATOM      6  C   UNL     1       3.780   7.316  17.229  0.00  0.00    +0.000 A 
ATOM      7  C   UNL     1       3.714   6.152  17.946  0.00  0.00    +0.000 A 
ATOM      8  C   UNL     1       3.171   5.630  19.054  0.00  0.00    +0.000 A 
ATOM      9  C   UNL     1       3.553   4.359  19.454  0.00  0.00    +0.000 A 
ATOM     10  C   UNL     1       3.003   3.833  20.535  0.00  0.00    +0.000 A 
ATOM     11  C   UNL     1       2.088   4.572  21.191  0.00  0.00    +0.000 A 
ATOM     12  C   UNL     1       1.703   5.877  20.763  0.00  0.00    +0.000 A 
ATOM     13  C   UNL     1       2.290   6.454  19.617  0.00  0.00    +0.000 A 
ATOM     14  C   UNL     1       4.664   5.458  17.315  0.00  0.00    +0.000 C 
ATOM     15  C   UNL     1       5.330   4.260  17.349  0.00  0.00    +0.000 C 
ATOM     16  C   UNL     1       5.793   5.451  16.163  0.00  0.00    +0.000 C 
ATOM     17  C   UNL     1       5.080   6.879  15.886  0.00  0.00    +0.000 C 
ATOM     18  H   UNL     1       2.247  10.179  17.087  0.00  0.00    +0.000 HD
ENDROOT
BRANCH   1  26
ATOM     19 CL   UNL     1      -1.606   9.866  17.395  0.00  0.00    +0.000 Cl
ATOM     20  C   UNL     1      -0.943  11.108  18.396  0.00  0.00    +0.000 A 
ATOM     21  C   UNL     1      -1.723  12.278  18.541  0.00  0.00    +0.000 A 
ATOM     22  C   UNL     1      -1.275  13.335  19.322  0.00  0.00    +0.000 A 
ATOM     23  C   UNL     1      -0.049  13.220  19.968  0.00  0.00    +0.000 A 
ATOM     24  C   UNL     1       0.727  12.043  19.833  0.00  0.00    +0.000 A 
ATOM     25 CL   UNL     1       2.236  12.033  20.681  0.00  0.00    +0.000 Cl
ATOM     26  C   UNL     1       0.314  10.956  19.019  0.00  0.00    +0.000 A 
ENDBRANCH   1  26
TORSDOF 1
ENDMDL
MODEL 9
REMARK VINA RESULT:      -7.8      2.468      7.745
REMARK  Name = 
REMARK  1 active torsions:
REMARK  status: ('A' for Active; 'I' for Inactive)
REMARK    1  A    between atoms: C_8  and  C_9
REMARK                            x       y       z     vdW  Elec       q    Type
REMARK                         _______ _______ _______ _____ _____    ______ ____
ROOT
ATOM      1  C   UNL     1       2.862   6.994  18.468  0.00  0.00    +0.000 A 
ATOM      2  N   UNL     1       2.822   8.227  18.032  0.00  0.00    +0.000 NA
ATOM      3  C   UNL     1       2.042   8.937  18.939  0.00  0.00    +0.000 A 
ATOM      4  C   UNL     1       1.529   8.137  20.079  0.00  0.00    +0.000 A 
ATOM      5  N   UNL     1       2.092   6.904  19.659  0.00  0.00    +0.000 N 
ATOM      6  C   UNL     1       0.695   8.822  21.142  0.00  0.00    +0.000 A 
ATOM      7  C   UNL     1       0.546  10.107  20.692  0.00  0.00    +0.000 A 
ATOM      8  C   UNL     1       0.992  10.949  19.752  0.00  0.00    +0.000 A 
ATOM      9  C   UNL     1       0.619  12.283  19.812  0.00  0.00    +0.000 A 
ATOM     10  C   UNL     1       1.040  13.111  18.873  0.00  0.00    +0.000 A 
ATOM     11  C   UNL     1       1.815  12.604  17.896  0.00  0.00    +0.000 A 
ATOM     12  C   UNL     1       2.188  11.228  17.846  0.00  0.00    +0.000 A 
ATOM     13  C   UNL     1       1.753  10.334  18.848  0.00  0.00    +0.000 A 
ATOM     14  C   UNL     1      -0.176  10.602  21.700  0.00  0.00    +0.000 C 
ATOM     15  C   UNL     1      -0.737  11.767  22.157  0.00  0.00    +0.000 C 
ATOM     16  C   UNL     1      -0.860  10.330  23.136  0.00  0.00    +0.000 C 
ATOM     17  C   UNL     1      -0.361   8.839  22.744  0.00  0.00    +0.000 C 
ATOM     18  H   UNL     1       1.998   6.022  20.124  0.00  0.00    +0.000 HD
ENDROOT
BRANCH   1  26
ATOM     19 CL   UNL     1       1.364   4.296  18.069  0.00  0.00    +0.000 Cl
ATOM     20  C   UNL     1       2.989   4.605  17.570  0.00  0.00    +0.000 A 
ATOM     21  C   UNL     1       3.672   3.529  16.959  0.00  0.00    +0.000 A 
ATOM     22  C   UNL     1       4.983   3.677  16.527  0.00  0.00    +0.000 A 
ATOM     23  C   UNL     1       5.612   4.905  16.697  0.00  0.00    +0.000 A 
ATOM     24  C   UNL     1       4.924   5.987  17.298  0.00  0.00    +0.000 A 
ATOM     25 CL   UNL     1       5.823   7.458  17.460  0.00  0.00    +0.000 Cl
ATOM     26  C   UNL     1       3.594   5.863  17.779  0.00  0.00    +0.000 A 
ENDBRANCH   1  26
TORSDOF 1
ENDMDL
