MODEL 1
REMARK VINA RESULT:      -7.6      0.000      0.000
REMARK  Name = 
REMARK  11 active torsions:
REMARK  status: ('A' for Active; 'I' for Inactive)
REMARK    1  A    between atoms: C_1  and  C_2
REMARK    2  A    between atoms: C_2  and  C_3
REMARK    3  A    between atoms: C_3  and  O_4
REMARK    4  A    between atoms: C_3  and  C_11
REMARK    5  A    between atoms: O_4  and  C_5
REMARK    6  A    between atoms: N_13  and  C_14
REMARK    7  A    between atoms: N_13  and  C_20
REMARK    8  A    between atoms: C_14  and  C_15
REMARK    9  A    between atoms: C_24  and  C_25
REMARK   10  A    between atoms: C_31  and  O_32
REMARK   11  A    between atoms: O_32  and  C_33
REMARK                            x       y       z     vdW  Elec       q    Type
REMARK                         _______ _______ _______ _____ _____    ______ ____
ROOT
ATOM      1  C   UNL     1       6.964   6.501  16.795  0.00  0.00    +0.000 C 
ATOM      2  O   UNL     1       7.943   6.091  16.161  0.00  0.00    +0.000 OA
ATOM      3  N   UNL     1       5.681   6.346  16.255  0.00  0.00    +0.000 N 
ENDROOT
BRANCH   3   4
ATOM      4  C   UNL     1       4.541   6.493  17.079  0.00  0.00    +0.000 A 
ATOM      5  C   UNL     1       3.939   7.758  17.062  0.00  0.00    +0.000 A 
ATOM      6  C   UNL     1       2.839   8.027  17.860  0.00  0.00    +0.000 A 
ATOM      7  C   UNL     1       2.318   7.020  18.668  0.00  0.00    +0.000 A 
ATOM      8  C   UNL     1       2.860   5.714  18.683  0.00  0.00    +0.000 A 
ATOM      9  C   UNL     1       3.992   5.450  17.856  0.00  0.00    +0.000 A 
BRANCH   8  10
ATOM     10  C   UNL     1       2.262   4.691  19.591  0.00  0.00    +0.000 A 
ATOM     11  C   UNL     1       1.231   3.827  19.180  0.00  0.00    +0.000 A 
ATOM     12  C   UNL     1       0.751   2.805  20.002  0.00  0.00    +0.000 A 
ATOM     13  C   UNL     1       1.249   2.660  21.289  0.00  0.00    +0.000 A 
ATOM     14  C   UNL     1       2.228   3.533  21.751  0.00  0.00    +0.000 A 
ATOM     15  C   UNL     1       2.736   4.527  20.908  0.00  0.00    +0.000 A 
ENDBRANCH   8  10
BRANCH   9  16
ATOM     16  O   UNL     1       4.385   4.138  17.812  0.00  0.00    +0.000 OA
ATOM     17  C   UNL     1       3.845   3.199  16.905  0.00  0.00    +0.000 C 
ENDBRANCH   9  16
ENDBRANCH   3   4
BRANCH   1  18
ATOM     18  C   UNL     1       7.123   7.095  18.270  0.00  0.00    +0.000 C 
BRANCH  18  20
ATOM     19  C   UNL     1       8.295   5.333  19.776  0.00  0.00    +0.000 C 
ATOM     20  C   UNL     1       6.982   5.965  19.322  0.00  0.00    +0.000 C 
ENDBRANCH  18  20
BRANCH  18  21
ATOM     21  O   UNL     1       8.393   7.735  18.482  0.00  0.00    +0.000 OA
BRANCH  21  22
ATOM     22  C   UNL     1       8.512   9.110  18.427  0.00  0.00    +0.000 A 
ATOM     23  C   UNL     1       7.954   9.971  17.486  0.00  0.00    +0.000 A 
ATOM     24  C   UNL     1       8.197  11.357  17.550  0.00  0.00    +0.000 A 
ATOM     25  C   UNL     1       8.994  11.900  18.545  0.00  0.00    +0.000 A 
ATOM     26  C   UNL     1       9.551  11.046  19.510  0.00  0.00    +0.000 A 
ATOM     27  C   UNL     1       9.306   9.672  19.441  0.00  0.00    +0.000 A 
ENDBRANCH  21  22
ENDBRANCH  18  21
ENDBRANCH   1  18
BRANCH   3  28
ATOM     28  C   UNL     1       5.442   5.668  14.956  0.00  0.00    +0.000 C 
BRANCH  28  29
ATOM     29  C   UNL     1       6.483   4.626  14.457  0.00  0.00    +0.000 C 
ATOM     30  C   UNL     1       5.847   3.400  13.829  0.00  0.00    +0.000 C 
ATOM     31  C   UNL     1       5.907   3.682  12.345  0.00  0.00    +0.000 C 
ATOM     32  C   UNL     1       7.147   4.539  12.170  0.00  0.00    +0.000 C 
ATOM     33  N   UNL     1       7.493   5.079  13.488  0.00  0.00    +0.000 NA
ATOM     34  H   UNL     1       7.497   6.103  13.432  0.00  0.00    +0.000 HD
ENDBRANCH  28  29
ENDBRANCH   3  28
TORSDOF 9
ENDMDL
MODEL 2
REMARK VINA RESULT:      -7.1      8.703     11.337
REMARK  Name = 
REMARK  11 active torsions:
REMARK  status: ('A' for Active; 'I' for Inactive)
REMARK    1  A    between atoms: C_1  and  C_2
REMARK    2  A    between atoms: C_2  and  C_3
REMARK    3  A    between atoms: C_3  and  O_4
REMARK    4  A    between atoms: C_3  and  C_11
REMARK    5  A    between atoms: O_4  and  C_5
REMARK    6  A    between atoms: N_13  and  C_14
REMARK    7  A    between atoms: N_13  and  C_20
REMARK    8  A    between atoms: C_14  and  C_15
REMARK    9  A    between atoms: C_24  and  C_25
REMARK   10  A    between atoms: C_31  and  O_32
REMARK   11  A    between atoms: O_32  and  C_33
REMARK                            x       y       z     vdW  Elec       q    Type
REMARK                         _______ _______ _______ _____ _____    ______ ____
ROOT
ATOM      1  C   UNL     1       0.260  12.008  20.481  0.00  0.00    +0.000 C 
ATOM      2  O   UNL     1       1.282  11.460  20.053  0.00  0.00    +0.000 OA
ATOM      3  N   UNL     1      -0.208  13.172  19.859  0.00  0.00    +0.000 N 
ENDROOT
BRANCH   3   4
ATOM      4  C   UNL     1      -1.526  13.625  20.100  0.00  0.00    +0.000 A 
ATOM      5  C   UNL     1      -1.637  14.919  20.626  0.00  0.00    +0.000 A 
ATOM      6  C   UNL     1      -2.877  15.451  20.937  0.00  0.00    +0.000 A 
ATOM      7  C   UNL     1      -4.023  14.696  20.702  0.00  0.00    +0.000 A 
ATOM      8  C   UNL     1      -3.967  13.406  20.128  0.00  0.00    +0.000 A 
ATOM      9  C   UNL     1      -2.683  12.869  19.811  0.00  0.00    +0.000 A 
BRANCH   8  10
ATOM     10  C   UNL     1      -5.236  12.646  19.925  0.00  0.00    +0.000 A 
ATOM     11  C   UNL     1      -5.746  12.355  18.646  0.00  0.00    +0.000 A 
ATOM     12  C   UNL     1      -6.877  11.555  18.466  0.00  0.00    +0.000 A 
ATOM     13  C   UNL     1      -7.568  11.075  19.568  0.00  0.00    +0.000 A 
ATOM     14  C   UNL     1      -7.128  11.391  20.849  0.00  0.00    +0.000 A 
ATOM     15  C   UNL     1      -5.969  12.155  21.024  0.00  0.00    +0.000 A 
ENDBRANCH   8  10
BRANCH   9  16
ATOM     16  O   UNL     1      -2.703  11.678  19.135  0.00  0.00    +0.000 OA
ATOM     17  C   UNL     1      -2.360  11.556  17.771  0.00  0.00    +0.000 C 
ENDBRANCH   9  16
ENDBRANCH   3   4
BRANCH   1  18
ATOM     18  C   UNL     1      -0.604  11.346  21.651  0.00  0.00    +0.000 C 
BRANCH  18  20
ATOM     19  C   UNL     1       0.049   9.466  23.319  0.00  0.00    +0.000 C 
ATOM     20  C   UNL     1      -0.179   9.871  21.865  0.00  0.00    +0.000 C 
ENDBRANCH  18  20
BRANCH  18  21
ATOM     21  O   UNL     1      -0.463  12.030  22.908  0.00  0.00    +0.000 OA
BRANCH  21  22
ATOM     22  C   UNL     1      -1.504  12.769  23.434  0.00  0.00    +0.000 A 
ATOM     23  C   UNL     1      -1.442  14.047  23.985  0.00  0.00    +0.000 A 
ATOM     24  C   UNL     1      -2.597  14.656  24.512  0.00  0.00    +0.000 A 
ATOM     25  C   UNL     1      -3.821  14.006  24.500  0.00  0.00    +0.000 A 
ATOM     26  C   UNL     1      -3.901  12.723  23.933  0.00  0.00    +0.000 A 
ATOM     27  C   UNL     1      -2.752  12.124  23.412  0.00  0.00    +0.000 A 
ENDBRANCH  21  22
ENDBRANCH  18  21
ENDBRANCH   1  18
BRANCH   3  28
ATOM     28  C   UNL     1       0.458  13.761  18.671  0.00  0.00    +0.000 C 
BRANCH  28  29
ATOM     29  C   UNL     1       1.487  14.908  18.885  0.00  0.00    +0.000 C 
ATOM     30  C   UNL     1       2.000  14.991  20.310  0.00  0.00    +0.000 C 
ATOM     31  C   UNL     1       3.323  14.259  20.260  0.00  0.00    +0.000 C 
ATOM     32  C   UNL     1       3.831  14.488  18.848  0.00  0.00    +0.000 C 
ATOM     33  N   UNL     1       2.689  14.914  18.037  0.00  0.00    +0.000 NA
ATOM     34  H   UNL     1       2.577  14.258  17.258  0.00  0.00    +0.000 HD
ENDBRANCH  28  29
ENDBRANCH   3  28
TORSDOF 9
ENDMDL
MODEL 3
REMARK VINA RESULT:      -7.0      0.742      1.112
REMARK  Name = 
REMARK  11 active torsions:
REMARK  status: ('A' for Active; 'I' for Inactive)
REMARK    1  A    between atoms: C_1  and  C_2
REMARK    2  A    between atoms: C_2  and  C_3
REMARK    3  A    between atoms: C_3  and  O_4
REMARK    4  A    between atoms: C_3  and  C_11
REMARK    5  A    between atoms: O_4  and  C_5
REMARK    6  A    between atoms: N_13  and  C_14
REMARK    7  A    between atoms: N_13  and  C_20
REMARK    8  A    between atoms: C_14  and  C_15
REMARK    9  A    between atoms: C_24  and  C_25
REMARK   10  A    between atoms: C_31  and  O_32
REMARK   11  A    between atoms: O_32  and  C_33
REMARK                            x       y       z     vdW  Elec       q    Type
REMARK                         _______ _______ _______ _____ _____    ______ ____
ROOT
ATOM      1  C   UNL     1       6.910   6.862  16.545  0.00  0.00    +0.000 C 
ATOM      2  O   UNL     1       7.897   6.464  15.915  0.00  0.00    +0.000 OA
ATOM      3  N   UNL     1       5.629   6.477  16.130  0.00  0.00    +0.000 N 
ENDROOT
BRANCH   3   4
ATOM      4  C   UNL     1       4.525   6.630  17.000  0.00  0.00    +0.000 A 
ATOM      5  C   UNL     1       3.977   7.919  17.064  0.00  0.00    +0.000 A 
ATOM      6  C   UNL     1       2.918   8.194  17.913  0.00  0.00    +0.000 A 
ATOM      7  C   UNL     1       2.381   7.171  18.691  0.00  0.00    +0.000 A 
ATOM      8  C   UNL     1       2.868   5.845  18.626  0.00  0.00    +0.000 A 
ATOM      9  C   UNL     1       3.959   5.574  17.747  0.00  0.00    +0.000 A 
BRANCH   8  10
ATOM     10  C   UNL     1       2.258   4.805  19.506  0.00  0.00    +0.000 A 
ATOM     11  C   UNL     1       1.303   3.884  19.037  0.00  0.00    +0.000 A 
ATOM     12  C   UNL     1       0.817   2.850  19.841  0.00  0.00    +0.000 A 
ATOM     13  C   UNL     1       1.227   2.748  21.162  0.00  0.00    +0.000 A 
ATOM     14  C   UNL     1       2.126   3.676  21.678  0.00  0.00    +0.000 A 
ATOM     15  C   UNL     1       2.643   4.683  20.856  0.00  0.00    +0.000 A 
ENDBRANCH   8  10
BRANCH   9  16
ATOM     16  O   UNL     1       4.293   4.251  17.628  0.00  0.00    +0.000 OA
ATOM     17  C   UNL     1       5.319   3.641  18.383  0.00  0.00    +0.000 C 
ENDBRANCH   9  16
ENDBRANCH   3   4
BRANCH   1  18
ATOM     18  C   UNL     1       7.074   7.707  17.891  0.00  0.00    +0.000 C 
BRANCH  18  20
ATOM     19  C   UNL     1       8.004   5.811  19.403  0.00  0.00    +0.000 C 
ATOM     20  C   UNL     1       8.257   7.158  18.730  0.00  0.00    +0.000 C 
ENDBRANCH  18  20
BRANCH  18  21
ATOM     21  O   UNL     1       7.318   9.103  17.650  0.00  0.00    +0.000 OA
BRANCH  21  22
ATOM     22  C   UNL     1       8.375   9.754  18.257  0.00  0.00    +0.000 A 
ATOM     23  C   UNL     1       8.763   9.676  19.592  0.00  0.00    +0.000 A 
ATOM     24  C   UNL     1       9.853  10.432  20.066  0.00  0.00    +0.000 A 
ATOM     25  C   UNL     1      10.566  11.269  19.223  0.00  0.00    +0.000 A 
ATOM     26  C   UNL     1      10.196  11.345  17.871  0.00  0.00    +0.000 A 
ATOM     27  C   UNL     1       9.114  10.593  17.406  0.00  0.00    +0.000 A 
ENDBRANCH  21  22
ENDBRANCH  18  21
ENDBRANCH   1  18
BRANCH   3  28
ATOM     28  C   UNL     1       5.406   5.569  14.977  0.00  0.00    +0.000 C 
BRANCH  28  29
ATOM     29  C   UNL     1       6.580   4.665  14.502  0.00  0.00    +0.000 C 
ATOM     30  C   UNL     1       6.121   3.313  13.988  0.00  0.00    +0.000 C 
ATOM     31  C   UNL     1       6.086   3.491  12.487  0.00  0.00    +0.000 C 
ATOM     32  C   UNL     1       7.170   4.513  12.199  0.00  0.00    +0.000 C 
ATOM     33  N   UNL     1       7.472   5.195  13.460  0.00  0.00    +0.000 NA
ATOM     34  H   UNL     1       7.314   6.200  13.335  0.00  0.00    +0.000 HD
ENDBRANCH  28  29
ENDBRANCH   3  28
TORSDOF 9
ENDMDL
MODEL 4
REMARK VINA RESULT:      -7.0      8.179     10.989
REMARK  Name = 
REMARK  11 active torsions:
REMARK  status: ('A' for Active; 'I' for Inactive)
REMARK    1  A    between atoms: C_1  and  C_2
REMARK    2  A    between atoms: C_2  and  C_3
REMARK    3  A    between atoms: C_3  and  O_4
REMARK    4  A    between atoms: C_3  and  C_11
REMARK    5  A    between atoms: O_4  and  C_5
REMARK    6  A    between atoms: N_13  and  C_14
REMARK    7  A    between atoms: N_13  and  C_20
REMARK    8  A    between atoms: C_14  and  C_15
REMARK    9  A    between atoms: C_24  and  C_25
REMARK   10  A    between atoms: C_31  and  O_32
REMARK   11  A    between atoms: O_32  and  C_33
REMARK                            x       y       z     vdW  Elec       q    Type
REMARK                         _______ _______ _______ _____ _____    ______ ____
ROOT
ATOM      1  C   UNL     1       0.484  11.656  20.934  0.00  0.00    +0.000 C 
ATOM      2  O   UNL     1       1.618  11.826  21.396  0.00  0.00    +0.000 OA
ATOM      3  N   UNL     1       0.251  11.897  19.575  0.00  0.00    +0.000 N 
ENDROOT
BRANCH   3   4
ATOM      4  C   UNL     1      -0.920  11.402  18.956  0.00  0.00    +0.000 A 
ATOM      5  C   UNL     1      -0.748  10.267  18.153  0.00  0.00    +0.000 A 
ATOM      6  C   UNL     1      -1.820   9.719  17.467  0.00  0.00    +0.000 A 
ATOM      7  C   UNL     1      -3.082  10.293  17.598  0.00  0.00    +0.000 A 
ATOM      8  C   UNL     1      -3.314  11.410  18.434  0.00  0.00    +0.000 A 
ATOM      9  C   UNL     1      -2.202  11.964  19.136  0.00  0.00    +0.000 A 
BRANCH   8  10
ATOM     10  C   UNL     1      -4.690  11.986  18.509  0.00  0.00    +0.000 A 
ATOM     11  C   UNL     1      -5.444  12.290  17.361  0.00  0.00    +0.000 A 
ATOM     12  C   UNL     1      -6.767  12.731  17.441  0.00  0.00    +0.000 A 
ATOM     13  C   UNL     1      -7.354  12.939  18.680  0.00  0.00    +0.000 A 
ATOM     14  C   UNL     1      -6.619  12.704  19.838  0.00  0.00    +0.000 A 
ATOM     15  C   UNL     1      -5.309  12.222  19.752  0.00  0.00    +0.000 A 
ENDBRANCH   8  10
BRANCH   9  16
ATOM     16  O   UNL     1      -2.516  12.953  20.030  0.00  0.00    +0.000 OA
ATOM     17  C   UNL     1      -1.990  14.261  19.953  0.00  0.00    +0.000 C 
ENDBRANCH   9  16
ENDBRANCH   3   4
BRANCH   1  18
ATOM     18  C   UNL     1      -0.691  11.050  21.832  0.00  0.00    +0.000 C 
BRANCH  18  20
ATOM     19  C   UNL     1       0.226   9.276  23.492  0.00  0.00    +0.000 C 
ATOM     20  C   UNL     1      -0.418   9.555  22.136  0.00  0.00    +0.000 C 
ENDBRANCH  18  20
BRANCH  18  21
ATOM     21  O   UNL     1      -0.846  11.732  23.088  0.00  0.00    +0.000 OA
BRANCH  21  22
ATOM     22  C   UNL     1      -1.909  12.587  23.305  0.00  0.00    +0.000 A 
ATOM     23  C   UNL     1      -3.266  12.276  23.274  0.00  0.00    +0.000 A 
ATOM     24  C   UNL     1      -4.234  13.275  23.486  0.00  0.00    +0.000 A 
ATOM     25  C   UNL     1      -3.869  14.590  23.730  0.00  0.00    +0.000 A 
ATOM     26  C   UNL     1      -2.503  14.915  23.780  0.00  0.00    +0.000 A 
ATOM     27  C   UNL     1      -1.547  13.919  23.568  0.00  0.00    +0.000 A 
ENDBRANCH  21  22
ENDBRANCH  18  21
ENDBRANCH   1  18
BRANCH   3  28
ATOM     28  C   UNL     1       1.331  12.318  18.646  0.00  0.00    +0.000 C 
BRANCH  28  29
ATOM     29  C   UNL     1       1.576  13.838  18.426  0.00  0.00    +0.000 C 
ATOM     30  C   UNL     1       1.633  14.626  19.721  0.00  0.00    +0.000 C 
ATOM     31  C   UNL     1       3.114  14.762  19.995  0.00  0.00    +0.000 C 
ATOM     32  C   UNL     1       3.755  14.779  18.620  0.00  0.00    +0.000 C 
ATOM     33  N   UNL     1       2.777  14.235  17.676  0.00  0.00    +0.000 NA
ATOM     34  H   UNL     1       3.189  13.420  17.209  0.00  0.00    +0.000 HD
ENDBRANCH  28  29
ENDBRANCH   3  28
TORSDOF 9
ENDMDL
MODEL 5
REMARK VINA RESULT:      -6.9      8.555     11.923
REMARK  Name = 
REMARK  11 active torsions:
REMARK  status: ('A' for Active; 'I' for Inactive)
REMARK    1  A    between atoms: C_1  and  C_2
REMARK    2  A    between atoms: C_2  and  C_3
REMARK    3  A    between atoms: C_3  and  O_4
REMARK    4  A    between atoms: C_3  and  C_11
REMARK    5  A    between atoms: O_4  and  C_5
REMARK    6  A    between atoms: N_13  and  C_14
REMARK    7  A    between atoms: N_13  and  C_20
REMARK    8  A    between atoms: C_14  and  C_15
REMARK    9  A    between atoms: C_24  and  C_25
REMARK   10  A    between atoms: C_31  and  O_32
REMARK   11  A    between atoms: O_32  and  C_33
REMARK                            x       y       z     vdW  Elec       q    Type
REMARK                         _______ _______ _______ _____ _____    ______ ____
ROOT
ATOM      1  C   UNL     1      -1.678  14.229  21.782  0.00  0.00    +0.000 C 
ATOM      2  O   UNL     1      -1.367  15.214  22.461  0.00  0.00    +0.000 OA
ATOM      3  N   UNL     1      -1.195  14.117  20.472  0.00  0.00    +0.000 N 
ENDROOT
BRANCH   3   4
ATOM      4  C   UNL     1      -1.251  12.875  19.798  0.00  0.00    +0.000 A 
ATOM      5  C   UNL     1      -2.430  12.624  19.084  0.00  0.00    +0.000 A 
ATOM      6  C   UNL     1      -2.610  11.423  18.418  0.00  0.00    +0.000 A 
ATOM      7  C   UNL     1      -1.597  10.468  18.444  0.00  0.00    +0.000 A 
ATOM      8  C   UNL     1      -0.370  10.695  19.109  0.00  0.00    +0.000 A 
ATOM      9  C   UNL     1      -0.196  11.936  19.790  0.00  0.00    +0.000 A 
BRANCH   8  10
ATOM     10  C   UNL     1       0.663   9.616  19.112  0.00  0.00    +0.000 A 
ATOM     11  C   UNL     1       0.958   8.857  20.259  0.00  0.00    +0.000 A 
ATOM     12  C   UNL     1       1.850   7.783  20.225  0.00  0.00    +0.000 A 
ATOM     13  C   UNL     1       2.522   7.478  19.050  0.00  0.00    +0.000 A 
ATOM     14  C   UNL     1       2.300   8.244  17.911  0.00  0.00    +0.000 A 
ATOM     15  C   UNL     1       1.373   9.291  17.939  0.00  0.00    +0.000 A 
ENDBRANCH   8  10
BRANCH   9  16
ATOM     16  O   UNL     1       1.059  12.149  20.297  0.00  0.00    +0.000 OA
ATOM     17  C   UNL     1       2.094  12.770  19.564  0.00  0.00    +0.000 C 
ENDBRANCH   9  16
ENDBRANCH   3   4
BRANCH   1  18
ATOM     18  C   UNL     1      -2.519  13.024  22.409  0.00  0.00    +0.000 C 
BRANCH  18  20
ATOM     19  C   UNL     1      -1.182  10.870  22.972  0.00  0.00    +0.000 C 
ATOM     20  C   UNL     1      -1.658  12.245  23.436  0.00  0.00    +0.000 C 
ENDBRANCH  18  20
BRANCH  18  21
ATOM     21  O   UNL     1      -3.712  13.463  23.081  0.00  0.00    +0.000 OA
BRANCH  21  22
ATOM     22  C   UNL     1      -4.953  12.989  22.706  0.00  0.00    +0.000 A 
ATOM     23  C   UNL     1      -5.356  12.584  21.436  0.00  0.00    +0.000 A 
ATOM     24  C   UNL     1      -6.677  12.152  21.208  0.00  0.00    +0.000 A 
ATOM     25  C   UNL     1      -7.608  12.118  22.233  0.00  0.00    +0.000 A 
ATOM     26  C   UNL     1      -7.211  12.508  23.522  0.00  0.00    +0.000 A 
ATOM     27  C   UNL     1      -5.900  12.936  23.743  0.00  0.00    +0.000 A 
ENDBRANCH  21  22
ENDBRANCH  18  21
ENDBRANCH   1  18
BRANCH   3  28
ATOM     28  C   UNL     1      -0.285  15.124  19.871  0.00  0.00    +0.000 C 
BRANCH  28  29
ATOM     29  C   UNL     1      -0.875  16.496  19.433  0.00  0.00    +0.000 C 
ATOM     30  C   UNL     1      -0.205  17.677  20.110  0.00  0.00    +0.000 C 
ATOM     31  C   UNL     1       0.802  18.155  19.088  0.00  0.00    +0.000 C 
ATOM     32  C   UNL     1       0.176  17.812  17.749  0.00  0.00    +0.000 C 
ATOM     33  N   UNL     1      -0.867  16.815  17.997  0.00  0.00    +0.000 NA
ATOM     34  H   UNL     1      -0.656  15.976  17.448  0.00  0.00    +0.000 HD
ENDBRANCH  28  29
ENDBRANCH   3  28
TORSDOF 9
ENDMDL
MODEL 6
REMARK VINA RESULT:      -6.9      8.666     11.348
REMARK  Name = 
REMARK  11 active torsions:
REMARK  status: ('A' for Active; 'I' for Inactive)
REMARK    1  A    between atoms: C_1  and  C_2
REMARK    2  A    between atoms: C_2  and  C_3
REMARK    3  A    between atoms: C_3  and  O_4
REMARK    4  A    between atoms: C_3  and  C_11
REMARK    5  A    between atoms: O_4  and  C_5
REMARK    6  A    between atoms: N_13  and  C_14
REMARK    7  A    between atoms: N_13  and  C_20
REMARK    8  A    between atoms: C_14  and  C_15
REMARK    9  A    between atoms: C_24  and  C_25
REMARK   10  A    between atoms: C_31  and  O_32
REMARK   11  A    between atoms: O_32  and  C_33
REMARK                            x       y       z     vdW  Elec       q    Type
REMARK                         _______ _______ _______ _____ _____    ______ ____
ROOT
ATOM      1  C   UNL     1       0.369  11.652  20.779  0.00  0.00    +0.000 C 
ATOM      2  O   UNL     1       1.343  10.970  20.438  0.00  0.00    +0.000 OA
ATOM      3  N   UNL     1       0.005  12.763  20.008  0.00  0.00    +0.000 N 
ENDROOT
BRANCH   3   4
ATOM      4  C   UNL     1      -1.271  13.352  20.170  0.00  0.00    +0.000 A 
ATOM      5  C   UNL     1      -1.274  14.677  20.628  0.00  0.00    +0.000 A 
ATOM      6  C   UNL     1      -2.467  15.340  20.860  0.00  0.00    +0.000 A 
ATOM      7  C   UNL     1      -3.672  14.688  20.613  0.00  0.00    +0.000 A 
ATOM      8  C   UNL     1      -3.720  13.369  20.104  0.00  0.00    +0.000 A 
ATOM      9  C   UNL     1      -2.484  12.697  19.868  0.00  0.00    +0.000 A 
BRANCH   8  10
ATOM     10  C   UNL     1      -5.049  12.725  19.884  0.00  0.00    +0.000 A 
ATOM     11  C   UNL     1      -5.615  12.581  18.604  0.00  0.00    +0.000 A 
ATOM     12  C   UNL     1      -6.809  11.885  18.398  0.00  0.00    +0.000 A 
ATOM     13  C   UNL     1      -7.504  11.367  19.480  0.00  0.00    +0.000 A 
ATOM     14  C   UNL     1      -7.005  11.541  20.767  0.00  0.00    +0.000 A 
ATOM     15  C   UNL     1      -5.787  12.200  20.964  0.00  0.00    +0.000 A 
ENDBRANCH   8  10
BRANCH   9  16
ATOM     16  O   UNL     1      -2.595  11.479  19.250  0.00  0.00    +0.000 OA
ATOM     17  C   UNL     1      -2.358  11.287  17.872  0.00  0.00    +0.000 C 
ENDBRANCH   9  16
ENDBRANCH   3   4
BRANCH   1  18
ATOM     18  C   UNL     1      -0.552  11.220  22.011  0.00  0.00    +0.000 C 
BRANCH  18  20
ATOM     19  C   UNL     1      -0.546   8.631  21.811  0.00  0.00    +0.000 C 
ATOM     20  C   UNL     1      -0.078   9.861  22.586  0.00  0.00    +0.000 C 
ENDBRANCH  18  20
BRANCH  18  21
ATOM     21  O   UNL     1      -0.539  12.178  23.083  0.00  0.00    +0.000 OA
BRANCH  21  22
ATOM     22  C   UNL     1      -1.713  12.742  23.545  0.00  0.00    +0.000 A 
ATOM     23  C   UNL     1      -2.990  12.188  23.505  0.00  0.00    +0.000 A 
ATOM     24  C   UNL     1      -4.098  12.909  23.992  0.00  0.00    +0.000 A 
ATOM     25  C   UNL     1      -3.950  14.182  24.521  0.00  0.00    +0.000 A 
ATOM     26  C   UNL     1      -2.665  14.745  24.582  0.00  0.00    +0.000 A 
ATOM     27  C   UNL     1      -1.570  14.026  24.097  0.00  0.00    +0.000 A 
ENDBRANCH  21  22
ENDBRANCH  18  21
ENDBRANCH   1  18
BRANCH   3  28
ATOM     28  C   UNL     1       0.723  13.137  18.764  0.00  0.00    +0.000 C 
BRANCH  28  29
ATOM     29  C   UNL     1       2.147  13.752  18.881  0.00  0.00    +0.000 C 
ATOM     30  C   UNL     1       2.213  15.197  18.423  0.00  0.00    +0.000 C 
ATOM     31  C   UNL     1       2.123  15.988  19.709  0.00  0.00    +0.000 C 
ATOM     32  C   UNL     1       2.764  15.092  20.752  0.00  0.00    +0.000 C 
ATOM     33  N   UNL     1       2.792  13.734  20.204  0.00  0.00    +0.000 NA
ATOM     34  H   UNL     1       2.281  13.113  20.839  0.00  0.00    +0.000 HD
ENDBRANCH  28  29
ENDBRANCH   3  28
TORSDOF 9
ENDMDL
MODEL 7
REMARK VINA RESULT:      -6.8      9.770     13.693
REMARK  Name = 
REMARK  11 active torsions:
REMARK  status: ('A' for Active; 'I' for Inactive)
REMARK    1  A    between atoms: C_1  and  C_2
REMARK    2  A    between atoms: C_2  and  C_3
REMARK    3  A    between atoms: C_3  and  O_4
REMARK    4  A    between atoms: C_3  and  C_11
REMARK    5  A    between atoms: O_4  and  C_5
REMARK    6  A    between atoms: N_13  and  C_14
REMARK    7  A    between atoms: N_13  and  C_20
REMARK    8  A    between atoms: C_14  and  C_15
REMARK    9  A    between atoms: C_24  and  C_25
REMARK   10  A    between atoms: C_31  and  O_32
REMARK   11  A    between atoms: O_32  and  C_33
REMARK                            x       y       z     vdW  Elec       q    Type
REMARK                         _______ _______ _______ _____ _____    ______ ____
ROOT
ATOM      1  C   UNL     1      -5.152  13.814  21.074  0.00  0.00    +0.000 C 
ATOM      2  O   UNL     1      -6.242  14.374  21.238  0.00  0.00    +0.000 OA
ATOM      3  N   UNL     1      -3.999  14.375  21.637  0.00  0.00    +0.000 N 
ENDROOT
BRANCH   3   4
ATOM      4  C   UNL     1      -2.819  13.604  21.755  0.00  0.00    +0.000 A 
ATOM      5  C   UNL     1      -2.871  12.553  22.680  0.00  0.00    +0.000 A 
ATOM      6  C   UNL     1      -1.760  11.757  22.906  0.00  0.00    +0.000 A 
ATOM      7  C   UNL     1      -0.591  11.994  22.188  0.00  0.00    +0.000 A 
ATOM      8  C   UNL     1      -0.506  13.010  21.209  0.00  0.00    +0.000 A 
ATOM      9  C   UNL     1      -1.657  13.823  20.984  0.00  0.00    +0.000 A 
BRANCH   8  10
ATOM     10  C   UNL     1       0.788  13.220  20.492  0.00  0.00    +0.000 A 
ATOM     11  C   UNL     1       1.062  12.636  19.242  0.00  0.00    +0.000 A 
ATOM     12  C   UNL     1       2.231  12.921  18.534  0.00  0.00    +0.000 A 
ATOM     13  C   UNL     1       3.191  13.755  19.088  0.00  0.00    +0.000 A 
ATOM     14  C   UNL     1       2.981  14.305  20.348  0.00  0.00    +0.000 A 
ATOM     15  C   UNL     1       1.789  14.051  21.035  0.00  0.00    +0.000 A 
ENDBRANCH   8  10
BRANCH   9  16
ATOM     16  O   UNL     1      -1.554  14.696  19.933  0.00  0.00    +0.000 OA
ATOM     17  C   UNL     1      -1.230  16.061  20.090  0.00  0.00    +0.000 C 
ENDBRANCH   9  16
ENDBRANCH   3   4
BRANCH   1  18
ATOM     18  C   UNL     1      -5.053  12.400  20.336  0.00  0.00    +0.000 C 
BRANCH  18  20
ATOM     19  C   UNL     1      -7.336  11.744  19.287  0.00  0.00    +0.000 C 
ATOM     20  C   UNL     1      -6.388  11.625  20.478  0.00  0.00    +0.000 C 
ENDBRANCH  18  20
BRANCH  18  21
ATOM     21  O   UNL     1      -4.761  12.519  18.933  0.00  0.00    +0.000 OA
BRANCH  21  22
ATOM     22  C   UNL     1      -3.850  11.678  18.324  0.00  0.00    +0.000 A 
ATOM     23  C   UNL     1      -2.583  11.328  18.783  0.00  0.00    +0.000 A 
ATOM     24  C   UNL     1      -1.757  10.478  18.024  0.00  0.00    +0.000 A 
ATOM     25  C   UNL     1      -2.177   9.969  16.805  0.00  0.00    +0.000 A 
ATOM     26  C   UNL     1      -3.458  10.301  16.338  0.00  0.00    +0.000 A 
ATOM     27  C   UNL     1      -4.274  11.145  17.095  0.00  0.00    +0.000 A 
ENDBRANCH  21  22
ENDBRANCH  18  21
ENDBRANCH   1  18
BRANCH   3  28
ATOM     28  C   UNL     1      -4.037  15.607  22.464  0.00  0.00    +0.000 C 
BRANCH  28  29
ATOM     29  C   UNL     1      -4.372  15.480  23.977  0.00  0.00    +0.000 C 
ATOM     30  C   UNL     1      -3.188  15.776  24.878  0.00  0.00    +0.000 C 
ATOM     31  C   UNL     1      -3.398  17.216  25.289  0.00  0.00    +0.000 C 
ATOM     32  C   UNL     1      -4.906  17.394  25.291  0.00  0.00    +0.000 C 
ATOM     33  N   UNL     1      -5.475  16.298  24.504  0.00  0.00    +0.000 NA
ATOM     34  H   UNL     1      -6.021  16.697  23.733  0.00  0.00    +0.000 HD
ENDBRANCH  28  29
ENDBRANCH   3  28
TORSDOF 9
ENDMDL
MODEL 8
REMARK VINA RESULT:      -6.7      8.703     11.540
REMARK  Name = 
REMARK  11 active torsions:
REMARK  status: ('A' for Active; 'I' for Inactive)
REMARK    1  A    between atoms: C_1  and  C_2
REMARK    2  A    between atoms: C_2  and  C_3
REMARK    3  A    between atoms: C_3  and  O_4
REMARK    4  A    between atoms: C_3  and  C_11
REMARK    5  A    between atoms: O_4  and  C_5
REMARK    6  A    between atoms: N_13  and  C_14
REMARK    7  A    between atoms: N_13  and  C_20
REMARK    8  A    between atoms: C_14  and  C_15
REMARK    9  A    between atoms: C_24  and  C_25
REMARK   10  A    between atoms: C_31  and  O_32
REMARK   11  A    between atoms: O_32  and  C_33
REMARK                            x       y       z     vdW  Elec       q    Type
REMARK                         _______ _______ _______ _____ _____    ______ ____
ROOT
ATOM      1  C   UNL     1       0.234  11.912  20.930  0.00  0.00    +0.000 C 
ATOM      2  O   UNL     1       1.406  12.098  21.275  0.00  0.00    +0.000 OA
ATOM      3  N   UNL     1      -0.174  12.295  19.646  0.00  0.00    +0.000 N 
ENDROOT
BRANCH   3   4
ATOM      4  C   UNL     1      -1.387  11.803  19.110  0.00  0.00    +0.000 A 
ATOM      5  C   UNL     1      -1.262  10.759  18.184  0.00  0.00    +0.000 A 
ATOM      6  C   UNL     1      -2.381  10.226  17.565  0.00  0.00    +0.000 A 
ATOM      7  C   UNL     1      -3.642  10.721  17.888  0.00  0.00    +0.000 A 
ATOM      8  C   UNL     1      -3.823  11.740  18.852  0.00  0.00    +0.000 A 
ATOM      9  C   UNL     1      -2.663  12.280  19.482  0.00  0.00    +0.000 A 
BRANCH   8  10
ATOM     10  C   UNL     1      -5.203  12.237  19.131  0.00  0.00    +0.000 A 
ATOM     11  C   UNL     1      -5.961  12.938  18.175  0.00  0.00    +0.000 A 
ATOM     12  C   UNL     1      -7.287  13.307  18.409  0.00  0.00    +0.000 A 
ATOM     13  C   UNL     1      -7.875  13.038  19.637  0.00  0.00    +0.000 A 
ATOM     14  C   UNL     1      -7.138  12.397  20.627  0.00  0.00    +0.000 A 
ATOM     15  C   UNL     1      -5.824  11.991  20.372  0.00  0.00    +0.000 A 
ENDBRANCH   8  10
BRANCH   9  16
ATOM     16  O   UNL     1      -2.913  13.163  20.500  0.00  0.00    +0.000 OA
ATOM     17  C   UNL     1      -3.228  14.522  20.284  0.00  0.00    +0.000 C 
ENDBRANCH   9  16
ENDBRANCH   3   4
BRANCH   1  18
ATOM     18  C   UNL     1      -0.793  11.134  21.876  0.00  0.00    +0.000 C 
BRANCH  18  20
ATOM     19  C   UNL     1       0.262   9.310  23.393  0.00  0.00    +0.000 C 
ATOM     20  C   UNL     1      -0.356   9.656  22.041  0.00  0.00    +0.000 C 
ENDBRANCH  18  20
BRANCH  18  21
ATOM     21  O   UNL     1      -0.894  11.711  23.189  0.00  0.00    +0.000 OA
BRANCH  21  22
ATOM     22  C   UNL     1      -1.845  12.673  23.470  0.00  0.00    +0.000 A 
ATOM     23  C   UNL     1      -1.633  14.029  23.702  0.00  0.00    +0.000 A 
ATOM     24  C   UNL     1      -2.713  14.879  24.009  0.00  0.00    +0.000 A 
ATOM     25  C   UNL     1      -4.009  14.394  24.089  0.00  0.00    +0.000 A 
ATOM     26  C   UNL     1      -4.238  13.031  23.842  0.00  0.00    +0.000 A 
ATOM     27  C   UNL     1      -3.163  12.193  23.538  0.00  0.00    +0.000 A 
ENDBRANCH  21  22
ENDBRANCH  18  21
ENDBRANCH   1  18
BRANCH   3  28
ATOM     28  C   UNL     1       0.762  12.887  18.658  0.00  0.00    +0.000 C 
BRANCH  28  29
ATOM     29  C   UNL     1       1.120  14.395  18.781  0.00  0.00    +0.000 C 
ATOM     30  C   UNL     1      -0.059  15.257  19.192  0.00  0.00    +0.000 C 
ATOM     31  C   UNL     1       0.123  15.430  20.683  0.00  0.00    +0.000 C 
ATOM     32  C   UNL     1       1.626  15.378  20.891  0.00  0.00    +0.000 C 
ATOM     33  N   UNL     1       2.211  14.766  19.696  0.00  0.00    +0.000 NA
ATOM     34  H   UNL     1       2.737  13.933  19.978  0.00  0.00    +0.000 HD
ENDBRANCH  28  29
ENDBRANCH   3  28
TORSDOF 9
ENDMDL
MODEL 9
REMARK VINA RESULT:      -6.6      8.322     11.588
REMARK  Name = 
REMARK  11 active torsions:
REMARK  status: ('A' for Active; 'I' for Inactive)
REMARK    1  A    between atoms: C_1  and  C_2
REMARK    2  A    between atoms: C_2  and  C_3
REMARK    3  A    between atoms: C_3  and  O_4
REMARK    4  A    between atoms: C_3  and  C_11
REMARK    5  A    between atoms: O_4  and  C_5
REMARK    6  A    between atoms: N_13  and  C_14
REMARK    7  A    between atoms: N_13  and  C_20
REMARK    8  A    between atoms: C_14  and  C_15
REMARK    9  A    between atoms: C_24  and  C_25
REMARK   10  A    between atoms: C_31  and  O_32
REMARK   11  A    between atoms: O_32  and  C_33
REMARK                            x       y       z     vdW  Elec       q    Type
REMARK                         _______ _______ _______ _____ _____    ______ ____
ROOT
ATOM      1  C   UNL     1      -1.420  14.088  21.374  0.00  0.00    +0.000 C 
ATOM      2  O   UNL     1      -1.133  15.093  22.034  0.00  0.00    +0.000 OA
ATOM      3  N   UNL     1      -0.978  13.985  20.049  0.00  0.00    +0.000 N 
ENDROOT
BRANCH   3   4
ATOM      4  C   UNL     1      -0.998  12.735  19.388  0.00  0.00    +0.000 A 
ATOM      5  C   UNL     1      -2.125  12.487  18.592  0.00  0.00    +0.000 A 
ATOM      6  C   UNL     1      -2.269  11.279  17.930  0.00  0.00    +0.000 A 
ATOM      7  C   UNL     1      -1.271  10.314  18.042  0.00  0.00    +0.000 A 
ATOM      8  C   UNL     1      -0.094  10.537  18.793  0.00  0.00    +0.000 A 
ATOM      9  C   UNL     1       0.043  11.785  19.470  0.00  0.00    +0.000 A 
BRANCH   8  10
ATOM     10  C   UNL     1       0.924   9.448  18.886  0.00  0.00    +0.000 A 
ATOM     11  C   UNL     1       1.102   8.678  20.050  0.00  0.00    +0.000 A 
ATOM     12  C   UNL     1       1.983   7.595  20.093  0.00  0.00    +0.000 A 
ATOM     13  C   UNL     1       2.760   7.290  18.984  0.00  0.00    +0.000 A 
ATOM     14  C   UNL     1       2.653   8.065  17.834  0.00  0.00    +0.000 A 
ATOM     15  C   UNL     1       1.738   9.122  17.782  0.00  0.00    +0.000 A 
ENDBRANCH   8  10
BRANCH   9  16
ATOM     16  O   UNL     1       1.260  11.992  20.066  0.00  0.00    +0.000 OA
ATOM     17  C   UNL     1       2.319  12.687  19.441  0.00  0.00    +0.000 C 
ENDBRANCH   9  16
ENDBRANCH   3   4
BRANCH   1  18
ATOM     18  C   UNL     1      -2.181  12.851  22.041  0.00  0.00    +0.000 C 
BRANCH  18  20
ATOM     19  C   UNL     1      -0.957  10.701  22.831  0.00  0.00    +0.000 C 
ATOM     20  C   UNL     1      -1.275  12.170  23.099  0.00  0.00    +0.000 C 
ENDBRANCH  18  20
BRANCH  18  21
ATOM     21  O   UNL     1      -3.406  13.231  22.692  0.00  0.00    +0.000 OA
BRANCH  21  22
ATOM     22  C   UNL     1      -4.534  13.537  21.957  0.00  0.00    +0.000 A 
ATOM     23  C   UNL     1      -5.323  14.681  22.053  0.00  0.00    +0.000 A 
ATOM     24  C   UNL     1      -6.469  14.830  21.249  0.00  0.00    +0.000 A 
ATOM     25  C   UNL     1      -6.842  13.849  20.343  0.00  0.00    +0.000 A 
ATOM     26  C   UNL     1      -6.047  12.698  20.224  0.00  0.00    +0.000 A 
ATOM     27  C   UNL     1      -4.912  12.556  21.025  0.00  0.00    +0.000 A 
ENDBRANCH  21  22
ENDBRANCH  18  21
ENDBRANCH   1  18
BRANCH   3  28
ATOM     28  C   UNL     1      -0.138  15.028  19.408  0.00  0.00    +0.000 C 
BRANCH  28  29
ATOM     29  C   UNL     1      -0.712  16.467  19.269  0.00  0.00    +0.000 C 
ATOM     30  C   UNL     1       0.148  17.520  19.943  0.00  0.00    +0.000 C 
ATOM     31  C   UNL     1       0.970  18.093  18.810  0.00  0.00    +0.000 C 
ATOM     32  C   UNL     1       0.081  17.957  17.588  0.00  0.00    +0.000 C 
ATOM     33  N   UNL     1      -0.957  16.976  17.911  0.00  0.00    +0.000 NA
ATOM     34  H   UNL     1      -0.908  16.210  17.231  0.00  0.00    +0.000 HD
ENDBRANCH  28  29
ENDBRANCH   3  28
TORSDOF 9
ENDMDL
