MODEL 1
REMARK VINA RESULT:      -8.6      0.000      0.000
REMARK  Name = 
REMARK  7 active torsions:
REMARK  status: ('A' for Active; 'I' for Inactive)
REMARK    1  A    between atoms: C_1  and  C_2
REMARK    2  A    between atoms: C_11  and  C_13
REMARK    3  A    between atoms: C_13  and  S_14
REMARK    4  A    between atoms: S_14  and  C_15
REMARK    5  A    between atoms: C_18  and  C_19
REMARK    6  A    between atoms: C_19  and  N_20
REMARK    7  A    between atoms: N_29  and  C_30
REMARK                            x       y       z     vdW  Elec       q    Type
REMARK                         _______ _______ _______ _____ _____    ______ ____
ROOT
ATOM      1  C   UNL     1       2.095   7.433  19.684  0.00  0.00    +0.000 A 
ATOM      2  N   UNL     1       2.667   7.748  18.545  0.00  0.00    +0.000 NA
ATOM      3  N   UNL     1       3.018   6.592  17.886  0.00  0.00    +0.000 NA
ATOM      4  C   UNL     1       2.645   5.557  18.617  0.00  0.00    +0.000 A 
ATOM      5  N   UNL     1       2.116   6.059  19.804  0.00  0.00    +0.000 N 
ATOM      6  C   UNL     1       1.707   5.308  20.956  0.00  0.00    +0.000 C 
ENDROOT
BRANCH   1   7
ATOM      7  S   UNL     1       1.288   8.631  20.685  0.00  0.00    +0.000 S 
BRANCH   7   8
ATOM      8  C   UNL     1       1.067  10.180  19.767  0.00  0.00    +0.000 C 
BRANCH   8  19
ATOM      9  C   UNL     1      -0.544  12.918  20.429  0.00  0.00    +0.000 C 
ATOM     10  C   UNL     1      -1.477  11.725  20.210  0.00  0.00    +0.000 C 
ATOM     11  C   UNL     1      -2.931  12.244  20.107  0.00  0.00    +0.000 C 
ATOM     12  C   UNL     1      -3.334  11.800  18.745  0.00  0.00    +0.000 A 
ATOM     13  C   UNL     1      -4.564  12.054  18.141  0.00  0.00    +0.000 A 
ATOM     14  C   UNL     1      -4.793  11.537  16.871  0.00  0.00    +0.000 A 
ATOM     15  C   UNL     1      -3.798  10.783  16.233  0.00  0.00    +0.000 A 
ATOM     16  C   UNL     1      -2.560  10.539  16.861  0.00  0.00    +0.000 A 
ATOM     17  C   UNL     1      -2.331  11.055  18.123  0.00  0.00    +0.000 A 
ATOM     18  N   UNL     1      -1.186  10.950  18.962  0.00  0.00    +0.000 N 
ATOM     19  C   UNL     1      -0.051  10.155  18.693  0.00  0.00    +0.000 C 
ATOM     20  O   UNL     1       0.092   9.512  17.650  0.00  0.00    +0.000 OA
ENDBRANCH   8  19
ENDBRANCH   7   8
ENDBRANCH   1   7
BRANCH   4  21
ATOM     21  C   UNL     1       2.960   4.120  18.252  0.00  0.00    +0.000 C 
BRANCH  21  22
ATOM     22  N   UNL     1       4.375   3.759  18.102  0.00  0.00    +0.000 N 
ATOM     23  N   UNL     1       5.135   3.785  19.221  0.00  0.00    +0.000 NA
ATOM     24  N   UNL     1       6.245   4.449  18.953  0.00  0.00    +0.000 NA
ATOM     25  C   UNL     1       6.325   4.598  17.604  0.00  0.00    +0.000 A 
ATOM     26  C   UNL     1       7.329   5.186  16.824  0.00  0.00    +0.000 A 
ATOM     27  C   UNL     1       7.248   5.079  15.438  0.00  0.00    +0.000 A 
ATOM     28  C   UNL     1       6.178   4.407  14.845  0.00  0.00    +0.000 A 
ATOM     29  C   UNL     1       5.101   3.902  15.608  0.00  0.00    +0.000 A 
ATOM     30  C   UNL     1       5.195   4.036  17.002  0.00  0.00    +0.000 A 
ENDBRANCH  21  22
ENDBRANCH   4  21
TORSDOF 5
ENDMDL
MODEL 2
REMARK VINA RESULT:      -8.6      2.493      3.998
REMARK  Name = 
REMARK  7 active torsions:
REMARK  status: ('A' for Active; 'I' for Inactive)
REMARK    1  A    between atoms: C_1  and  C_2
REMARK    2  A    between atoms: C_11  and  C_13
REMARK    3  A    between atoms: C_13  and  S_14
REMARK    4  A    between atoms: S_14  and  C_15
REMARK    5  A    between atoms: C_18  and  C_19
REMARK    6  A    between atoms: C_19  and  N_20
REMARK    7  A    between atoms: N_29  and  C_30
REMARK                            x       y       z     vdW  Elec       q    Type
REMARK                         _______ _______ _______ _____ _____    ______ ____
ROOT
ATOM      1  C   UNL     1       0.824   9.631  20.277  0.00  0.00    +0.000 A 
ATOM      2  N   UNL     1       0.780   8.693  21.195  0.00  0.00    +0.000 NA
ATOM      3  N   UNL     1       1.511   7.610  20.764  0.00  0.00    +0.000 NA
ATOM      4  C   UNL     1       2.023   7.888  19.578  0.00  0.00    +0.000 A 
ATOM      5  N   UNL     1       1.546   9.143  19.207  0.00  0.00    +0.000 N 
ATOM      6  C   UNL     1       1.724   9.797  17.943  0.00  0.00    +0.000 C 
ENDROOT
BRANCH   1   7
ATOM      7  S   UNL     1       0.220  11.254  20.571  0.00  0.00    +0.000 S 
BRANCH   7   8
ATOM      8  C   UNL     1      -0.915  11.758  19.248  0.00  0.00    +0.000 C 
BRANCH   8  19
ATOM      9  C   UNL     1      -2.724   9.891  17.306  0.00  0.00    +0.000 C 
ATOM     10  C   UNL     1      -3.248  11.327  17.397  0.00  0.00    +0.000 C 
ATOM     11  C   UNL     1      -4.647  11.388  16.738  0.00  0.00    +0.000 C 
ATOM     12  C   UNL     1      -5.510  11.841  17.863  0.00  0.00    +0.000 A 
ATOM     13  C   UNL     1      -6.890  12.022  17.803  0.00  0.00    +0.000 A 
ATOM     14  C   UNL     1      -7.544  12.484  18.940  0.00  0.00    +0.000 A 
ATOM     15  C   UNL     1      -6.814  12.753  20.106  0.00  0.00    +0.000 A 
ATOM     16  C   UNL     1      -5.417  12.562  20.146  0.00  0.00    +0.000 A 
ATOM     17  C   UNL     1      -4.768  12.100  19.017  0.00  0.00    +0.000 A 
ATOM     18  N   UNL     1      -3.387  11.832  18.799  0.00  0.00    +0.000 N 
ATOM     19  C   UNL     1      -2.350  12.117  19.714  0.00  0.00    +0.000 C 
ATOM     20  O   UNL     1      -2.550  12.572  20.842  0.00  0.00    +0.000 OA
ENDBRANCH   8  19
ENDBRANCH   7   8
ENDBRANCH   1   7
BRANCH   4  21
ATOM     21  C   UNL     1       2.804   6.887  18.751  0.00  0.00    +0.000 C 
BRANCH  21  22
ATOM     22  N   UNL     1       3.213   5.641  19.413  0.00  0.00    +0.000 N 
ATOM     23  N   UNL     1       4.536   5.358  19.421  0.00  0.00    +0.000 NA
ATOM     24  N   UNL     1       4.694   4.104  19.036  0.00  0.00    +0.000 NA
ATOM     25  C   UNL     1       3.472   3.506  19.057  0.00  0.00    +0.000 A 
ATOM     26  C   UNL     1       3.119   2.179  18.781  0.00  0.00    +0.000 A 
ATOM     27  C   UNL     1       1.808   1.772  19.023  0.00  0.00    +0.000 A 
ATOM     28  C   UNL     1       0.870   2.678  19.520  0.00  0.00    +0.000 A 
ATOM     29  C   UNL     1       1.179   4.046  19.702  0.00  0.00    +0.000 A 
ATOM     30  C   UNL     1       2.500   4.437  19.437  0.00  0.00    +0.000 A 
ENDBRANCH  21  22
ENDBRANCH   4  21
TORSDOF 5
ENDMDL
MODEL 3
REMARK VINA RESULT:      -8.4      2.307      3.576
REMARK  Name = 
REMARK  7 active torsions:
REMARK  status: ('A' for Active; 'I' for Inactive)
REMARK    1  A    between atoms: C_1  and  C_2
REMARK    2  A    between atoms: C_11  and  C_13
REMARK    3  A    between atoms: C_13  and  S_14
REMARK    4  A    between atoms: S_14  and  C_15
REMARK    5  A    between atoms: C_18  and  C_19
REMARK    6  A    between atoms: C_19  and  N_20
REMARK    7  A    between atoms: N_29  and  C_30
REMARK                            x       y       z     vdW  Elec       q    Type
REMARK                         _______ _______ _______ _____ _____    ______ ____
ROOT
ATOM      1  C   UNL     1       1.142   9.507  19.181  0.00  0.00    +0.000 A 
ATOM      2  N   UNL     1       1.478   9.993  18.009  0.00  0.00    +0.000 NA
ATOM      3  N   UNL     1       2.309   9.098  17.375  0.00  0.00    +0.000 NA
ATOM      4  C   UNL     1       2.472   8.044  18.155  0.00  0.00    +0.000 A 
ATOM      5  N   UNL     1       1.797   8.304  19.346  0.00  0.00    +0.000 N 
ATOM      6  C   UNL     1       1.807   7.506  20.538  0.00  0.00    +0.000 C 
ENDROOT
BRANCH   1   7
ATOM      7  S   UNL     1      -0.105  10.246  20.176  0.00  0.00    +0.000 S 
BRANCH   7   8
ATOM      8  C   UNL     1      -0.837  11.668  19.320  0.00  0.00    +0.000 C 
BRANCH   8  19
ATOM      9  C   UNL     1      -2.603   9.867  17.278  0.00  0.00    +0.000 C 
ATOM     10  C   UNL     1      -3.120  11.303  17.393  0.00  0.00    +0.000 C 
ATOM     11  C   UNL     1      -4.499  11.391  16.698  0.00  0.00    +0.000 C 
ATOM     12  C   UNL     1      -5.391  11.820  17.810  0.00  0.00    +0.000 A 
ATOM     13  C   UNL     1      -6.768  12.012  17.716  0.00  0.00    +0.000 A 
ATOM     14  C   UNL     1      -7.451  12.447  18.846  0.00  0.00    +0.000 A 
ATOM     15  C   UNL     1      -6.752  12.680  20.039  0.00  0.00    +0.000 A 
ATOM     16  C   UNL     1      -5.358  12.478  20.113  0.00  0.00    +0.000 A 
ATOM     17  C   UNL     1      -4.680  12.043  18.990  0.00  0.00    +0.000 A 
ATOM     18  N   UNL     1      -3.295  11.771  18.804  0.00  0.00    +0.000 N 
ATOM     19  C   UNL     1      -2.283  12.024  19.755  0.00  0.00    +0.000 C 
ATOM     20  O   UNL     1      -2.511  12.451  20.889  0.00  0.00    +0.000 OA
ENDBRANCH   8  19
ENDBRANCH   7   8
ENDBRANCH   1   7
BRANCH   4  21
ATOM     21  C   UNL     1       3.406   6.898  17.824  0.00  0.00    +0.000 C 
BRANCH  21  22
ATOM     22  N   UNL     1       3.498   5.803  18.799  0.00  0.00    +0.000 N 
ATOM     23  N   UNL     1       4.703   5.603  19.381  0.00  0.00    +0.000 NA
ATOM     24  N   UNL     1       4.986   4.314  19.315  0.00  0.00    +0.000 NA
ATOM     25  C   UNL     1       3.851   3.658  18.953  0.00  0.00    +0.000 A 
ATOM     26  C   UNL     1       3.620   2.285  18.794  0.00  0.00    +0.000 A 
ATOM     27  C   UNL     1       2.317   1.848  18.562  0.00  0.00    +0.000 A 
ATOM     28  C   UNL     1       1.271   2.768  18.481  0.00  0.00    +0.000 A 
ATOM     29  C   UNL     1       1.499   4.163  18.530  0.00  0.00    +0.000 A 
ATOM     30  C   UNL     1       2.820   4.580  18.747  0.00  0.00    +0.000 A 
ENDBRANCH  21  22
ENDBRANCH   4  21
TORSDOF 5
ENDMDL
MODEL 4
REMARK VINA RESULT:      -8.4      2.161      3.307
REMARK  Name = 
REMARK  7 active torsions:
REMARK  status: ('A' for Active; 'I' for Inactive)
REMARK    1  A    between atoms: C_1  and  C_2
REMARK    2  A    between atoms: C_11  and  C_13
REMARK    3  A    between atoms: C_13  and  S_14
REMARK    4  A    between atoms: S_14  and  C_15
REMARK    5  A    between atoms: C_18  and  C_19
REMARK    6  A    between atoms: C_19  and  N_20
REMARK    7  A    between atoms: N_29  and  C_30
REMARK                            x       y       z     vdW  Elec       q    Type
REMARK                         _______ _______ _______ _____ _____    ______ ____
ROOT
ATOM      1  C   UNL     1       1.948   7.644  20.042  0.00  0.00    +0.000 A 
ATOM      2  N   UNL     1       2.203   8.315  18.943  0.00  0.00    +0.000 NA
ATOM      3  N   UNL     1       2.559   7.430  17.951  0.00  0.00    +0.000 NA
ATOM      4  C   UNL     1       2.507   6.203  18.438  0.00  0.00    +0.000 A 
ATOM      5  N   UNL     1       2.189   6.309  19.790  0.00  0.00    +0.000 N 
ATOM      6  C   UNL     1       2.156   5.250  20.757  0.00  0.00    +0.000 C 
ENDROOT
BRANCH   1   7
ATOM      7  S   UNL     1       1.222   8.402  21.452  0.00  0.00    +0.000 S 
BRANCH   7   8
ATOM      8  C   UNL     1       0.473   9.991  21.001  0.00  0.00    +0.000 C 
BRANCH   8  19
ATOM      9  C   UNL     1      -1.493  11.682  19.049  0.00  0.00    +0.000 C 
ATOM     10  C   UNL     1      -1.129  12.448  20.323  0.00  0.00    +0.000 C 
ATOM     11  C   UNL     1      -2.028  13.703  20.423  0.00  0.00    +0.000 C 
ATOM     12  C   UNL     1      -2.747  13.480  21.707  0.00  0.00    +0.000 A 
ATOM     13  C   UNL     1      -3.719  14.320  22.247  0.00  0.00    +0.000 A 
ATOM     14  C   UNL     1      -4.271  13.982  23.477  0.00  0.00    +0.000 A 
ATOM     15  C   UNL     1      -3.847  12.822  24.139  0.00  0.00    +0.000 A 
ATOM     16  C   UNL     1      -2.862  11.985  23.575  0.00  0.00    +0.000 A 
ATOM     17  C   UNL     1      -2.315  12.320  22.350  0.00  0.00    +0.000 A 
ATOM     18  N   UNL     1      -1.319  11.656  21.580  0.00  0.00    +0.000 N 
ATOM     19  C   UNL     1      -0.579  10.531  22.004  0.00  0.00    +0.000 C 
ATOM     20  O   UNL     1      -0.775   9.959  23.079  0.00  0.00    +0.000 OA
ENDBRANCH   8  19
ENDBRANCH   7   8
ENDBRANCH   1   7
BRANCH   4  21
ATOM     21  C   UNL     1       2.933   4.977  17.657  0.00  0.00    +0.000 C 
BRANCH  21  22
ATOM     22  N   UNL     1       4.332   4.549  17.786  0.00  0.00    +0.000 N 
ATOM     23  N   UNL     1       4.584   3.534  18.643  0.00  0.00    +0.000 NA
ATOM     24  N   UNL     1       5.601   3.883  19.411  0.00  0.00    +0.000 NA
ATOM     25  C   UNL     1       6.176   4.987  18.863  0.00  0.00    +0.000 A 
ATOM     26  C   UNL     1       7.306   5.706  19.271  0.00  0.00    +0.000 A 
ATOM     27  C   UNL     1       7.787   6.721  18.447  0.00  0.00    +0.000 A 
ATOM     28  C   UNL     1       7.142   7.016  17.245  0.00  0.00    +0.000 A 
ATOM     29  C   UNL     1       5.939   6.376  16.868  0.00  0.00    +0.000 A 
ATOM     30  C   UNL     1       5.464   5.369  17.721  0.00  0.00    +0.000 A 
ENDBRANCH  21  22
ENDBRANCH   4  21
TORSDOF 5
ENDMDL
MODEL 5
REMARK VINA RESULT:      -8.3      1.809      2.799
REMARK  Name = 
REMARK  7 active torsions:
REMARK  status: ('A' for Active; 'I' for Inactive)
REMARK    1  A    between atoms: C_1  and  C_2
REMARK    2  A    between atoms: C_11  and  C_13
REMARK    3  A    between atoms: C_13  and  S_14
REMARK    4  A    between atoms: S_14  and  C_15
REMARK    5  A    between atoms: C_18  and  C_19
REMARK    6  A    between atoms: C_19  and  N_20
REMARK    7  A    between atoms: N_29  and  C_30
REMARK                            x       y       z     vdW  Elec       q    Type
REMARK                         _______ _______ _______ _____ _____    ______ ____
ROOT
ATOM      1  C   UNL     1       1.947   6.941  20.192  0.00  0.00    +0.000 A 
ATOM      2  N   UNL     1       2.335   7.514  19.077  0.00  0.00    +0.000 NA
ATOM      3  N   UNL     1       2.690   6.538  18.173  0.00  0.00    +0.000 NA
ATOM      4  C   UNL     1       2.504   5.355  18.730  0.00  0.00    +0.000 A 
ATOM      5  N   UNL     1       2.097   5.577  20.044  0.00  0.00    +0.000 N 
ATOM      6  C   UNL     1       1.908   4.593  21.070  0.00  0.00    +0.000 C 
ENDROOT
BRANCH   1   7
ATOM      7  S   UNL     1       1.183   7.847  21.490  0.00  0.00    +0.000 S 
BRANCH   7   8
ATOM      8  C   UNL     1       1.055   9.601  21.048  0.00  0.00    +0.000 C 
BRANCH   8  19
ATOM      9  C   UNL     1      -1.262  10.274  18.877  0.00  0.00    +0.000 C 
ATOM     10  C   UNL     1      -0.860  11.496  19.706  0.00  0.00    +0.000 C 
ATOM     11  C   UNL     1      -1.876  12.633  19.439  0.00  0.00    +0.000 C 
ATOM     12  C   UNL     1      -2.438  12.884  20.794  0.00  0.00    +0.000 A 
ATOM     13  C   UNL     1      -3.437  13.806  21.098  0.00  0.00    +0.000 A 
ATOM     14  C   UNL     1      -3.828  13.941  22.426  0.00  0.00    +0.000 A 
ATOM     15  C   UNL     1      -3.218  13.158  23.416  0.00  0.00    +0.000 A 
ATOM     16  C   UNL     1      -2.209  12.230  23.088  0.00  0.00    +0.000 A 
ATOM     17  C   UNL     1      -1.823  12.095  21.767  0.00  0.00    +0.000 A 
ATOM     18  N   UNL     1      -0.841  11.246  21.182  0.00  0.00    +0.000 N 
ATOM     19  C   UNL     1       0.053  10.423  21.900  0.00  0.00    +0.000 C 
ATOM     20  O   UNL     1       0.026  10.304  23.127  0.00  0.00    +0.000 OA
ENDBRANCH   8  19
ENDBRANCH   7   8
ENDBRANCH   1   7
BRANCH   4  21
ATOM     21  C   UNL     1       2.886   4.050  18.063  0.00  0.00    +0.000 C 
BRANCH  21  22
ATOM     22  N   UNL     1       4.315   3.717  18.004  0.00  0.00    +0.000 N 
ATOM     23  N   UNL     1       4.982   3.674  19.180  0.00  0.00    +0.000 NA
ATOM     24  N   UNL     1       6.099   4.369  19.049  0.00  0.00    +0.000 NA
ATOM     25  C   UNL     1       6.283   4.613  17.724  0.00  0.00    +0.000 A 
ATOM     26  C   UNL     1       7.336   5.265  17.070  0.00  0.00    +0.000 A 
ATOM     27  C   UNL     1       7.367   5.254  15.677  0.00  0.00    +0.000 A 
ATOM     28  C   UNL     1       6.361   4.611  14.955  0.00  0.00    +0.000 A 
ATOM     29  C   UNL     1       5.234   4.041  15.593  0.00  0.00    +0.000 A 
ATOM     30  C   UNL     1       5.215   4.079  16.995  0.00  0.00    +0.000 A 
ENDBRANCH  21  22
ENDBRANCH   4  21
TORSDOF 5
ENDMDL
MODEL 6
REMARK VINA RESULT:      -8.2      1.142      1.434
REMARK  Name = 
REMARK  7 active torsions:
REMARK  status: ('A' for Active; 'I' for Inactive)
REMARK    1  A    between atoms: C_1  and  C_2
REMARK    2  A    between atoms: C_11  and  C_13
REMARK    3  A    between atoms: C_13  and  S_14
REMARK    4  A    between atoms: S_14  and  C_15
REMARK    5  A    between atoms: C_18  and  C_19
REMARK    6  A    between atoms: C_19  and  N_20
REMARK    7  A    between atoms: N_29  and  C_30
REMARK                            x       y       z     vdW  Elec       q    Type
REMARK                         _______ _______ _______ _____ _____    ______ ____
ROOT
ATOM      1  C   UNL     1       1.996   7.918  19.472  0.00  0.00    +0.000 A 
ATOM      2  N   UNL     1       2.457   8.428  18.354  0.00  0.00    +0.000 NA
ATOM      3  N   UNL     1       2.886   7.406  17.539  0.00  0.00    +0.000 NA
ATOM      4  C   UNL     1       2.672   6.256  18.152  0.00  0.00    +0.000 A 
ATOM      5  N   UNL     1       2.170   6.550  19.418  0.00  0.00    +0.000 N 
ATOM      6  C   UNL     1       1.919   5.626  20.486  0.00  0.00    +0.000 C 
ENDROOT
BRANCH   1   7
ATOM      7  S   UNL     1       1.132   8.889  20.655  0.00  0.00    +0.000 S 
BRANCH   7   8
ATOM      8  C   UNL     1       0.734  10.520  19.968  0.00  0.00    +0.000 C 
BRANCH   8  19
ATOM      9  C   UNL     1      -0.739  13.258  20.897  0.00  0.00    +0.000 C 
ATOM     10  C   UNL     1      -1.715  12.089  20.739  0.00  0.00    +0.000 C 
ATOM     11  C   UNL     1      -3.161  12.636  20.814  0.00  0.00    +0.000 C 
ATOM     12  C   UNL     1      -3.718  12.250  19.489  0.00  0.00    +0.000 A 
ATOM     13  C   UNL     1      -5.000  12.546  19.032  0.00  0.00    +0.000 A 
ATOM     14  C   UNL     1      -5.376  12.081  17.777  0.00  0.00    +0.000 A 
ATOM     15  C   UNL     1      -4.471  11.335  17.008  0.00  0.00    +0.000 A 
ATOM     16  C   UNL     1      -3.177  11.047  17.489  0.00  0.00    +0.000 A 
ATOM     17  C   UNL     1      -2.803  11.512  18.735  0.00  0.00    +0.000 A 
ATOM     18  N   UNL     1      -1.576  11.357  19.441  0.00  0.00    +0.000 N 
ATOM     19  C   UNL     1      -0.494  10.553  19.022  0.00  0.00    +0.000 C 
ATOM     20  O   UNL     1      -0.477   9.948  17.948  0.00  0.00    +0.000 OA
ENDBRANCH   8  19
ENDBRANCH   7   8
ENDBRANCH   1   7
BRANCH   4  21
ATOM     21  C   UNL     1       3.114   4.918  17.594  0.00  0.00    +0.000 C 
BRANCH  21  22
ATOM     22  N   UNL     1       4.508   4.519  17.828  0.00  0.00    +0.000 N 
ATOM     23  N   UNL     1       4.725   3.587  18.784  0.00  0.00    +0.000 NA
ATOM     24  N   UNL     1       5.702   4.015  19.565  0.00  0.00    +0.000 NA
ATOM     25  C   UNL     1       6.294   5.072  18.948  0.00  0.00    +0.000 A 
ATOM     26  C   UNL     1       7.399   5.837  19.344  0.00  0.00    +0.000 A 
ATOM     27  C   UNL     1       7.912   6.779  18.456  0.00  0.00    +0.000 A 
ATOM     28  C   UNL     1       7.325   6.959  17.203  0.00  0.00    +0.000 A 
ATOM     29  C   UNL     1       6.146   6.274  16.828  0.00  0.00    +0.000 A 
ATOM     30  C   UNL     1       5.637   5.342  17.744  0.00  0.00    +0.000 A 
ENDBRANCH  21  22
ENDBRANCH   4  21
TORSDOF 5
ENDMDL
MODEL 7
REMARK VINA RESULT:      -8.2      2.276      3.958
REMARK  Name = 
REMARK  7 active torsions:
REMARK  status: ('A' for Active; 'I' for Inactive)
REMARK    1  A    between atoms: C_1  and  C_2
REMARK    2  A    between atoms: C_11  and  C_13
REMARK    3  A    between atoms: C_13  and  S_14
REMARK    4  A    between atoms: S_14  and  C_15
REMARK    5  A    between atoms: C_18  and  C_19
REMARK    6  A    between atoms: C_19  and  N_20
REMARK    7  A    between atoms: N_29  and  C_30
REMARK                            x       y       z     vdW  Elec       q    Type
REMARK                         _______ _______ _______ _____ _____    ______ ____
ROOT
ATOM      1  C   UNL     1       1.560   8.885  18.973  0.00  0.00    +0.000 A 
ATOM      2  N   UNL     1       1.940   9.230  17.765  0.00  0.00    +0.000 NA
ATOM      3  N   UNL     1       2.725   8.229  17.239  0.00  0.00    +0.000 NA
ATOM      4  C   UNL     1       2.817   7.253  18.124  0.00  0.00    +0.000 A 
ATOM      5  N   UNL     1       2.143   7.669  19.270  0.00  0.00    +0.000 N 
ATOM      6  C   UNL     1       2.091   6.998  20.536  0.00  0.00    +0.000 C 
ENDROOT
BRANCH   1   7
ATOM      7  S   UNL     1       0.346   9.790  19.864  0.00  0.00    +0.000 S 
BRANCH   7   8
ATOM      8  C   UNL     1      -0.380  11.079  18.815  0.00  0.00    +0.000 C 
BRANCH   8  19
ATOM      9  C   UNL     1      -2.361   9.582  16.725  0.00  0.00    +0.000 C 
ATOM     10  C   UNL     1      -2.697  11.066  16.893  0.00  0.00    +0.000 C 
ATOM     11  C   UNL     1      -4.057  11.347  16.212  0.00  0.00    +0.000 C 
ATOM     12  C   UNL     1      -4.885  11.844  17.345  0.00  0.00    +0.000 A 
ATOM     13  C   UNL     1      -6.228  12.207  17.268  0.00  0.00    +0.000 A 
ATOM     14  C   UNL     1      -6.848  12.684  18.418  0.00  0.00    +0.000 A 
ATOM     15  C   UNL     1      -6.122  12.787  19.613  0.00  0.00    +0.000 A 
ATOM     16  C   UNL     1      -4.764  12.412  19.669  0.00  0.00    +0.000 A 
ATOM     17  C   UNL     1      -4.148  11.936  18.527  0.00  0.00    +0.000 A 
ATOM     18  N   UNL     1      -2.808  11.502  18.321  0.00  0.00    +0.000 N 
ATOM     19  C   UNL     1      -1.769  11.595  19.272  0.00  0.00    +0.000 C 
ATOM     20  O   UNL     1      -1.939  12.007  20.422  0.00  0.00    +0.000 OA
ENDBRANCH   8  19
ENDBRANCH   7   8
ENDBRANCH   1   7
BRANCH   4  21
ATOM     21  C   UNL     1       3.688   6.029  17.928  0.00  0.00    +0.000 C 
BRANCH  21  22
ATOM     22  N   UNL     1       3.032   4.717  18.012  0.00  0.00    +0.000 N 
ATOM     23  N   UNL     1       2.064   4.458  17.103  0.00  0.00    +0.000 NA
ATOM     24  N   UNL     1       1.013   3.977  17.743  0.00  0.00    +0.000 NA
ATOM     25  C   UNL     1       1.404   3.664  19.007  0.00  0.00    +0.000 A 
ATOM     26  C   UNL     1       0.676   3.083  20.053  0.00  0.00    +0.000 A 
ATOM     27  C   UNL     1       1.350   2.719  21.217  0.00  0.00    +0.000 A 
ATOM     28  C   UNL     1       2.723   2.943  21.334  0.00  0.00    +0.000 A 
ATOM     29  C   UNL     1       3.454   3.625  20.334  0.00  0.00    +0.000 A 
ATOM     30  C   UNL     1       2.751   3.997  19.179  0.00  0.00    +0.000 A 
ENDBRANCH  21  22
ENDBRANCH   4  21
TORSDOF 5
ENDMDL
MODEL 8
REMARK VINA RESULT:      -8.1      1.847      3.072
REMARK  Name = 
REMARK  7 active torsions:
REMARK  status: ('A' for Active; 'I' for Inactive)
REMARK    1  A    between atoms: C_1  and  C_2
REMARK    2  A    between atoms: C_11  and  C_13
REMARK    3  A    between atoms: C_13  and  S_14
REMARK    4  A    between atoms: S_14  and  C_15
REMARK    5  A    between atoms: C_18  and  C_19
REMARK    6  A    between atoms: C_19  and  N_20
REMARK    7  A    between atoms: N_29  and  C_30
REMARK                            x       y       z     vdW  Elec       q    Type
REMARK                         _______ _______ _______ _____ _____    ______ ____
ROOT
ATOM      1  C   UNL     1       1.491   9.827  18.934  0.00  0.00    +0.000 A 
ATOM      2  N   UNL     1       1.917   9.709  17.698  0.00  0.00    +0.000 NA
ATOM      3  N   UNL     1       2.324   8.411  17.487  0.00  0.00    +0.000 NA
ATOM      4  C   UNL     1       2.132   7.720  18.596  0.00  0.00    +0.000 A 
ATOM      5  N   UNL     1       1.668   8.611  19.562  0.00  0.00    +0.000 N 
ATOM      6  C   UNL     1       1.451   8.343  20.954  0.00  0.00    +0.000 C 
ENDROOT
BRANCH   1   7
ATOM      7  S   UNL     1       0.661  11.268  19.501  0.00  0.00    +0.000 S 
BRANCH   7   8
ATOM      8  C   UNL     1      -0.736  11.664  18.414  0.00  0.00    +0.000 C 
BRANCH   8  19
ATOM      9  C   UNL     1      -2.821   9.857  16.707  0.00  0.00    +0.000 C 
ATOM     10  C   UNL     1      -3.348  11.269  16.972  0.00  0.00    +0.000 C 
ATOM     11  C   UNL     1      -4.841  11.326  16.571  0.00  0.00    +0.000 C 
ATOM     12  C   UNL     1      -5.503  11.692  17.853  0.00  0.00    +0.000 A 
ATOM     13  C   UNL     1      -6.875  11.836  18.044  0.00  0.00    +0.000 A 
ATOM     14  C   UNL     1      -7.329  12.216  19.302  0.00  0.00    +0.000 A 
ATOM     15  C   UNL     1      -6.412  12.442  20.338  0.00  0.00    +0.000 A 
ATOM     16  C   UNL     1      -5.026  12.289  20.124  0.00  0.00    +0.000 A 
ATOM     17  C   UNL     1      -4.576  11.908  18.874  0.00  0.00    +0.000 A 
ATOM     18  N   UNL     1      -3.249  11.692  18.405  0.00  0.00    +0.000 N 
ATOM     19  C   UNL     1      -2.074  11.956  19.141  0.00  0.00    +0.000 C 
ATOM     20  O   UNL     1      -2.082  12.343  20.312  0.00  0.00    +0.000 OA
ENDBRANCH   8  19
ENDBRANCH   7   8
ENDBRANCH   1   7
BRANCH   4  21
ATOM     21  C   UNL     1       2.560   6.277  18.765  0.00  0.00    +0.000 C 
BRANCH  21  22
ATOM     22  N   UNL     1       3.407   5.699  17.713  0.00  0.00    +0.000 N 
ATOM     23  N   UNL     1       3.116   4.438  17.318  0.00  0.00    +0.000 NA
ATOM     24  N   UNL     1       4.239   3.741  17.299  0.00  0.00    +0.000 NA
ATOM     25  C   UNL     1       5.273   4.617  17.402  0.00  0.00    +0.000 A 
ATOM     26  C   UNL     1       6.654   4.381  17.381  0.00  0.00    +0.000 A 
ATOM     27  C   UNL     1       7.519   5.473  17.351  0.00  0.00    +0.000 A 
ATOM     28  C   UNL     1       7.011   6.773  17.353  0.00  0.00    +0.000 A 
ATOM     29  C   UNL     1       5.627   7.033  17.483  0.00  0.00    +0.000 A 
ATOM     30  C   UNL     1       4.776   5.918  17.529  0.00  0.00    +0.000 A 
ENDBRANCH  21  22
ENDBRANCH   4  21
TORSDOF 5
ENDMDL
MODEL 9
REMARK VINA RESULT:      -8.1      2.121      3.537
REMARK  Name = 
REMARK  7 active torsions:
REMARK  status: ('A' for Active; 'I' for Inactive)
REMARK    1  A    between atoms: C_1  and  C_2
REMARK    2  A    between atoms: C_11  and  C_13
REMARK    3  A    between atoms: C_13  and  S_14
REMARK    4  A    between atoms: S_14  and  C_15
REMARK    5  A    between atoms: C_18  and  C_19
REMARK    6  A    between atoms: C_19  and  N_20
REMARK    7  A    between atoms: N_29  and  C_30
REMARK                            x       y       z     vdW  Elec       q    Type
REMARK                         _______ _______ _______ _____ _____    ______ ____
ROOT
ATOM      1  C   UNL     1       1.957   7.662  20.126  0.00  0.00    +0.000 A 
ATOM      2  N   UNL     1       2.138   8.334  19.013  0.00  0.00    +0.000 NA
ATOM      3  N   UNL     1       2.448   7.451  18.003  0.00  0.00    +0.000 NA
ATOM      4  C   UNL     1       2.440   6.225  18.494  0.00  0.00    +0.000 A 
ATOM      5  N   UNL     1       2.200   6.330  19.862  0.00  0.00    +0.000 N 
ATOM      6  C   UNL     1       2.237   5.273  20.831  0.00  0.00    +0.000 C 
ENDROOT
BRANCH   1   7
ATOM      7  S   UNL     1       1.304   8.415  21.574  0.00  0.00    +0.000 S 
BRANCH   7   8
ATOM      8  C   UNL     1      -0.239   9.289  21.193  0.00  0.00    +0.000 C 
BRANCH   8  19
ATOM      9  C   UNL     1      -1.674  11.244  19.037  0.00  0.00    +0.000 C 
ATOM     10  C   UNL     1      -0.590  11.958  19.849  0.00  0.00    +0.000 C 
ATOM     11  C   UNL     1      -0.688  13.479  19.579  0.00  0.00    +0.000 C 
ATOM     12  C   UNL     1      -0.955  14.028  20.936  0.00  0.00    +0.000 A 
ATOM     13  C   UNL     1      -1.166  15.371  21.239  0.00  0.00    +0.000 A 
ATOM     14  C   UNL     1      -1.370  15.723  22.569  0.00  0.00    +0.000 A 
ATOM     15  C   UNL     1      -1.361  14.734  23.563  0.00  0.00    +0.000 A 
ATOM     16  C   UNL     1      -1.148  13.379  23.235  0.00  0.00    +0.000 A 
ATOM     17  C   UNL     1      -0.947  13.030  21.912  0.00  0.00    +0.000 A 
ATOM     18  N   UNL     1      -0.709  11.754  21.328  0.00  0.00    +0.000 N 
ATOM     19  C   UNL     1      -0.505  10.556  22.046  0.00  0.00    +0.000 C 
ATOM     20  O   UNL     1      -0.583  10.483  23.275  0.00  0.00    +0.000 OA
ENDBRANCH   8  19
ENDBRANCH   7   8
ENDBRANCH   1   7
BRANCH   4  21
ATOM     21  C   UNL     1       2.836   5.003  17.692  0.00  0.00    +0.000 C 
BRANCH  21  22
ATOM     22  N   UNL     1       4.233   4.561  17.784  0.00  0.00    +0.000 N 
ATOM     23  N   UNL     1       4.495   3.532  18.623  0.00  0.00    +0.000 NA
ATOM     24  N   UNL     1       5.533   3.863  19.372  0.00  0.00    +0.000 NA
ATOM     25  C   UNL     1       6.105   4.968  18.825  0.00  0.00    +0.000 A 
ATOM     26  C   UNL     1       7.251   5.672  19.216  0.00  0.00    +0.000 A 
ATOM     27  C   UNL     1       7.723   6.692  18.393  0.00  0.00    +0.000 A 
ATOM     28  C   UNL     1       7.054   7.008  17.209  0.00  0.00    +0.000 A 
ATOM     29  C   UNL     1       5.837   6.383  16.852  0.00  0.00    +0.000 A 
ATOM     30  C   UNL     1       5.372   5.370  17.704  0.00  0.00    +0.000 A 
ENDBRANCH  21  22
ENDBRANCH   4  21
TORSDOF 5
ENDMDL
