MODEL 1
REMARK VINA RESULT:      -9.9      0.000      0.000
REMARK  Name = 
REMARK  5 active torsions:
REMARK  status: ('A' for Active; 'I' for Inactive)
REMARK    1  A    between atoms: C_1  and  N_2
REMARK    2  A    between atoms: N_4  and  N_5
REMARK    3  A    between atoms: C_6  and  C_7
REMARK    4  A    between atoms: C_6  and  C_15
REMARK    5  A    between atoms: C_8  and  C_9
REMARK                            x       y       z     vdW  Elec       q    Type
REMARK                         _______ _______ _______ _____ _____    ______ ____
ROOT
ATOM      1  N   UNL     1       2.659   7.350  19.267  0.00  0.00    +0.000 NA
ATOM      2  C   UNL     1       2.806   6.088  18.968  0.00  0.00    +0.000 C 
ENDROOT
BRANCH   1   6
ATOM      3  C   UNL     1       1.325   9.491  18.028  0.00  0.00    +0.000 C 
ATOM      4  N   UNL     1       0.842   9.698  19.382  0.00  0.00    +0.000 N 
ATOM      5  C   UNL     1       1.123   8.848  20.457  0.00  0.00    +0.000 A 
ATOM      6  N   UNL     1       1.964   7.753  20.354  0.00  0.00    +0.000 N 
ATOM      7  N   UNL     1       0.587   9.036  21.636  0.00  0.00    +0.000 NA
ATOM      8  C   UNL     1      -0.272  10.127  21.840  0.00  0.00    +0.000 A 
ATOM      9  C   UNL     1      -0.917  10.281  23.070  0.00  0.00    +0.000 A 
ATOM     10  C   UNL     1      -1.747  11.385  23.316  0.00  0.00    +0.000 A 
ATOM     11  C   UNL     1      -1.930  12.355  22.334  0.00  0.00    +0.000 A 
ATOM     12  C   UNL     1      -1.304  12.207  21.099  0.00  0.00    +0.000 A 
ATOM     13  C   UNL     1      -0.491  11.090  20.865  0.00  0.00    +0.000 A 
ATOM     14  C   UNL     1       0.136  10.881  19.559  0.00  0.00    +0.000 A 
ATOM     15  O   UNL     1      -0.005  11.745  18.691  0.00  0.00    +0.000 OA
ATOM     16  H   UNL     1       2.127   7.293  21.246  0.00  0.00    +0.000 HD
ENDBRANCH   1   6
BRANCH   2  17
ATOM     17  C   UNL     1       2.269   4.889  19.693  0.00  0.00    +0.000 A 
ATOM     18  C   UNL     1       2.607   4.619  21.024  0.00  0.00    +0.000 A 
ATOM     19  C   UNL     1       2.107   3.483  21.669  0.00  0.00    +0.000 A 
ATOM     20  C   UNL     1       1.223   2.634  21.008  0.00  0.00    +0.000 A 
ATOM     21  C   UNL     1       0.846   2.911  19.696  0.00  0.00    +0.000 A 
ATOM     22  C   UNL     1       1.378   4.021  19.036  0.00  0.00    +0.000 A 
ENDBRANCH   2  17
BRANCH   2  23
ATOM     23  C   UNL     1       3.494   5.774  17.669  0.00  0.00    +0.000 C 
ATOM     24  C   UNL     1       4.708   5.208  17.640  0.00  0.00    +0.000 C 
BRANCH  24  25
ATOM     25  C   UNL     1       5.480   4.957  16.412  0.00  0.00    +0.000 A 
ATOM     26  C   UNL     1       4.842   4.330  15.332  0.00  0.00    +0.000 A 
ATOM     27  C   UNL     1       5.533   4.067  14.146  0.00  0.00    +0.000 A 
ATOM     28  C   UNL     1       6.871   4.437  14.020  0.00  0.00    +0.000 A 
ATOM     29  C   UNL     1       7.512   5.078  15.077  0.00  0.00    +0.000 A 
ATOM     30  C   UNL     1       6.820   5.343  16.263  0.00  0.00    +0.000 A 
ENDBRANCH  24  25
ENDBRANCH   2  23
TORSDOF 4
ENDMDL
MODEL 2
REMARK VINA RESULT:      -9.9      0.071      1.267
REMARK  Name = 
REMARK  5 active torsions:
REMARK  status: ('A' for Active; 'I' for Inactive)
REMARK    1  A    between atoms: C_1  and  N_2
REMARK    2  A    between atoms: N_4  and  N_5
REMARK    3  A    between atoms: C_6  and  C_7
REMARK    4  A    between atoms: C_6  and  C_15
REMARK    5  A    between atoms: C_8  and  C_9
REMARK                            x       y       z     vdW  Elec       q    Type
REMARK                         _______ _______ _______ _____ _____    ______ ____
ROOT
ATOM      1  N   UNL     1       2.607   7.374  19.261  0.00  0.00    +0.000 NA
ATOM      2  C   UNL     1       2.748   6.113  18.954  0.00  0.00    +0.000 C 
ENDROOT
BRANCH   1   6
ATOM      3  C   UNL     1       1.292   9.535  18.038  0.00  0.00    +0.000 C 
ATOM      4  N   UNL     1       0.809   9.735  19.393  0.00  0.00    +0.000 N 
ATOM      5  C   UNL     1       1.082   8.874  20.461  0.00  0.00    +0.000 A 
ATOM      6  N   UNL     1       1.914   7.773  20.350  0.00  0.00    +0.000 N 
ATOM      7  N   UNL     1       0.545   9.057  21.641  0.00  0.00    +0.000 NA
ATOM      8  C   UNL     1      -0.305  10.153  21.853  0.00  0.00    +0.000 A 
ATOM      9  C   UNL     1      -0.951  10.302  23.083  0.00  0.00    +0.000 A 
ATOM     10  C   UNL     1      -1.772  11.410  23.337  0.00  0.00    +0.000 A 
ATOM     11  C   UNL     1      -1.946  12.390  22.363  0.00  0.00    +0.000 A 
ATOM     12  C   UNL     1      -1.320  12.247  21.128  0.00  0.00    +0.000 A 
ATOM     13  C   UNL     1      -0.515  11.125  20.885  0.00  0.00    +0.000 A 
ATOM     14  C   UNL     1       0.112  10.922  19.579  0.00  0.00    +0.000 A 
ATOM     15  O   UNL     1      -0.020  11.794  18.718  0.00  0.00    +0.000 OA
ATOM     16  H   UNL     1       2.072   7.305  21.239  0.00  0.00    +0.000 HD
ENDBRANCH   1   6
BRANCH   2  17
ATOM     17  C   UNL     1       2.203   4.912  19.670  0.00  0.00    +0.000 A 
ATOM     18  C   UNL     1       1.344   4.004  19.041  0.00  0.00    +0.000 A 
ATOM     19  C   UNL     1       0.836   2.903  19.738  0.00  0.00    +0.000 A 
ATOM     20  C   UNL     1       1.222   2.671  21.056  0.00  0.00    +0.000 A 
ATOM     21  C   UNL     1       2.107   3.543  21.684  0.00  0.00    +0.000 A 
ATOM     22  C   UNL     1       2.583   4.666  21.002  0.00  0.00    +0.000 A 
ENDBRANCH   2  17
BRANCH   2  23
ATOM     23  C   UNL     1       3.434   5.803  17.653  0.00  0.00    +0.000 C 
ATOM     24  C   UNL     1       4.620   5.181  17.620  0.00  0.00    +0.000 C 
BRANCH  24  25
ATOM     25  C   UNL     1       5.394   4.928  16.393  0.00  0.00    +0.000 A 
ATOM     26  C   UNL     1       6.734   5.339  16.345  0.00  0.00    +0.000 A 
ATOM     27  C   UNL     1       7.509   5.124  15.202  0.00  0.00    +0.000 A 
ATOM     28  C   UNL     1       6.956   4.488  14.093  0.00  0.00    +0.000 A 
ATOM     29  C   UNL     1       5.632   4.057  14.133  0.00  0.00    +0.000 A 
ATOM     30  C   UNL     1       4.858   4.270  15.277  0.00  0.00    +0.000 A 
ENDBRANCH  24  25
ENDBRANCH   2  23
TORSDOF 4
ENDMDL
MODEL 3
REMARK VINA RESULT:      -9.6      1.034      1.186
REMARK  Name = 
REMARK  5 active torsions:
REMARK  status: ('A' for Active; 'I' for Inactive)
REMARK    1  A    between atoms: C_1  and  N_2
REMARK    2  A    between atoms: N_4  and  N_5
REMARK    3  A    between atoms: C_6  and  C_7
REMARK    4  A    between atoms: C_6  and  C_15
REMARK    5  A    between atoms: C_8  and  C_9
REMARK                            x       y       z     vdW  Elec       q    Type
REMARK                         _______ _______ _______ _____ _____    ______ ____
ROOT
ATOM      1  N   UNL     1       3.282   6.995  18.617  0.00  0.00    +0.000 NA
ATOM      2  C   UNL     1       3.405   5.798  18.111  0.00  0.00    +0.000 C 
ENDROOT
BRANCH   1   6
ATOM      3  C   UNL     1       1.975   9.325  17.746  0.00  0.00    +0.000 C 
ATOM      4  N   UNL     1       1.494   9.315  19.117  0.00  0.00    +0.000 N 
ATOM      5  C   UNL     1       1.765   8.297  20.038  0.00  0.00    +0.000 A 
ATOM      6  N   UNL     1       2.592   7.224  19.757  0.00  0.00    +0.000 N 
ATOM      7  N   UNL     1       1.230   8.298  21.233  0.00  0.00    +0.000 NA
ATOM      8  C   UNL     1       0.386   9.352  21.614  0.00  0.00    +0.000 A 
ATOM      9  C   UNL     1      -0.258   9.311  22.854  0.00  0.00    +0.000 A 
ATOM     10  C   UNL     1      -1.074  10.371  23.278  0.00  0.00    +0.000 A 
ATOM     11  C   UNL     1      -1.245  11.490  22.467  0.00  0.00    +0.000 A 
ATOM     12  C   UNL     1      -0.621  11.537  21.223  0.00  0.00    +0.000 A 
ATOM     13  C   UNL     1       0.178  10.463  20.809  0.00  0.00    +0.000 A 
ATOM     14  C   UNL     1       0.803  10.462  19.485  0.00  0.00    +0.000 A 
ATOM     15  O   UNL     1       0.673  11.457  18.770  0.00  0.00    +0.000 OA
ATOM     16  H   UNL     1       2.748   6.623  20.562  0.00  0.00    +0.000 HD
ENDBRANCH   1   6
BRANCH   2  17
ATOM     17  C   UNL     1       2.841   4.505  18.625  0.00  0.00    +0.000 A 
ATOM     18  C   UNL     1       3.455   3.794  19.663  0.00  0.00    +0.000 A 
ATOM     19  C   UNL     1       2.918   2.582  20.110  0.00  0.00    +0.000 A 
ATOM     20  C   UNL     1       1.736   2.095  19.559  0.00  0.00    +0.000 A 
ATOM     21  C   UNL     1       1.093   2.810  18.553  0.00  0.00    +0.000 A 
ATOM     22  C   UNL     1       1.649   4.000  18.076  0.00  0.00    +0.000 A 
ENDBRANCH   2  17
BRANCH   2  23
ATOM     23  C   UNL     1       4.090   5.692  16.778  0.00  0.00    +0.000 C 
ATOM     24  C   UNL     1       4.870   4.645  16.474  0.00  0.00    +0.000 C 
BRANCH  24  25
ATOM     25  C   UNL     1       5.645   4.519  15.228  0.00  0.00    +0.000 A 
ATOM     26  C   UNL     1       5.096   3.786  14.166  0.00  0.00    +0.000 A 
ATOM     27  C   UNL     1       5.794   3.634  12.964  0.00  0.00    +0.000 A 
ATOM     28  C   UNL     1       7.047   4.222  12.805  0.00  0.00    +0.000 A 
ATOM     29  C   UNL     1       7.596   4.969  13.845  0.00  0.00    +0.000 A 
ATOM     30  C   UNL     1       6.897   5.122  15.046  0.00  0.00    +0.000 A 
ENDBRANCH  24  25
ENDBRANCH   2  23
TORSDOF 4
ENDMDL
MODEL 4
REMARK VINA RESULT:      -9.6      1.043      1.715
REMARK  Name = 
REMARK  5 active torsions:
REMARK  status: ('A' for Active; 'I' for Inactive)
REMARK    1  A    between atoms: C_1  and  N_2
REMARK    2  A    between atoms: N_4  and  N_5
REMARK    3  A    between atoms: C_6  and  C_7
REMARK    4  A    between atoms: C_6  and  C_15
REMARK    5  A    between atoms: C_8  and  C_9
REMARK                            x       y       z     vdW  Elec       q    Type
REMARK                         _______ _______ _______ _____ _____    ______ ____
ROOT
ATOM      1  N   UNL     1       3.261   6.942  18.596  0.00  0.00    +0.000 NA
ATOM      2  C   UNL     1       3.350   5.745  18.082  0.00  0.00    +0.000 C 
ENDROOT
BRANCH   1   6
ATOM      3  C   UNL     1       1.929   9.256  17.718  0.00  0.00    +0.000 C 
ATOM      4  N   UNL     1       1.472   9.261  19.097  0.00  0.00    +0.000 N 
ATOM      5  C   UNL     1       1.763   8.256  20.026  0.00  0.00    +0.000 A 
ATOM      6  N   UNL     1       2.590   7.182  19.744  0.00  0.00    +0.000 N 
ATOM      7  N   UNL     1       1.250   8.269  21.231  0.00  0.00    +0.000 NA
ATOM      8  C   UNL     1       0.407   9.323  21.612  0.00  0.00    +0.000 A 
ATOM      9  C   UNL     1      -0.215   9.295  22.864  0.00  0.00    +0.000 A 
ATOM     10  C   UNL     1      -1.028  10.357  23.288  0.00  0.00    +0.000 A 
ATOM     11  C   UNL     1      -1.218  11.465  22.468  0.00  0.00    +0.000 A 
ATOM     12  C   UNL     1      -0.617  11.500  21.212  0.00  0.00    +0.000 A 
ATOM     13  C   UNL     1       0.180  10.424  20.797  0.00  0.00    +0.000 A 
ATOM     14  C   UNL     1       0.782  10.409  19.463  0.00  0.00    +0.000 A 
ATOM     15  O   UNL     1       0.635  11.395  18.738  0.00  0.00    +0.000 OA
ATOM     16  H   UNL     1       2.763   6.592  20.554  0.00  0.00    +0.000 HD
ENDBRANCH   1   6
BRANCH   2  17
ATOM     17  C   UNL     1       2.761   4.464  18.597  0.00  0.00    +0.000 A 
ATOM     18  C   UNL     1       1.583   3.927  18.066  0.00  0.00    +0.000 A 
ATOM     19  C   UNL     1       1.047   2.741  18.577  0.00  0.00    +0.000 A 
ATOM     20  C   UNL     1       1.709   2.053  19.591  0.00  0.00    +0.000 A 
ATOM     21  C   UNL     1       2.903   2.553  20.103  0.00  0.00    +0.000 A 
ATOM     22  C   UNL     1       3.419   3.760  19.622  0.00  0.00    +0.000 A 
ENDBRANCH   2  17
BRANCH   2  23
ATOM     23  C   UNL     1       4.017   5.629  16.741  0.00  0.00    +0.000 C 
ATOM     24  C   UNL     1       4.852   4.619  16.461  0.00  0.00    +0.000 C 
BRANCH  24  25
ATOM     25  C   UNL     1       5.611   4.490  15.206  0.00  0.00    +0.000 A 
ATOM     26  C   UNL     1       6.852   5.135  15.101  0.00  0.00    +0.000 A 
ATOM     27  C   UNL     1       7.609   5.046  13.929  0.00  0.00    +0.000 A 
ATOM     28  C   UNL     1       7.139   4.302  12.849  0.00  0.00    +0.000 A 
ATOM     29  C   UNL     1       5.917   3.640  12.946  0.00  0.00    +0.000 A 
ATOM     30  C   UNL     1       5.161   3.728  14.118  0.00  0.00    +0.000 A 
ENDBRANCH  24  25
ENDBRANCH   2  23
TORSDOF 4
ENDMDL
MODEL 5
REMARK VINA RESULT:      -9.3      0.783      1.203
REMARK  Name = 
REMARK  5 active torsions:
REMARK  status: ('A' for Active; 'I' for Inactive)
REMARK    1  A    between atoms: C_1  and  N_2
REMARK    2  A    between atoms: N_4  and  N_5
REMARK    3  A    between atoms: C_6  and  C_7
REMARK    4  A    between atoms: C_6  and  C_15
REMARK    5  A    between atoms: C_8  and  C_9
REMARK                            x       y       z     vdW  Elec       q    Type
REMARK                         _______ _______ _______ _____ _____    ______ ____
ROOT
ATOM      1  N   UNL     1       3.122   6.724  18.977  0.00  0.00    +0.000 NA
ATOM      2  C   UNL     1       3.078   5.490  18.550  0.00  0.00    +0.000 C 
ENDROOT
BRANCH   1   6
ATOM      3  C   UNL     1       1.745   8.882  17.818  0.00  0.00    +0.000 C 
ATOM      4  N   UNL     1       1.323   9.077  19.195  0.00  0.00    +0.000 N 
ATOM      5  C   UNL     1       1.647   8.215  20.248  0.00  0.00    +0.000 A 
ATOM      6  N   UNL     1       2.478   7.118  20.097  0.00  0.00    +0.000 N 
ATOM      7  N   UNL     1       1.163   8.394  21.451  0.00  0.00    +0.000 NA
ATOM      8  C   UNL     1       0.319   9.486  21.703  0.00  0.00    +0.000 A 
ATOM      9  C   UNL     1      -0.272   9.630  22.961  0.00  0.00    +0.000 A 
ATOM     10  C   UNL     1      -1.085  10.735  23.254  0.00  0.00    +0.000 A 
ATOM     11  C   UNL     1      -1.306  11.716  22.291  0.00  0.00    +0.000 A 
ATOM     12  C   UNL     1      -0.736  11.578  21.028  0.00  0.00    +0.000 A 
ATOM     13  C   UNL     1       0.061  10.459  20.748  0.00  0.00    +0.000 A 
ATOM     14  C   UNL     1       0.630  10.261  19.414  0.00  0.00    +0.000 A 
ATOM     15  O   UNL     1       0.456  11.135  18.561  0.00  0.00    +0.000 OA
ATOM     16  H   UNL     1       2.677   6.649  20.977  0.00  0.00    +0.000 HD
ENDBRANCH   1   6
BRANCH   2  17
ATOM     17  C   UNL     1       2.346   4.323  19.146  0.00  0.00    +0.000 A 
ATOM     18  C   UNL     1       2.566   3.910  20.465  0.00  0.00    +0.000 A 
ATOM     19  C   UNL     1       1.884   2.807  20.988  0.00  0.00    +0.000 A 
ATOM     20  C   UNL     1       0.939   2.137  20.216  0.00  0.00    +0.000 A 
ATOM     21  C   UNL     1       0.680   2.560  18.915  0.00  0.00    +0.000 A 
ATOM     22  C   UNL     1       1.390   3.636  18.376  0.00  0.00    +0.000 A 
ENDBRANCH   2  17
BRANCH   2  23
ATOM     23  C   UNL     1       3.734   5.205  17.228  0.00  0.00    +0.000 C 
ATOM     24  C   UNL     1       5.060   5.047  17.127  0.00  0.00    +0.000 C 
BRANCH  24  25
ATOM     25  C   UNL     1       5.781   4.858  15.856  0.00  0.00    +0.000 A 
ATOM     26  C   UNL     1       7.017   5.497  15.682  0.00  0.00    +0.000 A 
ATOM     27  C   UNL     1       7.738   5.352  14.493  0.00  0.00    +0.000 A 
ATOM     28  C   UNL     1       7.236   4.556  13.465  0.00  0.00    +0.000 A 
ATOM     29  C   UNL     1       6.019   3.900  13.632  0.00  0.00    +0.000 A 
ATOM     30  C   UNL     1       5.299   4.044  14.822  0.00  0.00    +0.000 A 
ENDBRANCH  24  25
ENDBRANCH   2  23
TORSDOF 4
ENDMDL
MODEL 6
REMARK VINA RESULT:      -8.5      1.602      2.377
REMARK  Name = 
REMARK  5 active torsions:
REMARK  status: ('A' for Active; 'I' for Inactive)
REMARK    1  A    between atoms: C_1  and  N_2
REMARK    2  A    between atoms: N_4  and  N_5
REMARK    3  A    between atoms: C_6  and  C_7
REMARK    4  A    between atoms: C_6  and  C_15
REMARK    5  A    between atoms: C_8  and  C_9
REMARK                            x       y       z     vdW  Elec       q    Type
REMARK                         _______ _______ _______ _____ _____    ______ ____
ROOT
ATOM      1  N   UNL     1       4.248   5.747  18.691  0.00  0.00    +0.000 NA
ATOM      2  C   UNL     1       4.012   4.595  18.122  0.00  0.00    +0.000 C 
ENDROOT
BRANCH   1   6
ATOM      3  C   UNL     1       2.984   7.750  17.178  0.00  0.00    +0.000 C 
ATOM      4  N   UNL     1       2.400   8.063  18.471  0.00  0.00    +0.000 N 
ATOM      5  C   UNL     1       2.611   7.312  19.632  0.00  0.00    +0.000 A 
ATOM      6  N   UNL     1       3.471   6.228  19.686  0.00  0.00    +0.000 N 
ATOM      7  N   UNL     1       1.987   7.591  20.749  0.00  0.00    +0.000 NA
ATOM      8  C   UNL     1       1.103   8.679  20.795  0.00  0.00    +0.000 A 
ATOM      9  C   UNL     1       0.367   8.925  21.957  0.00  0.00    +0.000 A 
ATOM     10  C   UNL     1      -0.492  10.031  22.046  0.00  0.00    +0.000 A 
ATOM     11  C   UNL     1      -0.614  10.911  20.974  0.00  0.00    +0.000 A 
ATOM     12  C   UNL     1       0.103  10.670  19.805  0.00  0.00    +0.000 A 
ATOM     13  C   UNL     1       0.944   9.551  19.727  0.00  0.00    +0.000 A 
ATOM     14  C   UNL     1       1.669   9.243  18.493  0.00  0.00    +0.000 A 
ATOM     15  O   UNL     1       1.582  10.028  17.546  0.00  0.00    +0.000 OA
ATOM     16  H   UNL     1       3.572   5.849  20.624  0.00  0.00    +0.000 HD
ENDBRANCH   1   6
BRANCH   2  17
ATOM     17  C   UNL     1       2.904   3.625  18.407  0.00  0.00    +0.000 A 
ATOM     18  C   UNL     1       3.155   2.349  18.925  0.00  0.00    +0.000 A 
ATOM     19  C   UNL     1       2.104   1.458  19.164  0.00  0.00    +0.000 A 
ATOM     20  C   UNL     1       0.788   1.850  18.935  0.00  0.00    +0.000 A 
ATOM     21  C   UNL     1       0.518   3.130  18.456  0.00  0.00    +0.000 A 
ATOM     22  C   UNL     1       1.570   4.007  18.178  0.00  0.00    +0.000 A 
ENDBRANCH   2  17
BRANCH   2  23
ATOM     23  C   UNL     1       4.874   4.229  16.947  0.00  0.00    +0.000 C 
ATOM     24  C   UNL     1       4.960   5.021  15.870  0.00  0.00    +0.000 C 
BRANCH  24  25
ATOM     25  C   UNL     1       5.709   4.684  14.647  0.00  0.00    +0.000 A 
ATOM     26  C   UNL     1       6.976   5.253  14.455  0.00  0.00    +0.000 A 
ATOM     27  C   UNL     1       7.724   4.967  13.310  0.00  0.00    +0.000 A 
ATOM     28  C   UNL     1       7.218   4.099  12.344  0.00  0.00    +0.000 A 
ATOM     29  C   UNL     1       5.969   3.511  12.530  0.00  0.00    +0.000 A 
ATOM     30  C   UNL     1       5.222   3.796  13.677  0.00  0.00    +0.000 A 
ENDBRANCH  24  25
ENDBRANCH   2  23
TORSDOF 4
ENDMDL
MODEL 7
REMARK VINA RESULT:      -8.3      1.114      1.639
REMARK  Name = 
REMARK  5 active torsions:
REMARK  status: ('A' for Active; 'I' for Inactive)
REMARK    1  A    between atoms: C_1  and  N_2
REMARK    2  A    between atoms: N_4  and  N_5
REMARK    3  A    between atoms: C_6  and  C_7
REMARK    4  A    between atoms: C_6  and  C_15
REMARK    5  A    between atoms: C_8  and  C_9
REMARK                            x       y       z     vdW  Elec       q    Type
REMARK                         _______ _______ _______ _____ _____    ______ ____
ROOT
ATOM      1  N   UNL     1       3.726   6.150  19.254  0.00  0.00    +0.000 NA
ATOM      2  C   UNL     1       3.572   4.937  18.798  0.00  0.00    +0.000 C 
ENDROOT
BRANCH   1   6
ATOM      3  C   UNL     1       2.616   8.188  17.669  0.00  0.00    +0.000 C 
ATOM      4  N   UNL     1       1.978   8.531  18.929  0.00  0.00    +0.000 N 
ATOM      5  C   UNL     1       2.102   7.781  20.103  0.00  0.00    +0.000 A 
ATOM      6  N   UNL     1       2.917   6.666  20.206  0.00  0.00    +0.000 N 
ATOM      7  N   UNL     1       1.433   8.090  21.185  0.00  0.00    +0.000 NA
ATOM      8  C   UNL     1       0.588   9.210  21.181  0.00  0.00    +0.000 A 
ATOM      9  C   UNL     1      -0.197   9.491  22.302  0.00  0.00    +0.000 A 
ATOM     10  C   UNL     1      -1.017  10.628  22.342  0.00  0.00    +0.000 A 
ATOM     11  C   UNL     1      -1.051  11.505  21.260  0.00  0.00    +0.000 A 
ATOM     12  C   UNL     1      -0.285  11.229  20.130  0.00  0.00    +0.000 A 
ATOM     13  C   UNL     1       0.517  10.080  20.102  0.00  0.00    +0.000 A 
ATOM     14  C   UNL     1       1.291   9.737  18.908  0.00  0.00    +0.000 A 
ATOM     15  O   UNL     1       1.282  10.518  17.954  0.00  0.00    +0.000 OA
ATOM     16  H   UNL     1       2.956   6.290  21.150  0.00  0.00    +0.000 HD
ENDBRANCH   1   6
BRANCH   2  17
ATOM     17  C   UNL     1       2.535   3.921  19.180  0.00  0.00    +0.000 A 
ATOM     18  C   UNL     1       1.613   3.423  18.252  0.00  0.00    +0.000 A 
ATOM     19  C   UNL     1       0.645   2.491  18.640  0.00  0.00    +0.000 A 
ATOM     20  C   UNL     1       0.621   2.010  19.946  0.00  0.00    +0.000 A 
ATOM     21  C   UNL     1       1.556   2.466  20.872  0.00  0.00    +0.000 A 
ATOM     22  C   UNL     1       2.497   3.428  20.496  0.00  0.00    +0.000 A 
ENDBRANCH   2  17
BRANCH   2  23
ATOM     23  C   UNL     1       4.456   4.523  17.656  0.00  0.00    +0.000 C 
ATOM     24  C   UNL     1       4.734   5.362  16.648  0.00  0.00    +0.000 C 
BRANCH  24  25
ATOM     25  C   UNL     1       5.515   4.998  15.453  0.00  0.00    +0.000 A 
ATOM     26  C   UNL     1       4.873   4.307  14.415  0.00  0.00    +0.000 A 
ATOM     27  C   UNL     1       5.571   3.936  13.262  0.00  0.00    +0.000 A 
ATOM     28  C   UNL     1       6.920   4.261  13.128  0.00  0.00    +0.000 A 
ATOM     29  C   UNL     1       7.565   4.963  14.143  0.00  0.00    +0.000 A 
ATOM     30  C   UNL     1       6.866   5.336  15.295  0.00  0.00    +0.000 A 
ENDBRANCH  24  25
ENDBRANCH   2  23
TORSDOF 4
ENDMDL
MODEL 8
REMARK VINA RESULT:      -8.0      3.050      8.279
REMARK  Name = 
REMARK  5 active torsions:
REMARK  status: ('A' for Active; 'I' for Inactive)
REMARK    1  A    between atoms: C_1  and  N_2
REMARK    2  A    between atoms: N_4  and  N_5
REMARK    3  A    between atoms: C_6  and  C_7
REMARK    4  A    between atoms: C_6  and  C_15
REMARK    5  A    between atoms: C_8  and  C_9
REMARK                            x       y       z     vdW  Elec       q    Type
REMARK                         _______ _______ _______ _____ _____    ______ ____
ROOT
ATOM      1  N   UNL     1       1.488   9.646  19.442  0.00  0.00    +0.000 NA
ATOM      2  C   UNL     1       0.849  10.729  19.796  0.00  0.00    +0.000 C 
ENDROOT
BRANCH   1   6
ATOM      3  C   UNL     1       3.163   8.113  17.786  0.00  0.00    +0.000 C 
ATOM      4  N   UNL     1       2.741   7.059  18.692  0.00  0.00    +0.000 N 
ATOM      5  C   UNL     1       1.932   7.263  19.815  0.00  0.00    +0.000 A 
ATOM      6  N   UNL     1       1.382   8.492  20.136  0.00  0.00    +0.000 N 
ATOM      7  N   UNL     1       1.657   6.289  20.646  0.00  0.00    +0.000 NA
ATOM      8  C   UNL     1       2.162   5.004  20.397  0.00  0.00    +0.000 A 
ATOM      9  C   UNL     1       1.947   3.983  21.327  0.00  0.00    +0.000 A 
ATOM     10  C   UNL     1       2.403   2.678  21.083  0.00  0.00    +0.000 A 
ATOM     11  C   UNL     1       3.070   2.380  19.899  0.00  0.00    +0.000 A 
ATOM     12  C   UNL     1       3.304   3.391  18.970  0.00  0.00    +0.000 A 
ATOM     13  C   UNL     1       2.856   4.692  19.236  0.00  0.00    +0.000 A 
ATOM     14  C   UNL     1       3.134   5.785  18.303  0.00  0.00    +0.000 A 
ATOM     15  O   UNL     1       3.706   5.525  17.243  0.00  0.00    +0.000 OA
ATOM     16  H   UNL     1       0.752   8.448  20.934  0.00  0.00    +0.000 HD
ENDBRANCH   1   6
BRANCH   2  17
ATOM     17  C   UNL     1      -0.064  10.932  20.969  0.00  0.00    +0.000 A 
ATOM     18  C   UNL     1       0.074  10.189  22.147  0.00  0.00    +0.000 A 
ATOM     19  C   UNL     1      -0.803  10.385  23.219  0.00  0.00    +0.000 A 
ATOM     20  C   UNL     1      -1.794  11.361  23.143  0.00  0.00    +0.000 A 
ATOM     21  C   UNL     1      -1.918  12.136  21.993  0.00  0.00    +0.000 A 
ATOM     22  C   UNL     1      -1.070  11.912  20.906  0.00  0.00    +0.000 A 
ENDBRANCH   2  17
BRANCH   2  23
ATOM     23  C   UNL     1       1.146  11.978  19.015  0.00  0.00    +0.000 C 
ATOM     24  C   UNL     1       1.991  12.908  19.479  0.00  0.00    +0.000 C 
BRANCH  24  25
ATOM     25  C   UNL     1       2.258  14.196  18.815  0.00  0.00    +0.000 A 
ATOM     26  C   UNL     1       1.362  15.255  19.016  0.00  0.00    +0.000 A 
ATOM     27  C   UNL     1       1.570  16.495  18.405  0.00  0.00    +0.000 A 
ATOM     28  C   UNL     1       2.684  16.695  17.593  0.00  0.00    +0.000 A 
ATOM     29  C   UNL     1       3.593  15.658  17.400  0.00  0.00    +0.000 A 
ATOM     30  C   UNL     1       3.386  14.418  18.013  0.00  0.00    +0.000 A 
ENDBRANCH  24  25
ENDBRANCH   2  23
TORSDOF 4
ENDMDL
MODEL 9
REMARK VINA RESULT:      -8.0      3.064      8.293
REMARK  Name = 
REMARK  5 active torsions:
REMARK  status: ('A' for Active; 'I' for Inactive)
REMARK    1  A    between atoms: C_1  and  N_2
REMARK    2  A    between atoms: N_4  and  N_5
REMARK    3  A    between atoms: C_6  and  C_7
REMARK    4  A    between atoms: C_6  and  C_15
REMARK    5  A    between atoms: C_8  and  C_9
REMARK                            x       y       z     vdW  Elec       q    Type
REMARK                         _______ _______ _______ _____ _____    ______ ____
ROOT
ATOM      1  N   UNL     1       1.475   9.686  19.450  0.00  0.00    +0.000 NA
ATOM      2  C   UNL     1       0.835  10.766  19.808  0.00  0.00    +0.000 C 
ENDROOT
BRANCH   1   6
ATOM      3  C   UNL     1       3.154   8.163  17.789  0.00  0.00    +0.000 C 
ATOM      4  N   UNL     1       2.733   7.104  18.691  0.00  0.00    +0.000 N 
ATOM      5  C   UNL     1       1.923   7.302  19.814  0.00  0.00    +0.000 A 
ATOM      6  N   UNL     1       1.371   8.529  20.140  0.00  0.00    +0.000 N 
ATOM      7  N   UNL     1       1.650   6.324  20.641  0.00  0.00    +0.000 NA
ATOM      8  C   UNL     1       2.157   5.041  20.387  0.00  0.00    +0.000 A 
ATOM      9  C   UNL     1       1.944   4.016  21.313  0.00  0.00    +0.000 A 
ATOM     10  C   UNL     1       2.403   2.713  21.065  0.00  0.00    +0.000 A 
ATOM     11  C   UNL     1       3.071   2.421  19.879  0.00  0.00    +0.000 A 
ATOM     12  C   UNL     1       3.304   3.436  18.955  0.00  0.00    +0.000 A 
ATOM     13  C   UNL     1       2.852   4.735  19.226  0.00  0.00    +0.000 A 
ATOM     14  C   UNL     1       3.129   5.832  18.297  0.00  0.00    +0.000 A 
ATOM     15  O   UNL     1       3.702   5.578  17.236  0.00  0.00    +0.000 OA
ATOM     16  H   UNL     1       0.741   8.480  20.937  0.00  0.00    +0.000 HD
ENDBRANCH   1   6
BRANCH   2  17
ATOM     17  C   UNL     1      -0.078  10.963  20.983  0.00  0.00    +0.000 A 
ATOM     18  C   UNL     1      -1.114  11.904  20.963  0.00  0.00    +0.000 A 
ATOM     19  C   UNL     1      -1.938  12.079  22.079  0.00  0.00    +0.000 A 
ATOM     20  C   UNL     1      -1.767  11.281  23.208  0.00  0.00    +0.000 A 
ATOM     21  C   UNL     1      -0.766  10.314  23.229  0.00  0.00    +0.000 A 
ATOM     22  C   UNL     1       0.085  10.165  22.130  0.00  0.00    +0.000 A 
ENDBRANCH   2  17
BRANCH   2  23
ATOM     23  C   UNL     1       1.129  12.019  19.032  0.00  0.00    +0.000 C 
ATOM     24  C   UNL     1       1.996  12.935  19.486  0.00  0.00    +0.000 C 
BRANCH  24  25
ATOM     25  C   UNL     1       2.264  14.224  18.828  0.00  0.00    +0.000 A 
ATOM     26  C   UNL     1       3.436  14.363  18.072  0.00  0.00    +0.000 A 
ATOM     27  C   UNL     1       3.737  15.568  17.430  0.00  0.00    +0.000 A 
ATOM     28  C   UNL     1       2.864  16.649  17.530  0.00  0.00    +0.000 A 
ATOM     29  C   UNL     1       1.686  16.520  18.262  0.00  0.00    +0.000 A 
ATOM     30  C   UNL     1       1.384  15.314  18.901  0.00  0.00    +0.000 A 
ENDBRANCH  24  25
ENDBRANCH   2  23
TORSDOF 4
ENDMDL
