MODEL 1
REMARK VINA RESULT:      -7.4      0.000      0.000
REMARK  Name = 
REMARK  4 active torsions:
REMARK  status: ('A' for Active; 'I' for Inactive)
REMARK    1  A    between atoms: C_1  and  O_2
REMARK    2  A    between atoms: O_2  and  C_3
REMARK    3  A    between atoms: C_8  and  C_9
REMARK    4  A    between atoms: N_11  and  C_12
REMARK                            x       y       z     vdW  Elec       q    Type
REMARK                         _______ _______ _______ _____ _____    ______ ____
ROOT
ATOM      1  C   UNL     1       1.688   7.381  20.502  0.00  0.00    +0.000 C 
ATOM      2  O   UNL     1       2.663   7.530  19.763  0.00  0.00    +0.000 OA
ATOM      3  N   UNL     1       1.407   6.073  20.988  0.00  0.00    +0.000 N 
ATOM      4  H   UNL     1       0.638   5.926  21.630  0.00  0.00    +0.000 HD
ENDROOT
BRANCH   3   5
ATOM      5  C   UNL     1       2.461   5.004  20.769  0.00  0.00    +0.000 C 
ATOM      6  C   UNL     1       2.069   3.734  21.562  0.00  0.00    +0.000 C 
ATOM      7  C   UNL     1       1.548   2.521  20.798  0.00  0.00    +0.000 C 
ATOM      8  C   UNL     1       1.916   2.382  19.334  0.00  0.00    +0.000 C 
ATOM      9  C   UNL     1       2.193   3.687  18.592  0.00  0.00    +0.000 A 
ATOM     10  C   UNL     1       2.496   3.427  17.228  0.00  0.00    +0.000 A 
ATOM     11  C   UNL     1       3.812   3.592  16.825  0.00  0.00    +0.000 A 
ATOM     12  C   UNL     1       4.716   4.148  17.713  0.00  0.00    +0.000 A 
ATOM     13  C   UNL     1       4.264   4.719  18.932  0.00  0.00    +0.000 A 
ATOM     14  C   UNL     1       2.921   4.616  19.347  0.00  0.00    +0.000 A 
ENDBRANCH   3   5
BRANCH   1  20
ATOM     15  C   UNL     1       0.477   9.716  20.005  0.00  0.00    +0.000 A 
ATOM     16  C   UNL     1      -0.150  10.859  20.567  0.00  0.00    +0.000 A 
ATOM     17  C   UNL     1      -0.452  10.963  21.924  0.00  0.00    +0.000 A 
ATOM     18  C   UNL     1      -0.113   9.914  22.753  0.00  0.00    +0.000 A 
ATOM     19  C   UNL     1       0.566   8.804  22.218  0.00  0.00    +0.000 A 
ATOM     20  C   UNL     1       0.909   8.669  20.839  0.00  0.00    +0.000 A 
BRANCH  15  22
ATOM     21  C   UNL     1       1.745  10.461  18.161  0.00  0.00    +0.000 C 
ATOM     22  O   UNL     1       0.686   9.616  18.648  0.00  0.00    +0.000 OA
ENDBRANCH  15  22
ENDBRANCH   1  20
TORSDOF 3
ENDMDL
MODEL 2
REMARK VINA RESULT:      -7.3      0.994      2.029
REMARK  Name = 
REMARK  4 active torsions:
REMARK  status: ('A' for Active; 'I' for Inactive)
REMARK    1  A    between atoms: C_1  and  O_2
REMARK    2  A    between atoms: O_2  and  C_3
REMARK    3  A    between atoms: C_8  and  C_9
REMARK    4  A    between atoms: N_11  and  C_12
REMARK                            x       y       z     vdW  Elec       q    Type
REMARK                         _______ _______ _______ _____ _____    ______ ____
ROOT
ATOM      1  C   UNL     1       1.926   7.494  19.902  0.00  0.00    +0.000 C 
ATOM      2  O   UNL     1       2.731   7.351  18.979  0.00  0.00    +0.000 OA
ATOM      3  N   UNL     1       1.681   6.382  20.757  0.00  0.00    +0.000 N 
ATOM      4  H   UNL     1       1.057   6.482  21.548  0.00  0.00    +0.000 HD
ENDROOT
BRANCH   3   5
ATOM      5  C   UNL     1       2.603   5.184  20.630  0.00  0.00    +0.000 C 
ATOM      6  C   UNL     1       2.019   4.005  21.444  0.00  0.00    +0.000 C 
ATOM      7  C   UNL     1       1.388   2.835  20.697  0.00  0.00    +0.000 C 
ATOM      8  C   UNL     1       1.804   2.593  19.260  0.00  0.00    +0.000 C 
ATOM      9  C   UNL     1       2.276   3.823  18.489  0.00  0.00    +0.000 A 
ATOM     10  C   UNL     1       2.608   3.472  17.152  0.00  0.00    +0.000 A 
ATOM     11  C   UNL     1       3.952   3.458  16.812  0.00  0.00    +0.000 A 
ATOM     12  C   UNL     1       4.876   3.935  17.726  0.00  0.00    +0.000 A 
ATOM     13  C   UNL     1       4.441   4.606  18.900  0.00  0.00    +0.000 A 
ATOM     14  C   UNL     1       3.078   4.685  19.248  0.00  0.00    +0.000 A 
ENDBRANCH   3   5
BRANCH   1  20
ATOM     15  C   UNL     1       0.824   9.583  21.161  0.00  0.00    +0.000 A 
ATOM     16  C   UNL     1       0.208  10.853  21.014  0.00  0.00    +0.000 A 
ATOM     17  C   UNL     1       0.137  11.521  19.792  0.00  0.00    +0.000 A 
ATOM     18  C   UNL     1       0.679  10.910  18.680  0.00  0.00    +0.000 A 
ATOM     19  C   UNL     1       1.235   9.624  18.801  0.00  0.00    +0.000 A 
ATOM     20  C   UNL     1       1.310   8.901  20.031  0.00  0.00    +0.000 A 
BRANCH  15  22
ATOM     21  C   UNL     1      -0.003   9.473  23.367  0.00  0.00    +0.000 C 
ATOM     22  O   UNL     1       0.947   8.992  22.398  0.00  0.00    +0.000 OA
ENDBRANCH  15  22
ENDBRANCH   1  20
TORSDOF 3
ENDMDL
MODEL 3
REMARK VINA RESULT:      -7.3      1.738      2.816
REMARK  Name = 
REMARK  4 active torsions:
REMARK  status: ('A' for Active; 'I' for Inactive)
REMARK    1  A    between atoms: C_1  and  O_2
REMARK    2  A    between atoms: O_2  and  C_3
REMARK    3  A    between atoms: C_8  and  C_9
REMARK    4  A    between atoms: N_11  and  C_12
REMARK                            x       y       z     vdW  Elec       q    Type
REMARK                         _______ _______ _______ _____ _____    ______ ____
ROOT
ATOM      1  C   UNL     1       1.709   8.176  20.027  0.00  0.00    +0.000 C 
ATOM      2  O   UNL     1       1.842   7.688  21.151  0.00  0.00    +0.000 OA
ATOM      3  N   UNL     1       2.386   7.555  18.940  0.00  0.00    +0.000 N 
ATOM      4  H   UNL     1       2.264   7.908  17.999  0.00  0.00    +0.000 HD
ENDROOT
BRANCH   3   5
ATOM      5  C   UNL     1       3.021   6.200  19.193  0.00  0.00    +0.000 C 
ATOM      6  C   UNL     1       1.926   5.108  19.136  0.00  0.00    +0.000 C 
ATOM      7  C   UNL     1       1.873   4.181  17.925  0.00  0.00    +0.000 C 
ATOM      8  C   UNL     1       3.139   3.989  17.112  0.00  0.00    +0.000 C 
ATOM      9  C   UNL     1       4.128   5.152  17.139  0.00  0.00    +0.000 A 
ATOM     10  C   UNL     1       5.253   4.863  16.319  0.00  0.00    +0.000 A 
ATOM     11  C   UNL     1       6.451   4.585  16.958  0.00  0.00    +0.000 A 
ATOM     12  C   UNL     1       6.532   4.758  18.328  0.00  0.00    +0.000 A 
ATOM     13  C   UNL     1       5.477   5.396  19.034  0.00  0.00    +0.000 A 
ATOM     14  C   UNL     1       4.265   5.741  18.403  0.00  0.00    +0.000 A 
ENDBRANCH   3   5
BRANCH   1  20
ATOM     15  C   UNL     1       0.326  10.275  20.948  0.00  0.00    +0.000 A 
ATOM     16  C   UNL     1      -0.621  11.286  20.640  0.00  0.00    +0.000 A 
ATOM     17  C   UNL     1      -1.075  11.525  19.344  0.00  0.00    +0.000 A 
ATOM     18  C   UNL     1      -0.591  10.732  18.324  0.00  0.00    +0.000 A 
ATOM     19  C   UNL     1       0.298   9.685  18.627  0.00  0.00    +0.000 A 
ATOM     20  C   UNL     1       0.773   9.399  19.943  0.00  0.00    +0.000 A 
BRANCH  15  22
ATOM     21  C   UNL     1      -0.186   9.719  23.183  0.00  0.00    +0.000 C 
ATOM     22  O   UNL     1       0.813  10.123  22.227  0.00  0.00    +0.000 OA
ENDBRANCH  15  22
ENDBRANCH   1  20
TORSDOF 3
ENDMDL
MODEL 4
REMARK VINA RESULT:      -7.2      1.338      1.542
REMARK  Name = 
REMARK  4 active torsions:
REMARK  status: ('A' for Active; 'I' for Inactive)
REMARK    1  A    between atoms: C_1  and  O_2
REMARK    2  A    between atoms: O_2  and  C_3
REMARK    3  A    between atoms: C_8  and  C_9
REMARK    4  A    between atoms: N_11  and  C_12
REMARK                            x       y       z     vdW  Elec       q    Type
REMARK                         _______ _______ _______ _____ _____    ______ ____
ROOT
ATOM      1  C   UNL     1       1.316   8.470  20.887  0.00  0.00    +0.000 C 
ATOM      2  O   UNL     1       1.889   8.286  21.964  0.00  0.00    +0.000 OA
ATOM      3  N   UNL     1       1.596   7.575  19.816  0.00  0.00    +0.000 N 
ATOM      4  H   UNL     1       1.110   7.676  18.934  0.00  0.00    +0.000 HD
ENDROOT
BRANCH   3   5
ATOM      5  C   UNL     1       2.384   6.320  20.140  0.00  0.00    +0.000 C 
ATOM      6  C   UNL     1       1.439   5.278  20.784  0.00  0.00    +0.000 C 
ATOM      7  C   UNL     1       1.009   4.067  19.962  0.00  0.00    +0.000 C 
ATOM      8  C   UNL     1       1.887   3.637  18.804  0.00  0.00    +0.000 C 
ATOM      9  C   UNL     1       2.718   4.741  18.155  0.00  0.00    +0.000 A 
ATOM     10  C   UNL     1       3.472   4.220  17.068  0.00  0.00    +0.000 A 
ATOM     11  C   UNL     1       4.840   4.090  17.247  0.00  0.00    +0.000 A 
ATOM     12  C   UNL     1       5.416   4.617  18.390  0.00  0.00    +0.000 A 
ATOM     13  C   UNL     1       4.656   5.443  19.260  0.00  0.00    +0.000 A 
ATOM     14  C   UNL     1       3.273   5.639  19.076  0.00  0.00    +0.000 A 
ENDBRANCH   3   5
BRANCH   1  20
ATOM     15  C   UNL     1      -0.263  10.322  19.773  0.00  0.00    +0.000 A 
ATOM     16  C   UNL     1      -1.089  11.454  20.000  0.00  0.00    +0.000 A 
ATOM     17  C   UNL     1      -1.440  11.888  21.277  0.00  0.00    +0.000 A 
ATOM     18  C   UNL     1      -0.947  11.194  22.363  0.00  0.00    +0.000 A 
ATOM     19  C   UNL     1      -0.075  10.111  22.152  0.00  0.00    +0.000 A 
ATOM     20  C   UNL     1       0.320   9.647  20.860  0.00  0.00    +0.000 A 
BRANCH  15  22
ATOM     21  C   UNL     1      -1.138   9.960  17.612  0.00  0.00    +0.000 C 
ATOM     22  O   UNL     1      -0.005   9.875  18.497  0.00  0.00    +0.000 OA
ENDBRANCH  15  22
ENDBRANCH   1  20
TORSDOF 3
ENDMDL
MODEL 5
REMARK VINA RESULT:      -7.1      1.682      3.380
REMARK  Name = 
REMARK  4 active torsions:
REMARK  status: ('A' for Active; 'I' for Inactive)
REMARK    1  A    between atoms: C_1  and  O_2
REMARK    2  A    between atoms: O_2  and  C_3
REMARK    3  A    between atoms: C_8  and  C_9
REMARK    4  A    between atoms: N_11  and  C_12
REMARK                            x       y       z     vdW  Elec       q    Type
REMARK                         _______ _______ _______ _____ _____    ______ ____
ROOT
ATOM      1  C   UNL     1       1.838   8.757  18.333  0.00  0.00    +0.000 C 
ATOM      2  O   UNL     1       1.783   8.667  17.104  0.00  0.00    +0.000 OA
ATOM      3  N   UNL     1       2.120   7.578  19.080  0.00  0.00    +0.000 N 
ATOM      4  H   UNL     1       2.212   7.629  20.087  0.00  0.00    +0.000 HD
ENDROOT
BRANCH   3   5
ATOM      5  C   UNL     1       2.574   6.353  18.310  0.00  0.00    +0.000 C 
ATOM      6  C   UNL     1       4.093   6.458  18.036  0.00  0.00    +0.000 C 
ATOM      7  C   UNL     1       5.048   5.569  18.827  0.00  0.00    +0.000 C 
ATOM      8  C   UNL     1       4.503   4.289  19.429  0.00  0.00    +0.000 C 
ATOM      9  C   UNL     1       3.013   4.295  19.764  0.00  0.00    +0.000 A 
ATOM     10  C   UNL     1       2.632   3.055  20.347  0.00  0.00    +0.000 A 
ATOM     11  C   UNL     1       1.866   2.197  19.575  0.00  0.00    +0.000 A 
ATOM     12  C   UNL     1       1.381   2.647  18.359  0.00  0.00    +0.000 A 
ATOM     13  C   UNL     1       1.497   4.018  18.005  0.00  0.00    +0.000 A 
ATOM     14  C   UNL     1       2.224   4.929  18.796  0.00  0.00    +0.000 A 
ENDBRANCH   3   5
BRANCH   1  20
ATOM     15  C   UNL     1       0.937  10.602  20.050  0.00  0.00    +0.000 A 
ATOM     16  C   UNL     1       0.801  11.988  20.322  0.00  0.00    +0.000 A 
ATOM     17  C   UNL     1       1.411  12.973  19.547  0.00  0.00    +0.000 A 
ATOM     18  C   UNL     1       2.165  12.577  18.461  0.00  0.00    +0.000 A 
ATOM     19  C   UNL     1       2.253  11.210  18.143  0.00  0.00    +0.000 A 
ATOM     20  C   UNL     1       1.630  10.174  18.903  0.00  0.00    +0.000 A 
BRANCH  15  22
ATOM     21  C   UNL     1       1.148   9.432  22.087  0.00  0.00    +0.000 C 
ATOM     22  O   UNL     1       0.387   9.656  20.886  0.00  0.00    +0.000 OA
ENDBRANCH  15  22
ENDBRANCH   1  20
TORSDOF 3
ENDMDL
MODEL 6
REMARK VINA RESULT:      -7.1      1.410      1.877
REMARK  Name = 
REMARK  4 active torsions:
REMARK  status: ('A' for Active; 'I' for Inactive)
REMARK    1  A    between atoms: C_1  and  O_2
REMARK    2  A    between atoms: O_2  and  C_3
REMARK    3  A    between atoms: C_8  and  C_9
REMARK    4  A    between atoms: N_11  and  C_12
REMARK                            x       y       z     vdW  Elec       q    Type
REMARK                         _______ _______ _______ _____ _____    ______ ____
ROOT
ATOM      1  C   UNL     1       1.643   7.875  20.529  0.00  0.00    +0.000 C 
ATOM      2  O   UNL     1       1.800   7.265  21.589  0.00  0.00    +0.000 OA
ATOM      3  N   UNL     1       2.280   7.367  19.362  0.00  0.00    +0.000 N 
ATOM      4  H   UNL     1       2.137   7.823  18.469  0.00  0.00    +0.000 HD
ENDROOT
BRANCH   3   5
ATOM      5  C   UNL     1       2.899   5.984  19.447  0.00  0.00    +0.000 C 
ATOM      6  C   UNL     1       1.789   4.920  19.276  0.00  0.00    +0.000 C 
ATOM      7  C   UNL     1       1.710   4.142  17.966  0.00  0.00    +0.000 C 
ATOM      8  C   UNL     1       2.964   4.031  17.120  0.00  0.00    +0.000 C 
ATOM      9  C   UNL     1       3.969   5.171  17.271  0.00  0.00    +0.000 A 
ATOM     10  C   UNL     1       5.081   4.967  16.409  0.00  0.00    +0.000 A 
ATOM     11  C   UNL     1       6.282   4.601  16.995  0.00  0.00    +0.000 A 
ATOM     12  C   UNL     1       6.381   4.611  18.376  0.00  0.00    +0.000 A 
ATOM     13  C   UNL     1       5.342   5.175  19.164  0.00  0.00    +0.000 A 
ATOM     14  C   UNL     1       4.128   5.606  18.593  0.00  0.00    +0.000 A 
ENDBRANCH   3   5
BRANCH   1  20
ATOM     15  C   UNL     1       0.340  10.024  19.608  0.00  0.00    +0.000 A 
ATOM     16  C   UNL     1      -0.449  11.155  19.945  0.00  0.00    +0.000 A 
ATOM     17  C   UNL     1      -0.954  11.368  21.227  0.00  0.00    +0.000 A 
ATOM     18  C   UNL     1      -0.658  10.445  22.209  0.00  0.00    +0.000 A 
ATOM     19  C   UNL     1       0.176   9.355  21.902  0.00  0.00    +0.000 A 
ATOM     20  C   UNL     1       0.726   9.112  20.607  0.00  0.00    +0.000 A 
BRANCH  15  22
ATOM     21  C   UNL     1       1.912  10.573  17.937  0.00  0.00    +0.000 C 
ATOM     22  O   UNL     1       0.753   9.806  18.313  0.00  0.00    +0.000 OA
ENDBRANCH  15  22
ENDBRANCH   1  20
TORSDOF 3
ENDMDL
MODEL 7
REMARK VINA RESULT:      -7.0      4.191      8.060
REMARK  Name = 
REMARK  4 active torsions:
REMARK  status: ('A' for Active; 'I' for Inactive)
REMARK    1  A    between atoms: C_1  and  O_2
REMARK    2  A    between atoms: O_2  and  C_3
REMARK    3  A    between atoms: C_8  and  C_9
REMARK    4  A    between atoms: N_11  and  C_12
REMARK                            x       y       z     vdW  Elec       q    Type
REMARK                         _______ _______ _______ _____ _____    ______ ____
ROOT
ATOM      1  C   UNL     1       5.966   4.210  15.665  0.00  0.00    +0.000 C 
ATOM      2  O   UNL     1       6.935   4.234  16.426  0.00  0.00    +0.000 OA
ATOM      3  N   UNL     1       4.664   4.296  16.233  0.00  0.00    +0.000 N 
ATOM      4  H   UNL     1       3.850   4.320  15.631  0.00  0.00    +0.000 HD
ENDROOT
BRANCH   3   5
ATOM      5  C   UNL     1       4.563   4.660  17.703  0.00  0.00    +0.000 C 
ATOM      6  C   UNL     1       4.477   6.198  17.841  0.00  0.00    +0.000 C 
ATOM      7  C   UNL     1       3.140   6.830  18.216  0.00  0.00    +0.000 C 
ATOM      8  C   UNL     1       2.120   5.974  18.942  0.00  0.00    +0.000 C 
ATOM      9  C   UNL     1       2.206   4.473  18.679  0.00  0.00    +0.000 A 
ATOM     10  C   UNL     1       1.184   3.786  19.389  0.00  0.00    +0.000 A 
ATOM     11  C   UNL     1       1.568   3.031  20.486  0.00  0.00    +0.000 A 
ATOM     12  C   UNL     1       2.918   2.853  20.733  0.00  0.00    +0.000 A 
ATOM     13  C   UNL     1       3.882   3.265  19.775  0.00  0.00    +0.000 A 
ATOM     14  C   UNL     1       3.519   3.988  18.622  0.00  0.00    +0.000 A 
ENDBRANCH   3   5
BRANCH   1  20
ATOM     15  C   UNL     1       7.289   4.795  13.413  0.00  0.00    +0.000 A 
ATOM     16  C   UNL     1       7.349   4.623  12.005  0.00  0.00    +0.000 A 
ATOM     17  C   UNL     1       6.525   3.733  11.318  0.00  0.00    +0.000 A 
ATOM     18  C   UNL     1       5.603   3.003  12.041  0.00  0.00    +0.000 A 
ATOM     19  C   UNL     1       5.491   3.213  13.427  0.00  0.00    +0.000 A 
ATOM     20  C   UNL     1       6.305   4.127  14.163  0.00  0.00    +0.000 A 
BRANCH  15  22
ATOM     21  C   UNL     1       9.256   6.085  13.236  0.00  0.00    +0.000 C 
ATOM     22  O   UNL     1       8.175   5.623  14.066  0.00  0.00    +0.000 OA
ENDBRANCH  15  22
ENDBRANCH   1  20
TORSDOF 3
ENDMDL
MODEL 8
REMARK VINA RESULT:      -6.9      4.335      8.090
REMARK  Name = 
REMARK  4 active torsions:
REMARK  status: ('A' for Active; 'I' for Inactive)
REMARK    1  A    between atoms: C_1  and  O_2
REMARK    2  A    between atoms: O_2  and  C_3
REMARK    3  A    between atoms: C_8  and  C_9
REMARK    4  A    between atoms: N_11  and  C_12
REMARK                            x       y       z     vdW  Elec       q    Type
REMARK                         _______ _______ _______ _____ _____    ______ ____
ROOT
ATOM      1  C   UNL     1       6.185   4.283  15.525  0.00  0.00    +0.000 C 
ATOM      2  O   UNL     1       7.064   4.210  16.387  0.00  0.00    +0.000 OA
ATOM      3  N   UNL     1       4.827   4.192  15.941  0.00  0.00    +0.000 N 
ATOM      4  H   UNL     1       4.083   4.291  15.262  0.00  0.00    +0.000 HD
ENDROOT
BRANCH   3   5
ATOM      5  C   UNL     1       4.545   4.260  17.431  0.00  0.00    +0.000 C 
ATOM      6  C   UNL     1       4.581   5.737  17.888  0.00  0.00    +0.000 C 
ATOM      7  C   UNL     1       3.267   6.437  18.222  0.00  0.00    +0.000 C 
ATOM      8  C   UNL     1       2.077   5.581  18.611  0.00  0.00    +0.000 C 
ATOM      9  C   UNL     1       2.063   4.166  18.041  0.00  0.00    +0.000 A 
ATOM     10  C   UNL     1       0.888   3.478  18.452  0.00  0.00    +0.000 A 
ATOM     11  C   UNL     1       1.035   2.475  19.397  0.00  0.00    +0.000 A 
ATOM     12  C   UNL     1       2.311   2.089  19.766  0.00  0.00    +0.000 A 
ATOM     13  C   UNL     1       3.440   2.567  19.048  0.00  0.00    +0.000 A 
ATOM     14  C   UNL     1       3.320   3.548  18.044  0.00  0.00    +0.000 A 
ENDBRANCH   3   5
BRANCH   1  20
ATOM     15  C   UNL     1       6.253   3.950  12.870  0.00  0.00    +0.000 A 
ATOM     16  C   UNL     1       6.943   4.244  11.665  0.00  0.00    +0.000 A 
ATOM     17  C   UNL     1       7.998   5.152  11.602  0.00  0.00    +0.000 A 
ATOM     18  C   UNL     1       8.394   5.777  12.766  0.00  0.00    +0.000 A 
ATOM     19  C   UNL     1       7.761   5.446  13.978  0.00  0.00    +0.000 A 
ATOM     20  C   UNL     1       6.688   4.509  14.085  0.00  0.00    +0.000 A 
BRANCH  15  22
ATOM     21  C   UNL     1       4.437   3.089  11.634  0.00  0.00    +0.000 C 
ATOM     22  O   UNL     1       5.162   3.109  12.878  0.00  0.00    +0.000 OA
ENDBRANCH  15  22
ENDBRANCH   1  20
TORSDOF 3
ENDMDL
MODEL 9
REMARK VINA RESULT:      -6.8      1.750      2.906
REMARK  Name = 
REMARK  4 active torsions:
REMARK  status: ('A' for Active; 'I' for Inactive)
REMARK    1  A    between atoms: C_1  and  O_2
REMARK    2  A    between atoms: O_2  and  C_3
REMARK    3  A    between atoms: C_8  and  C_9
REMARK    4  A    between atoms: N_11  and  C_12
REMARK                            x       y       z     vdW  Elec       q    Type
REMARK                         _______ _______ _______ _____ _____    ______ ____
ROOT
ATOM      1  C   UNL     1       1.535   8.585  18.643  0.00  0.00    +0.000 C 
ATOM      2  O   UNL     1       1.195   8.614  17.458  0.00  0.00    +0.000 OA
ATOM      3  N   UNL     1       2.268   7.455  19.104  0.00  0.00    +0.000 N 
ATOM      4  H   UNL     1       2.596   7.422  20.061  0.00  0.00    +0.000 HD
ENDROOT
BRANCH   3   5
ATOM      5  C   UNL     1       2.793   6.488  18.059  0.00  0.00    +0.000 C 
ATOM      6  C   UNL     1       4.170   6.983  17.555  0.00  0.00    +0.000 C 
ATOM      7  C   UNL     1       5.427   6.241  17.998  0.00  0.00    +0.000 C 
ATOM      8  C   UNL     1       5.289   4.798  18.444  0.00  0.00    +0.000 C 
ATOM      9  C   UNL     1       3.931   4.409  19.022  0.00  0.00    +0.000 A 
ATOM     10  C   UNL     1       3.938   3.047  19.429  0.00  0.00    +0.000 A 
ATOM     11  C   UNL     1       3.219   2.148  18.656  0.00  0.00    +0.000 A 
ATOM     12  C   UNL     1       2.413   2.636  17.642  0.00  0.00    +0.000 A 
ATOM     13  C   UNL     1       2.173   4.032  17.526  0.00  0.00    +0.000 A 
ATOM     14  C   UNL     1       2.847   4.969  18.333  0.00  0.00    +0.000 A 
ENDBRANCH   3   5
BRANCH   1  20
ATOM     15  C   UNL     1       1.485  11.177  19.308  0.00  0.00    +0.000 A 
ATOM     16  C   UNL     1       1.075  12.137  20.270  0.00  0.00    +0.000 A 
ATOM     17  C   UNL     1       0.253  11.819  21.350  0.00  0.00    +0.000 A 
ATOM     18  C   UNL     1      -0.164  10.512  21.493  0.00  0.00    +0.000 A 
ATOM     19  C   UNL     1       0.288   9.540  20.583  0.00  0.00    +0.000 A 
ATOM     20  C   UNL     1       1.143   9.823  19.475  0.00  0.00    +0.000 A 
BRANCH  15  22
ATOM     21  C   UNL     1       2.461  12.963  18.115  0.00  0.00    +0.000 C 
ATOM     22  O   UNL     1       2.229  11.545  18.210  0.00  0.00    +0.000 OA
ENDBRANCH  15  22
ENDBRANCH   1  20
TORSDOF 3
ENDMDL
