MODEL 1
REMARK VINA RESULT:      -8.6      0.000      0.000
REMARK  Name = 
REMARK  8 active torsions:
REMARK  status: ('A' for Active; 'I' for Inactive)
REMARK    1  A    between atoms: C_1  and  C_2
REMARK    2  A    between atoms: C_9  and  N_10
REMARK    3  A    between atoms: C_11  and  C_13
REMARK    4  A    between atoms: C_16  and  O_17
REMARK    5  A    between atoms: O_17  and  C_18
REMARK    6  A    between atoms: C_18  and  C_19
REMARK    7  A    between atoms: C_19  and  C_20
REMARK    8  A    between atoms: C_22  and  N_23
REMARK                            x       y       z     vdW  Elec       q    Type
REMARK                         _______ _______ _______ _____ _____    ______ ____
ROOT
ATOM      1  N   UNL     1       2.369   8.061  18.384  0.00  0.00    +0.000 N 
ATOM      2  C   UNL     1       2.737   6.843  18.921  0.00  0.00    +0.000 C 
ATOM      3  O   UNL     1       2.414   6.407  20.028  0.00  0.00    +0.000 OA
ATOM      4  H   UNL     1       2.747   8.345  17.490  0.00  0.00    +0.000 HD
ENDROOT
BRANCH   1  13
ATOM      5  C   UNL     1      -4.451  12.744  22.873  0.00  0.00    +0.000 C 
ATOM      6  C   UNL     1      -3.064  12.954  22.267  0.00  0.00    +0.000 C 
ATOM      7  C   UNL     1      -3.078  12.687  20.749  0.00  0.00    +0.000 C 
ATOM      8  C   UNL     1      -1.673  12.778  20.136  0.00  0.00    +0.000 C 
ATOM      9  N   UNL     1      -0.797  11.905  20.898  0.00  0.00    +0.000 N 
ATOM     10  C   UNL     1      -0.043  10.939  20.270  0.00  0.00    +0.000 A 
ATOM     11  C   UNL     1       0.298   9.777  20.950  0.00  0.00    +0.000 A 
ATOM     12  C   UNL     1       1.077   8.802  20.340  0.00  0.00    +0.000 A 
ATOM     13  C   UNL     1       1.531   8.988  19.046  0.00  0.00    +0.000 A 
ATOM     14  C   UNL     1       1.113  10.149  18.409  0.00  0.00    +0.000 A 
ATOM     15  N   UNL     1       0.338  11.108  18.984  0.00  0.00    +0.000 NA
ATOM     16  C   UNL     1      -0.663  12.195  22.319  0.00  0.00    +0.000 C 
ATOM     17  C   UNL     1      -2.035  12.059  22.973  0.00  0.00    +0.000 C 
ENDBRANCH   1  13
BRANCH   2  18
ATOM     18  C   UNL     1       3.604   5.964  18.116  0.00  0.00    +0.000 A 
ATOM     19  C   UNL     1       3.004   4.829  17.579  0.00  0.00    +0.000 A 
ATOM     20  C   UNL     1       3.753   3.915  16.857  0.00  0.00    +0.000 A 
ATOM     21  C   UNL     1       5.116   4.127  16.592  0.00  0.00    +0.000 A 
ATOM     22  C   UNL     1       5.738   5.238  17.204  0.00  0.00    +0.000 A 
ATOM     23  C   UNL     1       4.975   6.161  17.960  0.00  0.00    +0.000 A 
BRANCH  22  24
ATOM     24  N   UNL     1       7.188   5.486  17.118  0.00  0.00    +0.000 N 
ATOM     25  O   UNL     1       7.971   4.681  17.621  0.00  0.00    +0.000 OA
ATOM     26  O   UNL     1       7.542   6.531  16.545  0.00  0.00    +0.000 OA
ENDBRANCH  22  24
BRANCH  21  27
ATOM     27  O   UNL     1       5.797   3.282  15.740  0.00  0.00    +0.000 OA
BRANCH  27  28
ATOM     28  C   UNL     1       6.356   3.942  14.590  0.00  0.00    +0.000 C 
BRANCH  28  29
ATOM     29  C   UNL     1       5.356   4.147  13.465  0.00  0.00    +0.000 C 
BRANCH  29  30
ATOM     30  C   UNL     1       5.620   3.206  12.304  0.00  0.00    +0.000 C 
ATOM     31 CL   UNL     1       4.181   3.117  11.260  0.00  0.00    +0.000 Cl
ENDBRANCH  29  30
ENDBRANCH  28  29
ENDBRANCH  27  28
ENDBRANCH  21  27
ENDBRANCH   2  18
TORSDOF 7
ENDMDL
MODEL 2
REMARK VINA RESULT:      -8.6      2.442      3.072
REMARK  Name = 
REMARK  8 active torsions:
REMARK  status: ('A' for Active; 'I' for Inactive)
REMARK    1  A    between atoms: C_1  and  C_2
REMARK    2  A    between atoms: C_9  and  N_10
REMARK    3  A    between atoms: C_11  and  C_13
REMARK    4  A    between atoms: C_16  and  O_17
REMARK    5  A    between atoms: O_17  and  C_18
REMARK    6  A    between atoms: C_18  and  C_19
REMARK    7  A    between atoms: C_19  and  C_20
REMARK    8  A    between atoms: C_22  and  N_23
REMARK                            x       y       z     vdW  Elec       q    Type
REMARK                         _______ _______ _______ _____ _____    ______ ____
ROOT
ATOM      1  N   UNL     1       1.818   8.527  19.288  0.00  0.00    +0.000 N 
ATOM      2  C   UNL     1       2.024   7.256  19.787  0.00  0.00    +0.000 C 
ATOM      3  O   UNL     1       1.510   6.778  20.801  0.00  0.00    +0.000 OA
ATOM      4  H   UNL     1       2.344   8.836  18.483  0.00  0.00    +0.000 HD
ENDROOT
BRANCH   1  13
ATOM      5  C   UNL     1      -4.919  13.229  23.881  0.00  0.00    +0.000 C 
ATOM      6  C   UNL     1      -3.702  13.465  22.988  0.00  0.00    +0.000 C 
ATOM      7  C   UNL     1      -3.909  12.834  21.596  0.00  0.00    +0.000 C 
ATOM      8  C   UNL     1      -2.655  12.956  20.718  0.00  0.00    +0.000 C 
ATOM      9  N   UNL     1      -1.532  12.420  21.468  0.00  0.00    +0.000 N 
ATOM     10  C   UNL     1      -0.730  11.437  20.931  0.00  0.00    +0.000 A 
ATOM     11  C   UNL     1      -0.091  10.532  21.770  0.00  0.00    +0.000 A 
ATOM     12  C   UNL     1       0.740   9.548  21.248  0.00  0.00    +0.000 A 
ATOM     13  C   UNL     1       0.946   9.470  19.881  0.00  0.00    +0.000 A 
ATOM     14  C   UNL     1       0.238  10.374  19.100  0.00  0.00    +0.000 A 
ATOM     15  N   UNL     1      -0.592  11.334  19.591  0.00  0.00    +0.000 NA
ATOM     16  C   UNL     1      -1.228  13.064  22.738  0.00  0.00    +0.000 C 
ATOM     17  C   UNL     1      -2.436  12.914  23.658  0.00  0.00    +0.000 C 
ENDBRANCH   1  13
BRANCH   2  18
ATOM     18  C   UNL     1       2.949   6.368  19.061  0.00  0.00    +0.000 A 
ATOM     19  C   UNL     1       3.477   6.866  17.873  0.00  0.00    +0.000 A 
ATOM     20  C   UNL     1       4.310   6.083  17.092  0.00  0.00    +0.000 A 
ATOM     21  C   UNL     1       4.698   4.794  17.495  0.00  0.00    +0.000 A 
ATOM     22  C   UNL     1       4.099   4.264  18.659  0.00  0.00    +0.000 A 
ATOM     23  C   UNL     1       3.230   5.058  19.446  0.00  0.00    +0.000 A 
BRANCH  22  24
ATOM     24  N   UNL     1       4.315   2.875  19.104  0.00  0.00    +0.000 N 
ATOM     25  O   UNL     1       5.175   2.637  19.950  0.00  0.00    +0.000 OA
ATOM     26  O   UNL     1       3.611   2.002  18.567  0.00  0.00    +0.000 OA
ENDBRANCH  22  24
BRANCH  21  27
ATOM     27  O   UNL     1       5.650   4.101  16.778  0.00  0.00    +0.000 OA
BRANCH  27  28
ATOM     28  C   UNL     1       6.907   4.790  16.661  0.00  0.00    +0.000 C 
BRANCH  28  29
ATOM     29  C   UNL     1       7.773   4.682  17.905  0.00  0.00    +0.000 C 
BRANCH  29  30
ATOM     30  C   UNL     1       7.601   5.887  18.812  0.00  0.00    +0.000 C 
ATOM     31 CL   UNL     1       7.722   7.384  17.857  0.00  0.00    +0.000 Cl
ENDBRANCH  29  30
ENDBRANCH  28  29
ENDBRANCH  27  28
ENDBRANCH  21  27
ENDBRANCH   2  18
TORSDOF 7
ENDMDL
MODEL 3
REMARK VINA RESULT:      -8.4      2.487      3.151
REMARK  Name = 
REMARK  8 active torsions:
REMARK  status: ('A' for Active; 'I' for Inactive)
REMARK    1  A    between atoms: C_1  and  C_2
REMARK    2  A    between atoms: C_9  and  N_10
REMARK    3  A    between atoms: C_11  and  C_13
REMARK    4  A    between atoms: C_16  and  O_17
REMARK    5  A    between atoms: O_17  and  C_18
REMARK    6  A    between atoms: C_18  and  C_19
REMARK    7  A    between atoms: C_19  and  C_20
REMARK    8  A    between atoms: C_22  and  N_23
REMARK                            x       y       z     vdW  Elec       q    Type
REMARK                         _______ _______ _______ _____ _____    ______ ____
ROOT
ATOM      1  N   UNL     1       1.997   8.123  19.840  0.00  0.00    +0.000 N 
ATOM      2  C   UNL     1       2.102   7.823  18.496  0.00  0.00    +0.000 C 
ATOM      3  O   UNL     1       1.423   8.304  17.586  0.00  0.00    +0.000 OA
ATOM      4  H   UNL     1       2.562   7.618  20.508  0.00  0.00    +0.000 HD
ENDROOT
BRANCH   1  13
ATOM      5  C   UNL     1      -5.398  13.041  22.957  0.00  0.00    +0.000 C 
ATOM      6  C   UNL     1      -3.893  13.173  22.730  0.00  0.00    +0.000 C 
ATOM      7  C   UNL     1      -3.544  13.024  21.236  0.00  0.00    +0.000 C 
ATOM      8  C   UNL     1      -2.028  13.036  20.995  0.00  0.00    +0.000 C 
ATOM      9  N   UNL     1      -1.432  12.033  21.861  0.00  0.00    +0.000 N 
ATOM     10  C   UNL     1      -0.611  11.054  21.346  0.00  0.00    +0.000 A 
ATOM     11  C   UNL     1      -0.531   9.818  21.975  0.00  0.00    +0.000 A 
ATOM     12  C   UNL     1       0.308   8.826  21.483  0.00  0.00    +0.000 A 
ATOM     13  C   UNL     1       1.084   9.069  20.362  0.00  0.00    +0.000 A 
ATOM     14  C   UNL     1       0.918  10.308  19.756  0.00  0.00    +0.000 A 
ATOM     15  N   UNL     1       0.090  11.285  20.214  0.00  0.00    +0.000 NA
ATOM     16  C   UNL     1      -1.638  12.202  23.293  0.00  0.00    +0.000 C 
ATOM     17  C   UNL     1      -3.136  12.139  23.576  0.00  0.00    +0.000 C 
ENDBRANCH   1  13
BRANCH   2  18
ATOM     18  C   UNL     1       3.107   6.827  18.086  0.00  0.00    +0.000 A 
ATOM     19  C   UNL     1       3.940   7.189  17.030  0.00  0.00    +0.000 A 
ATOM     20  C   UNL     1       4.877   6.296  16.537  0.00  0.00    +0.000 A 
ATOM     21  C   UNL     1       5.061   5.030  17.116  0.00  0.00    +0.000 A 
ATOM     22  C   UNL     1       4.163   4.637  18.133  0.00  0.00    +0.000 A 
ATOM     23  C   UNL     1       3.191   5.543  18.623  0.00  0.00    +0.000 A 
BRANCH  22  24
ATOM     24  N   UNL     1       4.164   3.283  18.717  0.00  0.00    +0.000 N 
ATOM     25  O   UNL     1       3.451   2.411  18.225  0.00  0.00    +0.000 OA
ATOM     26  O   UNL     1       4.891   3.105  19.710  0.00  0.00    +0.000 OA
ENDBRANCH  22  24
BRANCH  21  27
ATOM     27  O   UNL     1       6.105   4.226  16.707  0.00  0.00    +0.000 OA
BRANCH  27  28
ATOM     28  C   UNL     1       7.405   4.753  17.027  0.00  0.00    +0.000 C 
BRANCH  28  29
ATOM     29  C   UNL     1       7.644   4.904  18.519  0.00  0.00    +0.000 C 
BRANCH  29  30
ATOM     30  C   UNL     1       8.036   6.325  18.882  0.00  0.00    +0.000 C 
ATOM     31 CL   UNL     1       7.762   7.400  17.490  0.00  0.00    +0.000 Cl
ENDBRANCH  29  30
ENDBRANCH  28  29
ENDBRANCH  27  28
ENDBRANCH  21  27
ENDBRANCH   2  18
TORSDOF 7
ENDMDL
MODEL 4
REMARK VINA RESULT:      -8.4      1.733      2.241
REMARK  Name = 
REMARK  8 active torsions:
REMARK  status: ('A' for Active; 'I' for Inactive)
REMARK    1  A    between atoms: C_1  and  C_2
REMARK    2  A    between atoms: C_9  and  N_10
REMARK    3  A    between atoms: C_11  and  C_13
REMARK    4  A    between atoms: C_16  and  O_17
REMARK    5  A    between atoms: O_17  and  C_18
REMARK    6  A    between atoms: C_18  and  C_19
REMARK    7  A    between atoms: C_19  and  C_20
REMARK    8  A    between atoms: C_22  and  N_23
REMARK                            x       y       z     vdW  Elec       q    Type
REMARK                         _______ _______ _______ _____ _____    ______ ____
ROOT
ATOM      1  N   UNL     1       1.714   8.512  19.243  0.00  0.00    +0.000 N 
ATOM      2  C   UNL     1       2.010   7.279  19.791  0.00  0.00    +0.000 C 
ATOM      3  O   UNL     1       1.559   6.823  20.844  0.00  0.00    +0.000 OA
ATOM      4  H   UNL     1       2.194   8.812  18.405  0.00  0.00    +0.000 HD
ENDROOT
BRANCH   1  13
ATOM      5  C   UNL     1      -5.179  13.041  23.777  0.00  0.00    +0.000 C 
ATOM      6  C   UNL     1      -3.970  13.307  22.881  0.00  0.00    +0.000 C 
ATOM      7  C   UNL     1      -4.154  12.654  21.497  0.00  0.00    +0.000 C 
ATOM      8  C   UNL     1      -2.904  12.807  20.618  0.00  0.00    +0.000 C 
ATOM      9  N   UNL     1      -1.765  12.316  21.375  0.00  0.00    +0.000 N 
ATOM     10  C   UNL     1      -0.931  11.355  20.850  0.00  0.00    +0.000 A 
ATOM     11  C   UNL     1      -0.262  10.482  21.700  0.00  0.00    +0.000 A 
ATOM     12  C   UNL     1       0.601   9.520  21.190  0.00  0.00    +0.000 A 
ATOM     13  C   UNL     1       0.811   9.432  19.824  0.00  0.00    +0.000 A 
ATOM     14  C   UNL     1       0.074  10.303  19.032  0.00  0.00    +0.000 A 
ATOM     15  N   UNL     1      -0.787  11.241  19.511  0.00  0.00    +0.000 NA
ATOM     16  C   UNL     1      -1.484  12.986  22.637  0.00  0.00    +0.000 C 
ATOM     17  C   UNL     1      -2.687  12.806  23.559  0.00  0.00    +0.000 C 
ENDBRANCH   1  13
BRANCH   2  18
ATOM     18  C   UNL     1       2.958   6.411  19.071  0.00  0.00    +0.000 A 
ATOM     19  C   UNL     1       3.574   6.964  17.952  0.00  0.00    +0.000 A 
ATOM     20  C   UNL     1       4.437   6.205  17.179  0.00  0.00    +0.000 A 
ATOM     21  C   UNL     1       4.766   4.884  17.526  0.00  0.00    +0.000 A 
ATOM     22  C   UNL     1       4.081   4.302  18.615  0.00  0.00    +0.000 A 
ATOM     23  C   UNL     1       3.182   5.073  19.393  0.00  0.00    +0.000 A 
BRANCH  22  24
ATOM     24  N   UNL     1       4.234   2.885  18.987  0.00  0.00    +0.000 N 
ATOM     25  O   UNL     1       3.528   2.036  18.443  0.00  0.00    +0.000 OA
ATOM     26  O   UNL     1       5.075   2.626  19.865  0.00  0.00    +0.000 OA
ENDBRANCH  22  24
BRANCH  21  27
ATOM     27  O   UNL     1       5.746   4.208  16.830  0.00  0.00    +0.000 OA
BRANCH  27  28
ATOM     28  C   UNL     1       6.779   5.060  16.303  0.00  0.00    +0.000 C 
BRANCH  28  29
ATOM     29  C   UNL     1       7.062   4.825  14.829  0.00  0.00    +0.000 C 
BRANCH  29  30
ATOM     30  C   UNL     1       6.138   3.773  14.244  0.00  0.00    +0.000 C 
ATOM     31 CL   UNL     1       6.393   3.657  12.485  0.00  0.00    +0.000 Cl
ENDBRANCH  29  30
ENDBRANCH  28  29
ENDBRANCH  27  28
ENDBRANCH  21  27
ENDBRANCH   2  18
TORSDOF 7
ENDMDL
MODEL 5
REMARK VINA RESULT:      -8.3      2.649      3.509
REMARK  Name = 
REMARK  8 active torsions:
REMARK  status: ('A' for Active; 'I' for Inactive)
REMARK    1  A    between atoms: C_1  and  C_2
REMARK    2  A    between atoms: C_9  and  N_10
REMARK    3  A    between atoms: C_11  and  C_13
REMARK    4  A    between atoms: C_16  and  O_17
REMARK    5  A    between atoms: O_17  and  C_18
REMARK    6  A    between atoms: C_18  and  C_19
REMARK    7  A    between atoms: C_19  and  C_20
REMARK    8  A    between atoms: C_22  and  N_23
REMARK                            x       y       z     vdW  Elec       q    Type
REMARK                         _______ _______ _______ _____ _____    ______ ____
ROOT
ATOM      1  N   UNL     1       1.277   8.730  19.529  0.00  0.00    +0.000 N 
ATOM      2  C   UNL     1       1.971   8.735  18.335  0.00  0.00    +0.000 C 
ATOM      3  O   UNL     1       1.985   9.644  17.503  0.00  0.00    +0.000 OA
ATOM      4  H   UNL     1       1.285   7.900  20.106  0.00  0.00    +0.000 HD
ENDROOT
BRANCH   1  13
ATOM      5  C   UNL     1      -4.155  14.876  24.147  0.00  0.00    +0.000 C 
ATOM      6  C   UNL     1      -3.492  14.662  22.787  0.00  0.00    +0.000 C 
ATOM      7  C   UNL     1      -4.042  13.398  22.096  0.00  0.00    +0.000 C 
ATOM      8  C   UNL     1      -3.309  13.096  20.780  0.00  0.00    +0.000 C 
ATOM      9  N   UNL     1      -1.884  13.064  21.062  0.00  0.00    +0.000 N 
ATOM     10  C   UNL     1      -1.120  11.975  20.706  0.00  0.00    +0.000 A 
ATOM     11  C   UNL     1       0.013  11.655  21.444  0.00  0.00    +0.000 A 
ATOM     12  C   UNL     1       0.809  10.574  21.086  0.00  0.00    +0.000 A 
ATOM     13  C   UNL     1       0.483   9.811  19.978  0.00  0.00    +0.000 A 
ATOM     14  C   UNL     1      -0.688  10.157  19.316  0.00  0.00    +0.000 A 
ATOM     15  N   UNL     1      -1.488  11.202  19.660  0.00  0.00    +0.000 NA
ATOM     16  C   UNL     1      -1.299  14.281  21.607  0.00  0.00    +0.000 C 
ATOM     17  C   UNL     1      -1.967  14.582  22.946  0.00  0.00    +0.000 C 
ENDBRANCH   1  13
BRANCH   2  18
ATOM     18  C   UNL     1       2.773   7.546  17.996  0.00  0.00    +0.000 A 
ATOM     19  C   UNL     1       3.924   7.771  17.245  0.00  0.00    +0.000 A 
ATOM     20  C   UNL     1       4.710   6.710  16.830  0.00  0.00    +0.000 A 
ATOM     21  C   UNL     1       4.411   5.387  17.196  0.00  0.00    +0.000 A 
ATOM     22  C   UNL     1       3.203   5.155  17.889  0.00  0.00    +0.000 A 
ATOM     23  C   UNL     1       2.388   6.240  18.296  0.00  0.00    +0.000 A 
BRANCH  22  24
ATOM     24  N   UNL     1       2.712   3.801  18.202  0.00  0.00    +0.000 N 
ATOM     25  O   UNL     1       2.941   3.315  19.308  0.00  0.00    +0.000 OA
ATOM     26  O   UNL     1       2.096   3.208  17.299  0.00  0.00    +0.000 OA
ENDBRANCH  22  24
BRANCH  21  27
ATOM     27  O   UNL     1       5.296   4.370  16.902  0.00  0.00    +0.000 OA
BRANCH  27  28
ATOM     28  C   UNL     1       6.617   4.827  16.564  0.00  0.00    +0.000 C 
BRANCH  28  29
ATOM     29  C   UNL     1       7.649   4.540  17.642  0.00  0.00    +0.000 C 
BRANCH  29  30
ATOM     30  C   UNL     1       7.538   5.518  18.797  0.00  0.00    +0.000 C 
ATOM     31 CL   UNL     1       7.971   7.154  18.248  0.00  0.00    +0.000 Cl
ENDBRANCH  29  30
ENDBRANCH  28  29
ENDBRANCH  27  28
ENDBRANCH  21  27
ENDBRANCH   2  18
TORSDOF 7
ENDMDL
MODEL 6
REMARK VINA RESULT:      -8.3      0.935      1.665
REMARK  Name = 
REMARK  8 active torsions:
REMARK  status: ('A' for Active; 'I' for Inactive)
REMARK    1  A    between atoms: C_1  and  C_2
REMARK    2  A    between atoms: C_9  and  N_10
REMARK    3  A    between atoms: C_11  and  C_13
REMARK    4  A    between atoms: C_16  and  O_17
REMARK    5  A    between atoms: O_17  and  C_18
REMARK    6  A    between atoms: C_18  and  C_19
REMARK    7  A    between atoms: C_19  and  C_20
REMARK    8  A    between atoms: C_22  and  N_23
REMARK                            x       y       z     vdW  Elec       q    Type
REMARK                         _______ _______ _______ _____ _____    ______ ____
ROOT
ATOM      1  N   UNL     1       2.399   8.112  18.394  0.00  0.00    +0.000 N 
ATOM      2  C   UNL     1       2.712   6.861  18.887  0.00  0.00    +0.000 C 
ATOM      3  O   UNL     1       2.312   6.373  19.946  0.00  0.00    +0.000 OA
ATOM      4  H   UNL     1       2.838   8.436  17.543  0.00  0.00    +0.000 HD
ENDROOT
BRANCH   1  13
ATOM      5  C   UNL     1      -1.926  15.411  22.471  0.00  0.00    +0.000 C 
ATOM      6  C   UNL     1      -2.121  13.923  22.182  0.00  0.00    +0.000 C 
ATOM      7  C   UNL     1      -1.042  13.077  22.887  0.00  0.00    +0.000 C 
ATOM      8  C   UNL     1      -1.146  11.590  22.518  0.00  0.00    +0.000 C 
ATOM      9  N   UNL     1      -1.146  11.489  21.069  0.00  0.00    +0.000 N 
ATOM     10  C   UNL     1      -0.246  10.675  20.418  0.00  0.00    +0.000 A 
ATOM     11  C   UNL     1       0.170  10.995  19.131  0.00  0.00    +0.000 A 
ATOM     12  C   UNL     1       1.060  10.174  18.450  0.00  0.00    +0.000 A 
ATOM     13  C   UNL     1       1.532   9.018  19.049  0.00  0.00    +0.000 A 
ATOM     14  C   UNL     1       1.113   8.786  20.353  0.00  0.00    +0.000 A 
ATOM     15  N   UNL     1       0.255   9.586  21.041  0.00  0.00    +0.000 NA
ATOM     16  C   UNL     1      -2.220  12.179  20.367  0.00  0.00    +0.000 C 
ATOM     17  C   UNL     1      -2.114  13.671  20.667  0.00  0.00    +0.000 C 
ENDBRANCH   1  13
BRANCH   2  18
ATOM     18  C   UNL     1       3.618   6.011  18.094  0.00  0.00    +0.000 A 
ATOM     19  C   UNL     1       3.058   4.866  17.535  0.00  0.00    +0.000 A 
ATOM     20  C   UNL     1       3.844   3.977  16.822  0.00  0.00    +0.000 A 
ATOM     21  C   UNL     1       5.207   4.225  16.588  0.00  0.00    +0.000 A 
ATOM     22  C   UNL     1       5.788   5.345  17.222  0.00  0.00    +0.000 A 
ATOM     23  C   UNL     1       4.987   6.243  17.969  0.00  0.00    +0.000 A 
BRANCH  22  24
ATOM     24  N   UNL     1       7.233   5.629  17.170  0.00  0.00    +0.000 N 
ATOM     25  O   UNL     1       7.633   6.629  16.576  0.00  0.00    +0.000 OA
ATOM     26  O   UNL     1       7.984   4.808  17.727  0.00  0.00    +0.000 OA
ENDBRANCH  22  24
BRANCH  21  27
ATOM     27  O   UNL     1       5.926   3.404  15.744  0.00  0.00    +0.000 OA
BRANCH  27  28
ATOM     28  C   UNL     1       6.362   4.051  14.535  0.00  0.00    +0.000 C 
BRANCH  28  29
ATOM     29  C   UNL     1       5.496   3.725  13.330  0.00  0.00    +0.000 C 
BRANCH  29  30
ATOM     30  C   UNL     1       6.333   3.309  12.135  0.00  0.00    +0.000 C 
ATOM     31 CL   UNL     1       5.656   1.832  11.408  0.00  0.00    +0.000 Cl
ENDBRANCH  29  30
ENDBRANCH  28  29
ENDBRANCH  27  28
ENDBRANCH  21  27
ENDBRANCH   2  18
TORSDOF 7
ENDMDL
MODEL 7
REMARK VINA RESULT:      -8.2      1.893      2.523
REMARK  Name = 
REMARK  8 active torsions:
REMARK  status: ('A' for Active; 'I' for Inactive)
REMARK    1  A    between atoms: C_1  and  C_2
REMARK    2  A    between atoms: C_9  and  N_10
REMARK    3  A    between atoms: C_11  and  C_13
REMARK    4  A    between atoms: C_16  and  O_17
REMARK    5  A    between atoms: O_17  and  C_18
REMARK    6  A    between atoms: C_18  and  C_19
REMARK    7  A    between atoms: C_19  and  C_20
REMARK    8  A    between atoms: C_22  and  N_23
REMARK                            x       y       z     vdW  Elec       q    Type
REMARK                         _______ _______ _______ _____ _____    ______ ____
ROOT
ATOM      1  N   UNL     1       1.542   8.406  19.572  0.00  0.00    +0.000 N 
ATOM      2  C   UNL     1       2.176   8.402  18.345  0.00  0.00    +0.000 C 
ATOM      3  O   UNL     1       2.125   9.294  17.496  0.00  0.00    +0.000 OA
ATOM      4  H   UNL     1       1.600   7.589  20.165  0.00  0.00    +0.000 HD
ENDROOT
BRANCH   1  13
ATOM      5  C   UNL     1      -4.276  14.278  24.073  0.00  0.00    +0.000 C 
ATOM      6  C   UNL     1      -3.385  14.205  22.834  0.00  0.00    +0.000 C 
ATOM      7  C   UNL     1      -3.872  13.106  21.868  0.00  0.00    +0.000 C 
ATOM      8  C   UNL     1      -2.926  12.933  20.670  0.00  0.00    +0.000 C 
ATOM      9  N   UNL     1      -1.583  12.736  21.188  0.00  0.00    +0.000 N 
ATOM     10  C   UNL     1      -0.833  11.646  20.806  0.00  0.00    +0.000 A 
ATOM     11  C   UNL     1       0.121  11.126  21.671  0.00  0.00    +0.000 A 
ATOM     12  C   UNL     1       0.904  10.041  21.294  0.00  0.00    +0.000 A 
ATOM     13  C   UNL     1       0.745   9.476  20.039  0.00  0.00    +0.000 A 
ATOM     14  C   UNL     1      -0.259  10.016  19.245  0.00  0.00    +0.000 A 
ATOM     15  N   UNL     1      -1.045  11.066  19.603  0.00  0.00    +0.000 NA
ATOM     16  C   UNL     1      -1.038  13.806  22.012  0.00  0.00    +0.000 C 
ATOM     17  C   UNL     1      -1.925  13.969  23.243  0.00  0.00    +0.000 C 
ENDBRANCH   1  13
BRANCH   2  18
ATOM     18  C   UNL     1       2.989   7.226  17.989  0.00  0.00    +0.000 A 
ATOM     19  C   UNL     1       4.209   7.484  17.370  0.00  0.00    +0.000 A 
ATOM     20  C   UNL     1       5.015   6.441  16.947  0.00  0.00    +0.000 A 
ATOM     21  C   UNL     1       4.665   5.100  17.179  0.00  0.00    +0.000 A 
ATOM     22  C   UNL     1       3.394   4.842  17.735  0.00  0.00    +0.000 A 
ATOM     23  C   UNL     1       2.560   5.909  18.149  0.00  0.00    +0.000 A 
BRANCH  22  24
ATOM     24  N   UNL     1       2.856   3.479  17.894  0.00  0.00    +0.000 N 
ATOM     25  O   UNL     1       2.154   2.997  17.007  0.00  0.00    +0.000 OA
ATOM     26  O   UNL     1       3.136   2.888  18.952  0.00  0.00    +0.000 OA
ENDBRANCH  22  24
BRANCH  21  27
ATOM     27  O   UNL     1       5.559   4.090  16.889  0.00  0.00    +0.000 OA
BRANCH  27  28
ATOM     28  C   UNL     1       6.340   4.327  15.704  0.00  0.00    +0.000 C 
BRANCH  28  29
ATOM     29  C   UNL     1       5.544   4.186  14.418  0.00  0.00    +0.000 C 
BRANCH  29  30
ATOM     30  C   UNL     1       6.451   3.981  13.218  0.00  0.00    +0.000 C 
ATOM     31 CL   UNL     1       5.658   2.909  12.039  0.00  0.00    +0.000 Cl
ENDBRANCH  29  30
ENDBRANCH  28  29
ENDBRANCH  27  28
ENDBRANCH  21  27
ENDBRANCH   2  18
TORSDOF 7
ENDMDL
MODEL 8
REMARK VINA RESULT:      -8.2      2.073      3.003
REMARK  Name = 
REMARK  8 active torsions:
REMARK  status: ('A' for Active; 'I' for Inactive)
REMARK    1  A    between atoms: C_1  and  C_2
REMARK    2  A    between atoms: C_9  and  N_10
REMARK    3  A    between atoms: C_11  and  C_13
REMARK    4  A    between atoms: C_16  and  O_17
REMARK    5  A    between atoms: O_17  and  C_18
REMARK    6  A    between atoms: C_18  and  C_19
REMARK    7  A    between atoms: C_19  and  C_20
REMARK    8  A    between atoms: C_22  and  N_23
REMARK                            x       y       z     vdW  Elec       q    Type
REMARK                         _______ _______ _______ _____ _____    ______ ____
ROOT
ATOM      1  N   UNL     1       1.431   8.508  19.588  0.00  0.00    +0.000 N 
ATOM      2  C   UNL     1       2.112   8.571  18.388  0.00  0.00    +0.000 C 
ATOM      3  O   UNL     1       2.143   9.533  17.617  0.00  0.00    +0.000 OA
ATOM      4  H   UNL     1       1.423   7.642  20.110  0.00  0.00    +0.000 HD
ENDROOT
BRANCH   1  13
ATOM      5  C   UNL     1      -2.999  16.583  21.528  0.00  0.00    +0.000 C 
ATOM      6  C   UNL     1      -2.752  15.192  22.110  0.00  0.00    +0.000 C 
ATOM      7  C   UNL     1      -1.252  14.964  22.380  0.00  0.00    +0.000 C 
ATOM      8  C   UNL     1      -0.964  13.533  22.856  0.00  0.00    +0.000 C 
ATOM      9  N   UNL     1      -1.555  12.617  21.896  0.00  0.00    +0.000 N 
ATOM     10  C   UNL     1      -0.801  11.625  21.309  0.00  0.00    +0.000 A 
ATOM     11  C   UNL     1      -1.127  11.168  20.039  0.00  0.00    +0.000 A 
ATOM     12  C   UNL     1      -0.391  10.153  19.441  0.00  0.00    +0.000 A 
ATOM     13  C   UNL     1       0.673   9.579  20.116  0.00  0.00    +0.000 A 
ATOM     14  C   UNL     1       0.973  10.117  21.361  0.00  0.00    +0.000 A 
ATOM     15  N   UNL     1       0.274  11.121  21.956  0.00  0.00    +0.000 NA
ATOM     16  C   UNL     1      -2.994  12.720  21.697  0.00  0.00    +0.000 C 
ATOM     17  C   UNL     1      -3.311  14.116  21.169  0.00  0.00    +0.000 C 
ENDBRANCH   1  13
BRANCH   2  18
ATOM     18  C   UNL     1       2.877   7.386  17.963  0.00  0.00    +0.000 A 
ATOM     19  C   UNL     1       4.028   7.628  17.219  0.00  0.00    +0.000 A 
ATOM     20  C   UNL     1       4.780   6.575  16.725  0.00  0.00    +0.000 A 
ATOM     21  C   UNL     1       4.446   5.240  17.006  0.00  0.00    +0.000 A 
ATOM     22  C   UNL     1       3.237   4.996  17.692  0.00  0.00    +0.000 A 
ATOM     23  C   UNL     1       2.457   6.074  18.179  0.00  0.00    +0.000 A 
BRANCH  22  24
ATOM     24  N   UNL     1       2.709   3.639  17.919  0.00  0.00    +0.000 N 
ATOM     25  O   UNL     1       2.128   3.054  17.006  0.00  0.00    +0.000 OA
ATOM     26  O   UNL     1       2.869   3.161  19.056  0.00  0.00    +0.000 OA
ENDBRANCH  22  24
BRANCH  21  27
ATOM     27  O   UNL     1       5.298   4.220  16.635  0.00  0.00    +0.000 OA
BRANCH  27  28
ATOM     28  C   UNL     1       6.640   4.656  16.354  0.00  0.00    +0.000 C 
BRANCH  28  29
ATOM     29  C   UNL     1       7.013   4.553  14.885  0.00  0.00    +0.000 C 
BRANCH  29  30
ATOM     30  C   UNL     1       5.865   4.009  14.054  0.00  0.00    +0.000 C 
ATOM     31 CL   UNL     1       6.452   3.558  12.435  0.00  0.00    +0.000 Cl
ENDBRANCH  29  30
ENDBRANCH  28  29
ENDBRANCH  27  28
ENDBRANCH  21  27
ENDBRANCH   2  18
TORSDOF 7
ENDMDL
MODEL 9
REMARK VINA RESULT:      -8.2      2.681      3.701
REMARK  Name = 
REMARK  8 active torsions:
REMARK  status: ('A' for Active; 'I' for Inactive)
REMARK    1  A    between atoms: C_1  and  C_2
REMARK    2  A    between atoms: C_9  and  N_10
REMARK    3  A    between atoms: C_11  and  C_13
REMARK    4  A    between atoms: C_16  and  O_17
REMARK    5  A    between atoms: O_17  and  C_18
REMARK    6  A    between atoms: C_18  and  C_19
REMARK    7  A    between atoms: C_19  and  C_20
REMARK    8  A    between atoms: C_22  and  N_23
REMARK                            x       y       z     vdW  Elec       q    Type
REMARK                         _______ _______ _______ _____ _____    ______ ____
ROOT
ATOM      1  N   UNL     1       1.369   8.765  19.547  0.00  0.00    +0.000 N 
ATOM      2  C   UNL     1       1.988   8.750  18.312  0.00  0.00    +0.000 C 
ATOM      3  O   UNL     1       1.927   9.634  17.455  0.00  0.00    +0.000 OA
ATOM      4  H   UNL     1       1.435   7.954  20.146  0.00  0.00    +0.000 HD
ENDROOT
BRANCH   1  13
ATOM      5  C   UNL     1      -3.607  16.643  20.876  0.00  0.00    +0.000 C 
ATOM      6  C   UNL     1      -3.137  15.394  21.620  0.00  0.00    +0.000 C 
ATOM      7  C   UNL     1      -1.598  15.342  21.694  0.00  0.00    +0.000 C 
ATOM      8  C   UNL     1      -1.096  14.039  22.334  0.00  0.00    +0.000 C 
ATOM      9  N   UNL     1      -1.708  12.930  21.623  0.00  0.00    +0.000 N 
ATOM     10  C   UNL     1      -0.936  11.923  21.088  0.00  0.00    +0.000 A 
ATOM     11  C   UNL     1      -1.378  11.235  19.965  0.00  0.00    +0.000 A 
ATOM     12  C   UNL     1      -0.623  10.201  19.425  0.00  0.00    +0.000 A 
ATOM     13  C   UNL     1       0.577   9.840  20.013  0.00  0.00    +0.000 A 
ATOM     14  C   UNL     1       0.981  10.601  21.103  0.00  0.00    +0.000 A 
ATOM     15  N   UNL     1       0.264  11.626  21.636  0.00  0.00    +0.000 NA
ATOM     16  C   UNL     1      -3.163  12.875  21.628  0.00  0.00    +0.000 C 
ATOM     17  C   UNL     1      -3.697  14.132  20.948  0.00  0.00    +0.000 C 
ENDBRANCH   1  13
BRANCH   2  18
ATOM     18  C   UNL     1       2.798   7.571  17.958  0.00  0.00    +0.000 A 
ATOM     19  C   UNL     1       3.960   7.816  17.232  0.00  0.00    +0.000 A 
ATOM     20  C   UNL     1       4.755   6.766  16.804  0.00  0.00    +0.000 A 
ATOM     21  C   UNL     1       4.453   5.434  17.135  0.00  0.00    +0.000 A 
ATOM     22  C   UNL     1       3.235   5.184  17.802  0.00  0.00    +0.000 A 
ATOM     23  C   UNL     1       2.411   6.258  18.221  0.00  0.00    +0.000 A 
BRANCH  22  24
ATOM     24  N   UNL     1       2.741   3.822  18.075  0.00  0.00    +0.000 N 
ATOM     25  O   UNL     1       2.962   3.307  19.170  0.00  0.00    +0.000 OA
ATOM     26  O   UNL     1       2.133   3.253  17.152  0.00  0.00    +0.000 OA
ENDBRANCH  22  24
BRANCH  21  27
ATOM     27  O   UNL     1       5.344   4.426  16.830  0.00  0.00    +0.000 OA
BRANCH  27  28
ATOM     28  C   UNL     1       6.683   4.889  16.579  0.00  0.00    +0.000 C 
BRANCH  28  29
ATOM     29  C   UNL     1       7.664   4.529  17.682  0.00  0.00    +0.000 C 
BRANCH  29  30
ATOM     30  C   UNL     1       7.673   5.573  18.784  0.00  0.00    +0.000 C 
ATOM     31 CL   UNL     1       7.895   7.192  18.079  0.00  0.00    +0.000 Cl
ENDBRANCH  29  30
ENDBRANCH  28  29
ENDBRANCH  27  28
ENDBRANCH  21  27
ENDBRANCH   2  18
TORSDOF 7
ENDMDL
