MODEL 1
REMARK VINA RESULT:      -8.5      0.000      0.000
REMARK  Name = 
REMARK  3 active torsions:
REMARK  status: ('A' for Active; 'I' for Inactive)
REMARK    1  A    between atoms: C_2  and  O_3
REMARK    2  A    between atoms: C_2  and  C_4
REMARK    3  A    between atoms: C_14  and  O_15
REMARK                            x       y       z     vdW  Elec       q    Type
REMARK                         _______ _______ _______ _____ _____    ______ ____
ROOT
ATOM      1  C   UNL     1       1.754   3.589  19.141  0.00  0.00    +0.000 A 
ATOM      2  C   UNL     1       1.270   4.334  20.232  0.00  0.00    +0.000 A 
ATOM      3  C   UNL     1       1.848   5.569  20.575  0.00  0.00    +0.000 A 
ATOM      4  C   UNL     1       2.930   6.070  19.850  0.00  0.00    +0.000 A 
ATOM      5  C   UNL     1       3.419   5.320  18.793  0.00  0.00    +0.000 A 
ATOM      6  C   UNL     1       2.843   4.087  18.434  0.00  0.00    +0.000 A 
ATOM      7  C   UNL     1       3.579   3.514  17.246  0.00  0.00    +0.000 C 
ATOM      8  C   UNL     1       4.608   4.583  17.024  0.00  0.00    +0.000 A 
ATOM      9  C   UNL     1       4.525   5.608  17.897  0.00  0.00    +0.000 A 
ATOM     10  N   UNL     1       5.341   6.717  17.928  0.00  0.00    +0.000 NA
ATOM     11  C   UNL     1       6.262   6.729  17.009  0.00  0.00    +0.000 A 
ATOM     12  C   UNL     1       6.452   5.696  16.020  0.00  0.00    +0.000 A 
ATOM     13  N   UNL     1       7.333   5.592  15.047  0.00  0.00    +0.000 NA
ATOM     14  C   UNL     1       7.028   4.399  14.436  0.00  0.00    +0.000 A 
ATOM     15  C   UNL     1       5.954   3.783  15.043  0.00  0.00    +0.000 A 
ATOM     16  N   UNL     1       5.592   4.621  16.059  0.00  0.00    +0.000 N 
ENDROOT
BRANCH   1  18
ATOM     17  O   UNL     1       0.015   2.193  18.322  0.00  0.00    +0.000 OA
ATOM     18  C   UNL     1       1.144   2.293  18.768  0.00  0.00    +0.000 C 
BRANCH  18  19
ATOM     19  O   UNL     1       1.944   1.233  19.012  0.00  0.00    +0.000 OA
ATOM     20  H   UNL     1       2.879   1.352  18.762  0.00  0.00    +0.000 HD
ENDBRANCH  18  19
ENDBRANCH   1  18
BRANCH  11  21
ATOM     21  O   UNL     1       7.122   7.760  16.942  0.00  0.00    +0.000 OA
ATOM     22  H   UNL     1       7.914   7.448  16.478  0.00  0.00    +0.000 HD
ENDBRANCH  11  21
TORSDOF 3
ENDMDL
MODEL 2
REMARK VINA RESULT:      -7.8      2.471      6.436
REMARK  Name = 
REMARK  3 active torsions:
REMARK  status: ('A' for Active; 'I' for Inactive)
REMARK    1  A    between atoms: C_2  and  O_3
REMARK    2  A    between atoms: C_2  and  C_4
REMARK    3  A    between atoms: C_14  and  O_15
REMARK                            x       y       z     vdW  Elec       q    Type
REMARK                         _______ _______ _______ _____ _____    ______ ____
ROOT
ATOM      1  C   UNL     1       6.956   5.425  17.669  0.00  0.00    +0.000 A 
ATOM      2  C   UNL     1       7.338   5.220  16.331  0.00  0.00    +0.000 A 
ATOM      3  C   UNL     1       6.543   4.451  15.463  0.00  0.00    +0.000 A 
ATOM      4  C   UNL     1       5.366   3.858  15.921  0.00  0.00    +0.000 A 
ATOM      5  C   UNL     1       5.007   4.042  17.246  0.00  0.00    +0.000 A 
ATOM      6  C   UNL     1       5.789   4.818  18.121  0.00  0.00    +0.000 A 
ATOM      7  C   UNL     1       5.142   4.844  19.486  0.00  0.00    +0.000 C 
ATOM      8  C   UNL     1       3.935   3.993  19.229  0.00  0.00    +0.000 A 
ATOM      9  C   UNL     1       3.851   3.534  17.964  0.00  0.00    +0.000 A 
ATOM     10  N   UNL     1       2.855   2.731  17.454  0.00  0.00    +0.000 NA
ATOM     11  C   UNL     1       1.931   2.414  18.313  0.00  0.00    +0.000 A 
ATOM     12  C   UNL     1       1.907   2.842  19.691  0.00  0.00    +0.000 A 
ATOM     13  N   UNL     1       1.038   2.598  20.651  0.00  0.00    +0.000 NA
ATOM     14  C   UNL     1       1.537   3.267  21.742  0.00  0.00    +0.000 A 
ATOM     15  C   UNL     1       2.711   3.924  21.437  0.00  0.00    +0.000 A 
ATOM     16  N   UNL     1       2.941   3.644  20.120  0.00  0.00    +0.000 N 
ENDROOT
BRANCH   1  18
ATOM     17  O   UNL     1       8.054   7.411  18.373  0.00  0.00    +0.000 OA
ATOM     18  C   UNL     1       7.782   6.243  18.585  0.00  0.00    +0.000 C 
BRANCH  18  19
ATOM     19  O   UNL     1       8.240   5.555  19.652  0.00  0.00    +0.000 OA
ATOM     20  H   UNL     1       9.001   4.970  19.475  0.00  0.00    +0.000 HD
ENDBRANCH  18  19
ENDBRANCH   1  18
BRANCH  11  21
ATOM     21  O   UNL     1       0.907   1.632  17.933  0.00  0.00    +0.000 OA
ATOM     22  H   UNL     1       0.368   2.141  17.308  0.00  0.00    +0.000 HD
ENDBRANCH  11  21
TORSDOF 3
ENDMDL
MODEL 3
REMARK VINA RESULT:      -7.6      3.241      5.520
REMARK  Name = 
REMARK  3 active torsions:
REMARK  status: ('A' for Active; 'I' for Inactive)
REMARK    1  A    between atoms: C_2  and  O_3
REMARK    2  A    between atoms: C_2  and  C_4
REMARK    3  A    between atoms: C_14  and  O_15
REMARK                            x       y       z     vdW  Elec       q    Type
REMARK                         _______ _______ _______ _____ _____    ______ ____
ROOT
ATOM      1  C   UNL     1       2.569   3.668  19.931  0.00  0.00    +0.000 A 
ATOM      2  C   UNL     1       3.183   3.006  18.852  0.00  0.00    +0.000 A 
ATOM      3  C   UNL     1       3.551   3.706  17.691  0.00  0.00    +0.000 A 
ATOM      4  C   UNL     1       3.296   5.073  17.577  0.00  0.00    +0.000 A 
ATOM      5  C   UNL     1       2.668   5.716  18.632  0.00  0.00    +0.000 A 
ATOM      6  C   UNL     1       2.303   5.027  19.804  0.00  0.00    +0.000 A 
ATOM      7  C   UNL     1       1.652   5.988  20.771  0.00  0.00    +0.000 C 
ATOM      8  C   UNL     1       1.714   7.257  19.974  0.00  0.00    +0.000 A 
ATOM      9  C   UNL     1       2.286   7.111  18.762  0.00  0.00    +0.000 A 
ATOM     10  N   UNL     1       2.470   8.103  17.824  0.00  0.00    +0.000 NA
ATOM     11  C   UNL     1       2.033   9.273  18.191  0.00  0.00    +0.000 A 
ATOM     12  C   UNL     1       1.406   9.557  19.459  0.00  0.00    +0.000 A 
ATOM     13  N   UNL     1       0.930  10.683  19.947  0.00  0.00    +0.000 NA
ATOM     14  C   UNL     1       0.457  10.343  21.192  0.00  0.00    +0.000 A 
ATOM     15  C   UNL     1       0.653   9.004  21.457  0.00  0.00    +0.000 A 
ATOM     16  N   UNL     1       1.261   8.507  20.339  0.00  0.00    +0.000 N 
ENDROOT
BRANCH   1  18
ATOM     17  O   UNL     1       3.002   2.503  21.956  0.00  0.00    +0.000 OA
ATOM     18  C   UNL     1       2.188   2.939  21.162  0.00  0.00    +0.000 C 
BRANCH  18  19
ATOM     19  O   UNL     1       0.855   2.766  21.291  0.00  0.00    +0.000 OA
ATOM     20  H   UNL     1       0.585   1.966  21.780  0.00  0.00    +0.000 HD
ENDBRANCH  18  19
ENDBRANCH   1  18
BRANCH  11  21
ATOM     21  O   UNL     1       2.154  10.321  17.358  0.00  0.00    +0.000 OA
ATOM     22  H   UNL     1       1.448  10.250  16.697  0.00  0.00    +0.000 HD
ENDBRANCH  11  21
TORSDOF 3
ENDMDL
MODEL 4
REMARK VINA RESULT:      -7.5      3.276      6.023
REMARK  Name = 
REMARK  3 active torsions:
REMARK  status: ('A' for Active; 'I' for Inactive)
REMARK    1  A    between atoms: C_2  and  O_3
REMARK    2  A    between atoms: C_2  and  C_4
REMARK    3  A    between atoms: C_14  and  O_15
REMARK                            x       y       z     vdW  Elec       q    Type
REMARK                         _______ _______ _______ _____ _____    ______ ____
ROOT
ATOM      1  C   UNL     1       6.230   3.761  12.417  0.00  0.00    +0.000 A 
ATOM      2  C   UNL     1       7.167   4.452  11.627  0.00  0.00    +0.000 A 
ATOM      3  C   UNL     1       8.074   5.355  12.208  0.00  0.00    +0.000 A 
ATOM      4  C   UNL     1       8.049   5.599  13.582  0.00  0.00    +0.000 A 
ATOM      5  C   UNL     1       7.108   4.935  14.351  0.00  0.00    +0.000 A 
ATOM      6  C   UNL     1       6.201   4.021  13.783  0.00  0.00    +0.000 A 
ATOM      7  C   UNL     1       5.313   3.452  14.864  0.00  0.00    +0.000 C 
ATOM      8  C   UNL     1       5.853   4.172  16.064  0.00  0.00    +0.000 A 
ATOM      9  C   UNL     1       6.868   5.014  15.782  0.00  0.00    +0.000 A 
ATOM     10  N   UNL     1       7.547   5.802  16.685  0.00  0.00    +0.000 NA
ATOM     11  C   UNL     1       7.131   5.686  17.913  0.00  0.00    +0.000 A 
ATOM     12  C   UNL     1       6.059   4.821  18.341  0.00  0.00    +0.000 A 
ATOM     13  N   UNL     1       5.551   4.612  19.538  0.00  0.00    +0.000 NA
ATOM     14  C   UNL     1       4.555   3.688  19.330  0.00  0.00    +0.000 A 
ATOM     15  C   UNL     1       4.466   3.334  18.000  0.00  0.00    +0.000 A 
ATOM     16  N   UNL     1       5.433   4.067  17.373  0.00  0.00    +0.000 N 
ENDROOT
BRANCH   1  18
ATOM     17  O   UNL     1       4.136   3.094  11.516  0.00  0.00    +0.000 OA
ATOM     18  C   UNL     1       5.279   2.800  11.813  0.00  0.00    +0.000 C 
BRANCH  18  19
ATOM     19  O   UNL     1       5.791   1.560  11.666  0.00  0.00    +0.000 OA
ATOM     20  H   UNL     1       6.765   1.507  11.680  0.00  0.00    +0.000 HD
ENDBRANCH  18  19
ENDBRANCH   1  18
BRANCH  11  21
ATOM     21  O   UNL     1       7.715   6.408  18.885  0.00  0.00    +0.000 OA
ATOM     22  H   UNL     1       7.142   6.360  19.666  0.00  0.00    +0.000 HD
ENDBRANCH  11  21
TORSDOF 3
ENDMDL
MODEL 5
REMARK VINA RESULT:      -7.5      2.023      3.147
REMARK  Name = 
REMARK  3 active torsions:
REMARK  status: ('A' for Active; 'I' for Inactive)
REMARK    1  A    between atoms: C_2  and  O_3
REMARK    2  A    between atoms: C_2  and  C_4
REMARK    3  A    between atoms: C_14  and  O_15
REMARK                            x       y       z     vdW  Elec       q    Type
REMARK                         _______ _______ _______ _____ _____    ______ ____
ROOT
ATOM      1  C   UNL     1       2.347   3.396  20.058  0.00  0.00    +0.000 A 
ATOM      2  C   UNL     1       1.498   2.372  19.598  0.00  0.00    +0.000 A 
ATOM      3  C   UNL     1       1.659   1.824  18.314  0.00  0.00    +0.000 A 
ATOM      4  C   UNL     1       2.655   2.300  17.460  0.00  0.00    +0.000 A 
ATOM      5  C   UNL     1       3.471   3.326  17.908  0.00  0.00    +0.000 A 
ATOM      6  C   UNL     1       3.326   3.876  19.196  0.00  0.00    +0.000 A 
ATOM      7  C   UNL     1       4.358   4.961  19.400  0.00  0.00    +0.000 C 
ATOM      8  C   UNL     1       5.059   4.919  18.075  0.00  0.00    +0.000 A 
ATOM      9  C   UNL     1       4.562   3.998  17.224  0.00  0.00    +0.000 A 
ATOM     10  N   UNL     1       5.008   3.747  15.946  0.00  0.00    +0.000 NA
ATOM     11  C   UNL     1       6.004   4.495  15.570  0.00  0.00    +0.000 A 
ATOM     12  C   UNL     1       6.623   5.512  16.386  0.00  0.00    +0.000 A 
ATOM     13  N   UNL     1       7.626   6.325  16.129  0.00  0.00    +0.000 NA
ATOM     14  C   UNL     1       7.768   7.067  17.277  0.00  0.00    +0.000 A 
ATOM     15  C   UNL     1       6.847   6.695  18.233  0.00  0.00    +0.000 A 
ATOM     16  N   UNL     1       6.115   5.698  17.653  0.00  0.00    +0.000 N 
ENDROOT
BRANCH   1  18
ATOM     17  O   UNL     1       2.162   3.292  22.424  0.00  0.00    +0.000 OA
ATOM     18  C   UNL     1       2.189   3.970  21.413  0.00  0.00    +0.000 C 
BRANCH  18  19
ATOM     19  O   UNL     1       2.034   5.311  21.412  0.00  0.00    +0.000 OA
ATOM     20  H   UNL     1       2.754   5.813  21.839  0.00  0.00    +0.000 HD
ENDBRANCH  18  19
ENDBRANCH   1  18
BRANCH  11  21
ATOM     21  O   UNL     1       6.524   4.344  14.340  0.00  0.00    +0.000 OA
ATOM     22  H   UNL     1       5.911   3.792  13.831  0.00  0.00    +0.000 HD
ENDBRANCH  11  21
TORSDOF 3
ENDMDL
MODEL 6
REMARK VINA RESULT:      -7.5      3.037      5.389
REMARK  Name = 
REMARK  3 active torsions:
REMARK  status: ('A' for Active; 'I' for Inactive)
REMARK    1  A    between atoms: C_2  and  O_3
REMARK    2  A    between atoms: C_2  and  C_4
REMARK    3  A    between atoms: C_14  and  O_15
REMARK                            x       y       z     vdW  Elec       q    Type
REMARK                         _______ _______ _______ _____ _____    ______ ____
ROOT
ATOM      1  C   UNL     1       4.150   3.862  18.548  0.00  0.00    +0.000 A 
ATOM      2  C   UNL     1       4.871   3.624  17.363  0.00  0.00    +0.000 A 
ATOM      3  C   UNL     1       5.001   4.625  16.384  0.00  0.00    +0.000 A 
ATOM      4  C   UNL     1       4.397   5.870  16.561  0.00  0.00    +0.000 A 
ATOM      5  C   UNL     1       3.667   6.091  17.717  0.00  0.00    +0.000 A 
ATOM      6  C   UNL     1       3.539   5.101  18.709  0.00  0.00    +0.000 A 
ATOM      7  C   UNL     1       2.701   5.633  19.848  0.00  0.00    +0.000 C 
ATOM      8  C   UNL     1       2.402   7.013  19.341  0.00  0.00    +0.000 A 
ATOM      9  C   UNL     1       2.944   7.279  18.135  0.00  0.00    +0.000 A 
ATOM     10  N   UNL     1       2.829   8.459  17.434  0.00  0.00    +0.000 NA
ATOM     11  C   UNL     1       2.121   9.371  18.034  0.00  0.00    +0.000 A 
ATOM     12  C   UNL     1       1.492   9.209  19.323  0.00  0.00    +0.000 A 
ATOM     13  N   UNL     1       0.761  10.043  20.032  0.00  0.00    +0.000 NA
ATOM     14  C   UNL     1       0.441   9.338  21.167  0.00  0.00    +0.000 A 
ATOM     15  C   UNL     1       0.986   8.072  21.144  0.00  0.00    +0.000 A 
ATOM     16  N   UNL     1       1.657   7.997  19.956  0.00  0.00    +0.000 N 
ENDROOT
BRANCH   1  18
ATOM     17  O   UNL     1       2.945   2.453  20.033  0.00  0.00    +0.000 OA
ATOM     18  C   UNL     1       4.019   2.817  19.588  0.00  0.00    +0.000 C 
BRANCH  18  19
ATOM     19  O   UNL     1       5.205   2.342  20.024  0.00  0.00    +0.000 OA
ATOM     20  H   UNL     1       5.221   1.389  20.230  0.00  0.00    +0.000 HD
ENDBRANCH  18  19
ENDBRANCH   1  18
BRANCH  11  21
ATOM     21  O   UNL     1       1.935  10.565  17.446  0.00  0.00    +0.000 OA
ATOM     22  H   UNL     1       2.408  10.549  16.600  0.00  0.00    +0.000 HD
ENDBRANCH  11  21
TORSDOF 3
ENDMDL
MODEL 7
REMARK VINA RESULT:      -7.4      3.146      4.583
REMARK  Name = 
REMARK  3 active torsions:
REMARK  status: ('A' for Active; 'I' for Inactive)
REMARK    1  A    between atoms: C_2  and  O_3
REMARK    2  A    between atoms: C_2  and  C_4
REMARK    3  A    between atoms: C_14  and  O_15
REMARK                            x       y       z     vdW  Elec       q    Type
REMARK                         _______ _______ _______ _____ _____    ______ ____
ROOT
ATOM      1  C   UNL     1       1.418   9.082  19.198  0.00  0.00    +0.000 A 
ATOM      2  C   UNL     1       0.742   8.964  20.427  0.00  0.00    +0.000 A 
ATOM      3  C   UNL     1       0.949   7.851  21.261  0.00  0.00    +0.000 A 
ATOM      4  C   UNL     1       1.816   6.829  20.875  0.00  0.00    +0.000 A 
ATOM      5  C   UNL     1       2.460   6.937  19.652  0.00  0.00    +0.000 A 
ATOM      6  C   UNL     1       2.268   8.051  18.814  0.00  0.00    +0.000 A 
ATOM      7  C   UNL     1       3.105   7.892  17.566  0.00  0.00    +0.000 C 
ATOM      8  C   UNL     1       3.754   6.569  17.843  0.00  0.00    +0.000 A 
ATOM      9  C   UNL     1       3.393   6.021  19.021  0.00  0.00    +0.000 A 
ATOM     10  N   UNL     1       3.830   4.816  19.526  0.00  0.00    +0.000 NA
ATOM     11  C   UNL     1       4.668   4.186  18.756  0.00  0.00    +0.000 A 
ATOM     12  C   UNL     1       5.132   4.666  17.476  0.00  0.00    +0.000 A 
ATOM     13  N   UNL     1       5.971   4.133  16.613  0.00  0.00    +0.000 NA
ATOM     14  C   UNL     1       6.023   5.042  15.583  0.00  0.00    +0.000 A 
ATOM     15  C   UNL     1       5.215   6.131  15.830  0.00  0.00    +0.000 A 
ATOM     16  N   UNL     1       4.645   5.881  17.046  0.00  0.00    +0.000 N 
ENDROOT
BRANCH   1  18
ATOM     17  O   UNL     1       1.996  11.185  18.259  0.00  0.00    +0.000 OA
ATOM     18  C   UNL     1       1.213  10.256  18.320  0.00  0.00    +0.000 C 
BRANCH  18  19
ATOM     19  O   UNL     1       0.053  10.213  17.631  0.00  0.00    +0.000 OA
ATOM     20  H   UNL     1      -0.399  11.072  17.524  0.00  0.00    +0.000 HD
ENDBRANCH  18  19
ENDBRANCH   1  18
BRANCH  11  21
ATOM     21  O   UNL     1       5.162   2.997  19.140  0.00  0.00    +0.000 OA
ATOM     22  H   UNL     1       6.056   2.921  18.773  0.00  0.00    +0.000 HD
ENDBRANCH  11  21
TORSDOF 3
ENDMDL
MODEL 8
REMARK VINA RESULT:      -7.2      3.700      5.198
REMARK  Name = 
REMARK  3 active torsions:
REMARK  status: ('A' for Active; 'I' for Inactive)
REMARK    1  A    between atoms: C_2  and  O_3
REMARK    2  A    between atoms: C_2  and  C_4
REMARK    3  A    between atoms: C_14  and  O_15
REMARK                            x       y       z     vdW  Elec       q    Type
REMARK                         _______ _______ _______ _____ _____    ______ ____
ROOT
ATOM      1  C   UNL     1       1.086   8.896  20.355  0.00  0.00    +0.000 A 
ATOM      2  C   UNL     1       1.084  10.003  19.487  0.00  0.00    +0.000 A 
ATOM      3  C   UNL     1       1.682   9.926  18.217  0.00  0.00    +0.000 A 
ATOM      4  C   UNL     1       2.310   8.751  17.801  0.00  0.00    +0.000 A 
ATOM      5  C   UNL     1       2.332   7.672  18.670  0.00  0.00    +0.000 A 
ATOM      6  C   UNL     1       1.728   7.735  19.939  0.00  0.00    +0.000 A 
ATOM      7  C   UNL     1       1.904   6.412  20.647  0.00  0.00    +0.000 C 
ATOM      8  C   UNL     1       2.670   5.649  19.608  0.00  0.00    +0.000 A 
ATOM      9  C   UNL     1       2.918   6.356  18.486  0.00  0.00    +0.000 A 
ATOM     10  N   UNL     1       3.601   5.909  17.377  0.00  0.00    +0.000 NA
ATOM     11  C   UNL     1       4.028   4.683  17.470  0.00  0.00    +0.000 A 
ATOM     12  C   UNL     1       3.826   3.826  18.613  0.00  0.00    +0.000 A 
ATOM     13  N   UNL     1       4.199   2.581  18.828  0.00  0.00    +0.000 NA
ATOM     14  C   UNL     1       3.727   2.296  20.087  0.00  0.00    +0.000 A 
ATOM     15  C   UNL     1       3.062   3.374  20.632  0.00  0.00    +0.000 A 
ATOM     16  N   UNL     1       3.132   4.352  19.680  0.00  0.00    +0.000 N 
ENDROOT
BRANCH   1  18
ATOM     17  O   UNL     1      -0.656   8.515  21.924  0.00  0.00    +0.000 OA
ATOM     18  C   UNL     1       0.449   8.968  21.690  0.00  0.00    +0.000 C 
BRANCH  18  19
ATOM     19  O   UNL     1       1.194   9.623  22.605  0.00  0.00    +0.000 OA
ATOM     20  H   UNL     1       1.887   9.088  23.037  0.00  0.00    +0.000 HD
ENDBRANCH  18  19
ENDBRANCH   1  18
BRANCH  11  21
ATOM     21  O   UNL     1       4.711   4.136  16.450  0.00  0.00    +0.000 OA
ATOM     22  H   UNL     1       5.589   3.893  16.786  0.00  0.00    +0.000 HD
ENDBRANCH  11  21
TORSDOF 3
ENDMDL
MODEL 9
REMARK VINA RESULT:      -7.2      2.151      2.912
REMARK  Name = 
REMARK  3 active torsions:
REMARK  status: ('A' for Active; 'I' for Inactive)
REMARK    1  A    between atoms: C_2  and  O_3
REMARK    2  A    between atoms: C_2  and  C_4
REMARK    3  A    between atoms: C_14  and  O_15
REMARK                            x       y       z     vdW  Elec       q    Type
REMARK                         _______ _______ _______ _____ _____    ______ ____
ROOT
ATOM      1  C   UNL     1       2.063   3.035  20.283  0.00  0.00    +0.000 A 
ATOM      2  C   UNL     1       0.838   2.803  19.631  0.00  0.00    +0.000 A 
ATOM      3  C   UNL     1       0.611   3.281  18.329  0.00  0.00    +0.000 A 
ATOM      4  C   UNL     1       1.592   4.016  17.664  0.00  0.00    +0.000 A 
ATOM      5  C   UNL     1       2.787   4.265  18.320  0.00  0.00    +0.000 A 
ATOM      6  C   UNL     1       3.030   3.782  19.619  0.00  0.00    +0.000 A 
ATOM      7  C   UNL     1       4.413   4.200  20.062  0.00  0.00    +0.000 C 
ATOM      8  C   UNL     1       4.867   4.958  18.850  0.00  0.00    +0.000 A 
ATOM      9  C   UNL     1       3.952   5.000  17.860  0.00  0.00    +0.000 A 
ATOM     10  N   UNL     1       4.100   5.627  16.643  0.00  0.00    +0.000 NA
ATOM     11  C   UNL     1       5.247   6.220  16.482  0.00  0.00    +0.000 A 
ATOM     12  C   UNL     1       6.305   6.245  17.463  0.00  0.00    +0.000 A 
ATOM     13  N   UNL     1       7.499   6.798  17.422  0.00  0.00    +0.000 NA
ATOM     14  C   UNL     1       8.059   6.492  18.639  0.00  0.00    +0.000 A 
ATOM     15  C   UNL     1       7.199   5.745  19.416  0.00  0.00    +0.000 A 
ATOM     16  N   UNL     1       6.076   5.592  18.654  0.00  0.00    +0.000 N 
ENDROOT
BRANCH   1  18
ATOM     17  O   UNL     1       3.375   2.041  21.995  0.00  0.00    +0.000 OA
ATOM     18  C   UNL     1       2.313   2.525  21.650  0.00  0.00    +0.000 C 
BRANCH  18  19
ATOM     19  O   UNL     1       1.235   2.609  22.459  0.00  0.00    +0.000 OA
ATOM     20  H   UNL     1       1.231   1.989  23.212  0.00  0.00    +0.000 HD
ENDBRANCH  18  19
ENDBRANCH   1  18
BRANCH  11  21
ATOM     21  O   UNL     1       5.507   6.869  15.335  0.00  0.00    +0.000 OA
ATOM     22  H   UNL     1       6.471   6.931  15.246  0.00  0.00    +0.000 HD
ENDBRANCH  11  21
TORSDOF 3
ENDMDL
