MODEL 1
REMARK VINA RESULT:      -8.3      0.000      0.000
REMARK  Name = 
REMARK  9 active torsions:
REMARK  status: ('A' for Active; 'I' for Inactive)
REMARK    1  A    between atoms: C_1  and  O_2
REMARK    2  A    between atoms: O_2  and  C_3
REMARK    3  A    between atoms: C_5  and  C_6
REMARK    4  A    between atoms: C_6  and  N_7
REMARK    5  A    between atoms: C_17  and  O_18
REMARK    6  A    between atoms: C_21  and  O_22
REMARK    7  A    between atoms: O_22  and  C_23
REMARK    8  A    between atoms: C_24  and  O_25
REMARK    9  A    between atoms: O_25  and  C_26
REMARK                            x       y       z     vdW  Elec       q    Type
REMARK                         _______ _______ _______ _____ _____    ______ ____
ROOT
ATOM      1  N   UNL     1       3.816   3.404  18.152  0.00  0.00    +0.000 NA
ATOM      2  C   UNL     1       3.554   4.454  19.151  0.00  0.00    +0.000 C 
ATOM      3  C   UNL     1       3.466   3.627  20.468  0.00  0.00    +0.000 C 
ATOM      4  C   UNL     1       2.374   4.250  21.355  0.00  0.00    +0.000 C 
ATOM      5  C   UNL     1       1.614   3.064  21.958  0.00  0.00    +0.000 C 
ATOM      6  C   UNL     1       1.393   2.360  20.629  0.00  0.00    +0.000 C 
ATOM      7  C   UNL     1       0.690   3.459  19.817  0.00  0.00    +0.000 C 
ATOM      8  C   UNL     1       1.378   4.767  20.299  0.00  0.00    +0.000 C 
ATOM      9  C   UNL     1       2.093   4.873  18.947  0.00  0.00    +0.000 C 
ATOM     10  C   UNL     1       1.427   3.553  18.484  0.00  0.00    +0.000 C 
ATOM     11  C   UNL     1       2.629   2.590  18.502  0.00  0.00    +0.000 C 
ATOM     12  C   UNL     1       2.803   2.312  19.994  0.00  0.00    +0.000 C 
ENDROOT
BRANCH  11  13
ATOM     13  O   UNL     1       2.432   1.449  17.717  0.00  0.00    +0.000 OA
ATOM     14  H   UNL     1       1.477   1.344  17.583  0.00  0.00    +0.000 HD
ENDBRANCH  11  13
BRANCH   1  15
ATOM     15  C   UNL     1       3.686   3.798  16.731  0.00  0.00    +0.000 C 
BRANCH  15  18
ATOM     16  C   UNL     1       6.854   5.754  15.848  0.00  0.00    +0.000 A 
ATOM     17  C   UNL     1       5.679   5.428  16.538  0.00  0.00    +0.000 A 
ATOM     18  C   UNL     1       4.786   4.517  15.983  0.00  0.00    +0.000 A 
ATOM     19  C   UNL     1       5.023   4.055  14.667  0.00  0.00    +0.000 A 
ATOM     20  C   UNL     1       6.200   4.344  13.975  0.00  0.00    +0.000 A 
ATOM     21  C   UNL     1       7.167   5.115  14.620  0.00  0.00    +0.000 A 
BRANCH  16  23
ATOM     22  C   UNL     1       7.524   7.333  17.498  0.00  0.00    +0.000 C 
ATOM     23  O   UNL     1       7.787   6.669  16.275  0.00  0.00    +0.000 OA
ENDBRANCH  16  23
BRANCH  20  24
ATOM     24  O   UNL     1       6.268   3.686  12.775  0.00  0.00    +0.000 OA
ATOM     25  C   UNL     1       5.081   3.272  12.115  0.00  0.00    +0.000 C 
ENDBRANCH  20  24
BRANCH  21  26
ATOM     26  O   UNL     1       8.424   5.223  14.082  0.00  0.00    +0.000 OA
ATOM     27  C   UNL     1       8.407   5.878  12.808  0.00  0.00    +0.000 C 
ENDBRANCH  21  26
ENDBRANCH  15  18
ENDBRANCH   1  15
TORSDOF 6
ENDMDL
MODEL 2
REMARK VINA RESULT:      -8.1      0.896      1.395
REMARK  Name = 
REMARK  9 active torsions:
REMARK  status: ('A' for Active; 'I' for Inactive)
REMARK    1  A    between atoms: C_1  and  O_2
REMARK    2  A    between atoms: O_2  and  C_3
REMARK    3  A    between atoms: C_5  and  C_6
REMARK    4  A    between atoms: C_6  and  N_7
REMARK    5  A    between atoms: C_17  and  O_18
REMARK    6  A    between atoms: C_21  and  O_22
REMARK    7  A    between atoms: O_22  and  C_23
REMARK    8  A    between atoms: C_24  and  O_25
REMARK    9  A    between atoms: O_25  and  C_26
REMARK                            x       y       z     vdW  Elec       q    Type
REMARK                         _______ _______ _______ _____ _____    ______ ____
ROOT
ATOM      1  N   UNL     1       3.369   4.318  18.135  0.00  0.00    +0.000 NA
ATOM      2  C   UNL     1       1.920   4.264  18.395  0.00  0.00    +0.000 C 
ATOM      3  C   UNL     1       1.862   4.502  19.933  0.00  0.00    +0.000 C 
ATOM      4  C   UNL     1       0.738   3.626  20.514  0.00  0.00    +0.000 C 
ATOM      5  C   UNL     1       1.299   3.056  21.820  0.00  0.00    +0.000 C 
ATOM      6  C   UNL     1       2.593   2.556  21.199  0.00  0.00    +0.000 C 
ATOM      7  C   UNL     1       2.061   1.656  20.072  0.00  0.00    +0.000 C 
ATOM      8  C   UNL     1       0.790   2.402  19.580  0.00  0.00    +0.000 C 
ATOM      9  C   UNL     1       1.529   2.785  18.293  0.00  0.00    +0.000 C 
ATOM     10  C   UNL     1       2.803   2.065  18.803  0.00  0.00    +0.000 C 
ATOM     11  C   UNL     1       3.718   3.265  19.116  0.00  0.00    +0.000 C 
ATOM     12  C   UNL     1       3.138   3.783  20.432  0.00  0.00    +0.000 C 
ENDROOT
BRANCH  11  13
ATOM     13  O   UNL     1       5.073   2.923  19.173  0.00  0.00    +0.000 OA
ATOM     14  H   UNL     1       5.243   2.536  20.045  0.00  0.00    +0.000 HD
ENDBRANCH  11  13
BRANCH   1  15
ATOM     15  C   UNL     1       3.818   3.855  16.803  0.00  0.00    +0.000 C 
BRANCH  15  18
ATOM     16  C   UNL     1       6.902   5.884  15.798  0.00  0.00    +0.000 A 
ATOM     17  C   UNL     1       5.742   5.552  16.508  0.00  0.00    +0.000 A 
ATOM     18  C   UNL     1       4.887   4.574  16.011  0.00  0.00    +0.000 A 
ATOM     19  C   UNL     1       5.144   4.043  14.724  0.00  0.00    +0.000 A 
ATOM     20  C   UNL     1       6.308   4.339  14.013  0.00  0.00    +0.000 A 
ATOM     21  C   UNL     1       7.242   5.186  14.609  0.00  0.00    +0.000 A 
BRANCH  16  23
ATOM     22  C   UNL     1       7.638   7.425  17.456  0.00  0.00    +0.000 C 
ATOM     23  O   UNL     1       7.797   6.860  16.166  0.00  0.00    +0.000 OA
ENDBRANCH  16  23
BRANCH  20  24
ATOM     24  O   UNL     1       6.403   3.613  12.854  0.00  0.00    +0.000 OA
ATOM     25  C   UNL     1       5.233   3.250  12.137  0.00  0.00    +0.000 C 
ENDBRANCH  20  24
BRANCH  21  26
ATOM     26  O   UNL     1       8.494   5.314  14.062  0.00  0.00    +0.000 OA
ATOM     27  C   UNL     1       8.451   5.900  12.756  0.00  0.00    +0.000 C 
ENDBRANCH  21  26
ENDBRANCH  15  18
ENDBRANCH   1  15
TORSDOF 6
ENDMDL
MODEL 3
REMARK VINA RESULT:      -8.1      0.872      2.852
REMARK  Name = 
REMARK  9 active torsions:
REMARK  status: ('A' for Active; 'I' for Inactive)
REMARK    1  A    between atoms: C_1  and  O_2
REMARK    2  A    between atoms: O_2  and  C_3
REMARK    3  A    between atoms: C_5  and  C_6
REMARK    4  A    between atoms: C_6  and  N_7
REMARK    5  A    between atoms: C_17  and  O_18
REMARK    6  A    between atoms: C_21  and  O_22
REMARK    7  A    between atoms: O_22  and  C_23
REMARK    8  A    between atoms: C_24  and  O_25
REMARK    9  A    between atoms: O_25  and  C_26
REMARK                            x       y       z     vdW  Elec       q    Type
REMARK                         _______ _______ _______ _____ _____    ______ ____
ROOT
ATOM      1  N   UNL     1       3.116   3.408  17.606  0.00  0.00    +0.000 NA
ATOM      2  C   UNL     1       3.778   3.311  18.919  0.00  0.00    +0.000 C 
ATOM      3  C   UNL     1       2.826   2.347  19.687  0.00  0.00    +0.000 C 
ATOM      4  C   UNL     1       2.750   2.812  21.152  0.00  0.00    +0.000 C 
ATOM      5  C   UNL     1       1.276   2.672  21.547  0.00  0.00    +0.000 C 
ATOM      6  C   UNL     1       0.745   3.428  20.340  0.00  0.00    +0.000 C 
ATOM      7  C   UNL     1       1.503   4.759  20.457  0.00  0.00    +0.000 C 
ATOM      8  C   UNL     1       2.898   4.338  20.997  0.00  0.00    +0.000 C 
ATOM      9  C   UNL     1       3.509   4.645  19.625  0.00  0.00    +0.000 C 
ATOM     10  C   UNL     1       2.110   5.035  19.084  0.00  0.00    +0.000 C 
ATOM     11  C   UNL     1       1.810   3.846  18.150  0.00  0.00    +0.000 C 
ATOM     12  C   UNL     1       1.435   2.742  19.137  0.00  0.00    +0.000 C 
ENDROOT
BRANCH  11  13
ATOM     13  O   UNL     1       0.828   4.131  17.195  0.00  0.00    +0.000 OA
ATOM     14  H   UNL     1      -0.033   3.908  17.582  0.00  0.00    +0.000 HD
ENDBRANCH  11  13
BRANCH   1  15
ATOM     15  C   UNL     1       3.603   4.471  16.698  0.00  0.00    +0.000 C 
BRANCH  15  18
ATOM     16  C   UNL     1       6.362   4.035  14.083  0.00  0.00    +0.000 A 
ATOM     17  C   UNL     1       5.192   3.745  14.797  0.00  0.00    +0.000 A 
ATOM     18  C   UNL     1       4.943   4.393  16.002  0.00  0.00    +0.000 A 
ATOM     19  C   UNL     1       5.952   5.224  16.543  0.00  0.00    +0.000 A 
ATOM     20  C   UNL     1       7.112   5.549  15.836  0.00  0.00    +0.000 A 
ATOM     21  C   UNL     1       7.261   5.030  14.551  0.00  0.00    +0.000 A 
BRANCH  16  23
ATOM     22  C   UNL     1       5.697   2.941  12.077  0.00  0.00    +0.000 C 
ATOM     23  O   UNL     1       6.736   3.429  12.908  0.00  0.00    +0.000 OA
ENDBRANCH  16  23
BRANCH  20  24
ATOM     24  O   UNL     1       7.881   6.468  16.501  0.00  0.00    +0.000 OA
ATOM     25  C   UNL     1       7.498   6.927  17.789  0.00  0.00    +0.000 C 
ENDBRANCH  20  24
BRANCH  21  26
ATOM     26  O   UNL     1       8.254   5.507  13.733  0.00  0.00    +0.000 OA
ATOM     27  C   UNL     1       7.750   5.896  12.450  0.00  0.00    +0.000 C 
ENDBRANCH  21  26
ENDBRANCH  15  18
ENDBRANCH   1  15
TORSDOF 6
ENDMDL
MODEL 4
REMARK VINA RESULT:      -7.9      5.051      7.454
REMARK  Name = 
REMARK  9 active torsions:
REMARK  status: ('A' for Active; 'I' for Inactive)
REMARK    1  A    between atoms: C_1  and  O_2
REMARK    2  A    between atoms: O_2  and  C_3
REMARK    3  A    between atoms: C_5  and  C_6
REMARK    4  A    between atoms: C_6  and  N_7
REMARK    5  A    between atoms: C_17  and  O_18
REMARK    6  A    between atoms: C_21  and  O_22
REMARK    7  A    between atoms: O_22  and  C_23
REMARK    8  A    between atoms: C_24  and  O_25
REMARK    9  A    between atoms: O_25  and  C_26
REMARK                            x       y       z     vdW  Elec       q    Type
REMARK                         _______ _______ _______ _____ _____    ______ ____
ROOT
ATOM      1  N   UNL     1       1.829   5.931  19.155  0.00  0.00    +0.000 NA
ATOM      2  C   UNL     1       2.162   5.255  17.890  0.00  0.00    +0.000 C 
ATOM      3  C   UNL     1       1.641   3.811  18.151  0.00  0.00    +0.000 C 
ATOM      4  C   UNL     1       2.618   2.820  17.495  0.00  0.00    +0.000 C 
ATOM      5  C   UNL     1       2.769   1.672  18.498  0.00  0.00    +0.000 C 
ATOM      6  C   UNL     1       3.072   2.574  19.684  0.00  0.00    +0.000 C 
ATOM      7  C   UNL     1       4.277   3.371  19.160  0.00  0.00    +0.000 C 
ATOM      8  C   UNL     1       3.959   3.563  17.651  0.00  0.00    +0.000 C 
ATOM      9  C   UNL     1       3.681   5.048  17.911  0.00  0.00    +0.000 C 
ATOM     10  C   UNL     1       3.970   4.843  19.420  0.00  0.00    +0.000 C 
ATOM     11  C   UNL     1       2.554   4.968  20.014  0.00  0.00    +0.000 C 
ATOM     12  C   UNL     1       1.931   3.619  19.659  0.00  0.00    +0.000 C 
ENDROOT
BRANCH  11  13
ATOM     13  O   UNL     1       2.555   5.266  21.381  0.00  0.00    +0.000 OA
ATOM     14  H   UNL     1       3.234   4.716  21.802  0.00  0.00    +0.000 HD
ENDBRANCH  11  13
BRANCH   1  15
ATOM     15  C   UNL     1       2.432   7.266  19.369  0.00  0.00    +0.000 C 
BRANCH  15  18
ATOM     16  C   UNL     1       0.892   9.838  21.746  0.00  0.00    +0.000 A 
ATOM     17  C   UNL     1       1.291   8.581  21.277  0.00  0.00    +0.000 A 
ATOM     18  C   UNL     1       1.652   8.428  19.942  0.00  0.00    +0.000 A 
ATOM     19  C   UNL     1       1.467   9.521  19.063  0.00  0.00    +0.000 A 
ATOM     20  C   UNL     1       1.098  10.789  19.515  0.00  0.00    +0.000 A 
ATOM     21  C   UNL     1       0.913  10.967  20.886  0.00  0.00    +0.000 A 
BRANCH  16  23
ATOM     22  C   UNL     1      -0.914   9.982  23.290  0.00  0.00    +0.000 C 
ATOM     23  O   UNL     1       0.473  10.101  23.029  0.00  0.00    +0.000 OA
ENDBRANCH  16  23
BRANCH  20  24
ATOM     24  O   UNL     1       1.106  11.719  18.508  0.00  0.00    +0.000 OA
ATOM     25  C   UNL     1       2.301  12.413  18.181  0.00  0.00    +0.000 C 
ENDBRANCH  20  24
BRANCH  21  26
ATOM     26  O   UNL     1       0.788  12.234  21.399  0.00  0.00    +0.000 OA
ATOM     27  C   UNL     1      -0.495  12.803  21.112  0.00  0.00    +0.000 C 
ENDBRANCH  21  26
ENDBRANCH  15  18
ENDBRANCH   1  15
TORSDOF 6
ENDMDL
MODEL 5
REMARK VINA RESULT:      -7.9      0.865      2.843
REMARK  Name = 
REMARK  9 active torsions:
REMARK  status: ('A' for Active; 'I' for Inactive)
REMARK    1  A    between atoms: C_1  and  O_2
REMARK    2  A    between atoms: O_2  and  C_3
REMARK    3  A    between atoms: C_5  and  C_6
REMARK    4  A    between atoms: C_6  and  N_7
REMARK    5  A    between atoms: C_17  and  O_18
REMARK    6  A    between atoms: C_21  and  O_22
REMARK    7  A    between atoms: O_22  and  C_23
REMARK    8  A    between atoms: C_24  and  O_25
REMARK    9  A    between atoms: O_25  and  C_26
REMARK                            x       y       z     vdW  Elec       q    Type
REMARK                         _______ _______ _______ _____ _____    ______ ____
ROOT
ATOM      1  N   UNL     1       3.500   4.567  17.935  0.00  0.00    +0.000 NA
ATOM      2  C   UNL     1       2.134   4.872  18.395  0.00  0.00    +0.000 C 
ATOM      3  C   UNL     1       2.305   4.848  19.943  0.00  0.00    +0.000 C 
ATOM      4  C   UNL     1       1.037   4.230  20.558  0.00  0.00    +0.000 C 
ATOM      5  C   UNL     1       1.535   3.311  21.679  0.00  0.00    +0.000 C 
ATOM      6  C   UNL     1       2.553   2.587  20.812  0.00  0.00    +0.000 C 
ATOM      7  C   UNL     1       1.667   2.077  19.664  0.00  0.00    +0.000 C 
ATOM      8  C   UNL     1       0.629   3.218  19.469  0.00  0.00    +0.000 C 
ATOM      9  C   UNL     1       1.314   3.599  18.152  0.00  0.00    +0.000 C 
ATOM     10  C   UNL     1       2.363   2.479  18.367  0.00  0.00    +0.000 C 
ATOM     11  C   UNL     1       3.619   3.306  18.702  0.00  0.00    +0.000 C 
ATOM     12  C   UNL     1       3.355   3.729  20.146  0.00  0.00    +0.000 C 
ENDROOT
BRANCH  11  13
ATOM     13  O   UNL     1       4.811   2.599  18.512  0.00  0.00    +0.000 OA
ATOM     14  H   UNL     1       5.369   3.117  17.911  0.00  0.00    +0.000 HD
ENDBRANCH  11  13
BRANCH   1  15
ATOM     15  C   UNL     1       3.654   4.236  16.501  0.00  0.00    +0.000 C 
BRANCH  15  18
ATOM     16  C   UNL     1       6.426   4.048  13.870  0.00  0.00    +0.000 A 
ATOM     17  C   UNL     1       5.272   3.673  14.568  0.00  0.00    +0.000 A 
ATOM     18  C   UNL     1       4.995   4.252  15.802  0.00  0.00    +0.000 A 
ATOM     19  C   UNL     1       5.967   5.101  16.382  0.00  0.00    +0.000 A 
ATOM     20  C   UNL     1       7.109   5.510  15.692  0.00  0.00    +0.000 A 
ATOM     21  C   UNL     1       7.280   5.059  14.384  0.00  0.00    +0.000 A 
BRANCH  16  23
ATOM     22  C   UNL     1       5.863   2.767  11.945  0.00  0.00    +0.000 C 
ATOM     23  O   UNL     1       6.824   3.515  12.667  0.00  0.00    +0.000 OA
ENDBRANCH  16  23
BRANCH  20  24
ATOM     24  O   UNL     1       7.838   6.430  16.400  0.00  0.00    +0.000 OA
ATOM     25  C   UNL     1       7.271   7.079  17.528  0.00  0.00    +0.000 C 
ENDBRANCH  20  24
BRANCH  21  26
ATOM     26  O   UNL     1       8.249   5.618  13.590  0.00  0.00    +0.000 OA
ATOM     27  C   UNL     1       7.759   5.918  12.278  0.00  0.00    +0.000 C 
ENDBRANCH  21  26
ENDBRANCH  15  18
ENDBRANCH   1  15
TORSDOF 6
ENDMDL
MODEL 6
REMARK VINA RESULT:      -7.9      0.455      2.617
REMARK  Name = 
REMARK  9 active torsions:
REMARK  status: ('A' for Active; 'I' for Inactive)
REMARK    1  A    between atoms: C_1  and  O_2
REMARK    2  A    between atoms: O_2  and  C_3
REMARK    3  A    between atoms: C_5  and  C_6
REMARK    4  A    between atoms: C_6  and  N_7
REMARK    5  A    between atoms: C_17  and  O_18
REMARK    6  A    between atoms: C_21  and  O_22
REMARK    7  A    between atoms: O_22  and  C_23
REMARK    8  A    between atoms: C_24  and  O_25
REMARK    9  A    between atoms: O_25  and  C_26
REMARK                            x       y       z     vdW  Elec       q    Type
REMARK                         _______ _______ _______ _____ _____    ______ ____
ROOT
ATOM      1  N   UNL     1       3.817   3.379  18.125  0.00  0.00    +0.000 NA
ATOM      2  C   UNL     1       3.720   4.287  19.281  0.00  0.00    +0.000 C 
ATOM      3  C   UNL     1       3.466   3.290  20.450  0.00  0.00    +0.000 C 
ATOM      4  C   UNL     1       2.480   3.944  21.434  0.00  0.00    +0.000 C 
ATOM      5  C   UNL     1       1.516   2.828  21.847  0.00  0.00    +0.000 C 
ATOM      6  C   UNL     1       1.203   2.393  20.424  0.00  0.00    +0.000 C 
ATOM      7  C   UNL     1       0.715   3.712  19.804  0.00  0.00    +0.000 C 
ATOM      8  C   UNL     1       1.609   4.787  20.482  0.00  0.00    +0.000 C 
ATOM      9  C   UNL     1       2.359   4.981  19.159  0.00  0.00    +0.000 C 
ATOM     10  C   UNL     1       1.483   3.887  18.497  0.00  0.00    +0.000 C 
ATOM     11  C   UNL     1       2.501   2.739  18.351  0.00  0.00    +0.000 C 
ATOM     12  C   UNL     1       2.595   2.202  19.778  0.00  0.00    +0.000 C 
ENDROOT
BRANCH  11  13
ATOM     13  O   UNL     1       2.125   1.788  17.395  0.00  0.00    +0.000 OA
ATOM     14  H   UNL     1       1.411   2.172  16.863  0.00  0.00    +0.000 HD
ENDBRANCH  11  13
BRANCH   1  15
ATOM     15  C   UNL     1       3.784   4.010  16.786  0.00  0.00    +0.000 C 
BRANCH  15  18
ATOM     16  C   UNL     1       6.205   4.105  13.824  0.00  0.00    +0.000 A 
ATOM     17  C   UNL     1       5.186   3.620  14.652  0.00  0.00    +0.000 A 
ATOM     18  C   UNL     1       5.019   4.155  15.926  0.00  0.00    +0.000 A 
ATOM     19  C   UNL     1       5.980   5.079  16.400  0.00  0.00    +0.000 A 
ATOM     20  C   UNL     1       6.986   5.597  15.582  0.00  0.00    +0.000 A 
ATOM     21  C   UNL     1       7.027   5.182  14.252  0.00  0.00    +0.000 A 
BRANCH  16  23
ATOM     22  C   UNL     1       5.457   2.937  11.891  0.00  0.00    +0.000 C 
ATOM     23  O   UNL     1       6.492   3.627  12.568  0.00  0.00    +0.000 OA
ENDBRANCH  16  23
BRANCH  20  24
ATOM     24  O   UNL     1       7.716   6.569  16.215  0.00  0.00    +0.000 OA
ATOM     25  C   UNL     1       7.234   7.164  17.411  0.00  0.00    +0.000 C 
ENDBRANCH  20  24
BRANCH  21  26
ATOM     26  O   UNL     1       7.835   5.835  13.357  0.00  0.00    +0.000 OA
ATOM     27  C   UNL     1       9.178   5.336  13.384  0.00  0.00    +0.000 C 
ENDBRANCH  21  26
ENDBRANCH  15  18
ENDBRANCH   1  15
TORSDOF 6
ENDMDL
MODEL 7
REMARK VINA RESULT:      -7.8      4.924      7.330
REMARK  Name = 
REMARK  9 active torsions:
REMARK  status: ('A' for Active; 'I' for Inactive)
REMARK    1  A    between atoms: C_1  and  O_2
REMARK    2  A    between atoms: O_2  and  C_3
REMARK    3  A    between atoms: C_5  and  C_6
REMARK    4  A    between atoms: C_6  and  N_7
REMARK    5  A    between atoms: C_17  and  O_18
REMARK    6  A    between atoms: C_21  and  O_22
REMARK    7  A    between atoms: O_22  and  C_23
REMARK    8  A    between atoms: C_24  and  O_25
REMARK    9  A    between atoms: O_25  and  C_26
REMARK                            x       y       z     vdW  Elec       q    Type
REMARK                         _______ _______ _______ _____ _____    ______ ____
ROOT
ATOM      1  N   UNL     1       2.349   5.723  19.780  0.00  0.00    +0.000 NA
ATOM      2  C   UNL     1       1.483   4.745  19.100  0.00  0.00    +0.000 C 
ATOM      3  C   UNL     1       1.947   3.405  19.743  0.00  0.00    +0.000 C 
ATOM      4  C   UNL     1       1.922   2.315  18.657  0.00  0.00    +0.000 C 
ATOM      5  C   UNL     1       3.192   1.488  18.881  0.00  0.00    +0.000 C 
ATOM      6  C   UNL     1       4.124   2.688  18.923  0.00  0.00    +0.000 C 
ATOM      7  C   UNL     1       3.810   3.363  17.579  0.00  0.00    +0.000 C 
ATOM      8  C   UNL     1       2.284   3.127  17.399  0.00  0.00    +0.000 C 
ATOM      9  C   UNL     1       2.035   4.614  17.675  0.00  0.00    +0.000 C 
ATOM     10  C   UNL     1       3.554   4.837  17.882  0.00  0.00    +0.000 C 
ATOM     11  C   UNL     1       3.618   5.058  19.406  0.00  0.00    +0.000 C 
ATOM     12  C   UNL     1       3.463   3.638  19.949  0.00  0.00    +0.000 C 
ENDROOT
BRANCH  11  13
ATOM     13  O   UNL     1       4.784   5.713  19.819  0.00  0.00    +0.000 OA
ATOM     14  H   UNL     1       5.500   5.443  19.224  0.00  0.00    +0.000 HD
ENDBRANCH  11  13
BRANCH   1  15
ATOM     15  C   UNL     1       2.375   7.090  19.213  0.00  0.00    +0.000 C 
BRANCH  15  18
ATOM     16  C   UNL     1       1.017   9.624  21.738  0.00  0.00    +0.000 A 
ATOM     17  C   UNL     1       1.363   8.373  21.213  0.00  0.00    +0.000 A 
ATOM     18  C   UNL     1       1.652   8.251  19.857  0.00  0.00    +0.000 A 
ATOM     19  C   UNL     1       1.447   9.373  19.020  0.00  0.00    +0.000 A 
ATOM     20  C   UNL     1       1.130  10.635  19.527  0.00  0.00    +0.000 A 
ATOM     21  C   UNL     1       1.020  10.777  20.909  0.00  0.00    +0.000 A 
BRANCH  16  23
ATOM     22  C   UNL     1      -0.695   9.706  23.388  0.00  0.00    +0.000 C 
ATOM     23  O   UNL     1       0.671   9.858  23.047  0.00  0.00    +0.000 OA
ENDBRANCH  16  23
BRANCH  20  24
ATOM     24  O   UNL     1       1.108  11.593  18.547  0.00  0.00    +0.000 OA
ATOM     25  C   UNL     1       2.282  12.326  18.232  0.00  0.00    +0.000 C 
ENDBRANCH  20  24
BRANCH  21  26
ATOM     26  O   UNL     1       0.951  12.030  21.464  0.00  0.00    +0.000 OA
ATOM     27  C   UNL     1      -0.334  12.633  21.264  0.00  0.00    +0.000 C 
ENDBRANCH  21  26
ENDBRANCH  15  18
ENDBRANCH   1  15
TORSDOF 6
ENDMDL
MODEL 8
REMARK VINA RESULT:      -7.6      5.066      7.663
REMARK  Name = 
REMARK  9 active torsions:
REMARK  status: ('A' for Active; 'I' for Inactive)
REMARK    1  A    between atoms: C_1  and  O_2
REMARK    2  A    between atoms: O_2  and  C_3
REMARK    3  A    between atoms: C_5  and  C_6
REMARK    4  A    between atoms: C_6  and  N_7
REMARK    5  A    between atoms: C_17  and  O_18
REMARK    6  A    between atoms: C_21  and  O_22
REMARK    7  A    between atoms: O_22  and  C_23
REMARK    8  A    between atoms: C_24  and  O_25
REMARK    9  A    between atoms: O_25  and  C_26
REMARK                            x       y       z     vdW  Elec       q    Type
REMARK                         _______ _______ _______ _____ _____    ______ ____
ROOT
ATOM      1  N   UNL     1       1.937   6.041  18.917  0.00  0.00    +0.000 NA
ATOM      2  C   UNL     1       2.368   5.280  17.732  0.00  0.00    +0.000 C 
ATOM      3  C   UNL     1       1.803   3.861  18.039  0.00  0.00    +0.000 C 
ATOM      4  C   UNL     1       2.817   2.819  17.537  0.00  0.00    +0.000 C 
ATOM      5  C   UNL     1       2.862   1.738  18.621  0.00  0.00    +0.000 C 
ATOM      6  C   UNL     1       3.074   2.713  19.769  0.00  0.00    +0.000 C 
ATOM      7  C   UNL     1       4.334   3.461  19.302  0.00  0.00    +0.000 C 
ATOM      8  C   UNL     1       4.151   3.557  17.762  0.00  0.00    +0.000 C 
ATOM      9  C   UNL     1       3.876   5.058  17.900  0.00  0.00    +0.000 C 
ATOM     10  C   UNL     1       4.029   4.950  19.438  0.00  0.00    +0.000 C 
ATOM     11  C   UNL     1       2.569   5.128  19.897  0.00  0.00    +0.000 C 
ATOM     12  C   UNL     1       1.957   3.765  19.576  0.00  0.00    +0.000 C 
ENDROOT
BRANCH  11  13
ATOM     13  O   UNL     1       2.456   5.515  21.237  0.00  0.00    +0.000 OA
ATOM     14  H   UNL     1       3.168   5.079  21.730  0.00  0.00    +0.000 HD
ENDBRANCH  11  13
BRANCH   1  15
ATOM     15  C   UNL     1       2.541   7.380  19.097  0.00  0.00    +0.000 C 
BRANCH  15  18
ATOM     16  C   UNL     1      -0.081  10.129  18.637  0.00  0.00    +0.000 A 
ATOM     17  C   UNL     1       0.897   9.195  18.275  0.00  0.00    +0.000 A 
ATOM     18  C   UNL     1       1.709   8.632  19.256  0.00  0.00    +0.000 A 
ATOM     19  C   UNL     1       1.615   9.131  20.577  0.00  0.00    +0.000 A 
ATOM     20  C   UNL     1       0.628  10.040  20.964  0.00  0.00    +0.000 A 
ATOM     21  C   UNL     1      -0.291  10.457  20.003  0.00  0.00    +0.000 A 
BRANCH  16  23
ATOM     22  C   UNL     1      -1.908  10.005  17.117  0.00  0.00    +0.000 C 
ATOM     23  O   UNL     1      -0.909  10.781  17.755  0.00  0.00    +0.000 OA
ENDBRANCH  16  23
BRANCH  20  24
ATOM     24  O   UNL     1       0.649  10.280  22.313  0.00  0.00    +0.000 OA
ATOM     25  C   UNL     1      -0.223   9.573  23.182  0.00  0.00    +0.000 C 
ENDBRANCH  20  24
BRANCH  21  26
ATOM     26  O   UNL     1      -1.411  11.152  20.385  0.00  0.00    +0.000 OA
ATOM     27  C   UNL     1      -1.132  12.542  20.593  0.00  0.00    +0.000 C 
ENDBRANCH  21  26
ENDBRANCH  15  18
ENDBRANCH   1  15
TORSDOF 6
ENDMDL
MODEL 9
REMARK VINA RESULT:      -7.6      4.883      7.460
REMARK  Name = 
REMARK  9 active torsions:
REMARK  status: ('A' for Active; 'I' for Inactive)
REMARK    1  A    between atoms: C_1  and  O_2
REMARK    2  A    between atoms: O_2  and  C_3
REMARK    3  A    between atoms: C_5  and  C_6
REMARK    4  A    between atoms: C_6  and  N_7
REMARK    5  A    between atoms: C_17  and  O_18
REMARK    6  A    between atoms: C_21  and  O_22
REMARK    7  A    between atoms: O_22  and  C_23
REMARK    8  A    between atoms: C_24  and  O_25
REMARK    9  A    between atoms: O_25  and  C_26
REMARK                            x       y       z     vdW  Elec       q    Type
REMARK                         _______ _______ _______ _____ _____    ______ ____
ROOT
ATOM      1  N   UNL     1       1.796   5.662  19.297  0.00  0.00    +0.000 NA
ATOM      2  C   UNL     1       3.120   5.428  18.694  0.00  0.00    +0.000 C 
ATOM      3  C   UNL     1       2.814   4.284  17.684  0.00  0.00    +0.000 C 
ATOM      4  C   UNL     1       4.016   3.324  17.665  0.00  0.00    +0.000 C 
ATOM      5  C   UNL     1       3.413   1.916  17.620  0.00  0.00    +0.000 C 
ATOM      6  C   UNL     1       2.466   2.142  18.788  0.00  0.00    +0.000 C 
ATOM      7  C   UNL     1       3.444   2.582  19.890  0.00  0.00    +0.000 C 
ATOM      8  C   UNL     1       4.506   3.418  19.123  0.00  0.00    +0.000 C 
ATOM      9  C   UNL     1       3.944   4.694  19.758  0.00  0.00    +0.000 C 
ATOM     10  C   UNL     1       2.868   3.858  20.497  0.00  0.00    +0.000 C 
ATOM     11  C   UNL     1       1.597   4.258  19.723  0.00  0.00    +0.000 C 
ATOM     12  C   UNL     1       1.738   3.458  18.429  0.00  0.00    +0.000 C 
ENDROOT
BRANCH  11  13
ATOM     13  O   UNL     1       0.418   4.009  20.434  0.00  0.00    +0.000 OA
ATOM     14  H   UNL     1      -0.036   3.268  20.003  0.00  0.00    +0.000 HD
ENDBRANCH  11  13
BRANCH   1  15
ATOM     15  C   UNL     1       1.764   6.507  20.512  0.00  0.00    +0.000 C 
BRANCH  15  18
ATOM     16  C   UNL     1       1.148  10.092  19.323  0.00  0.00    +0.000 A 
ATOM     17  C   UNL     1       1.635   8.780  19.291  0.00  0.00    +0.000 A 
ATOM     18  C   UNL     1       1.622   8.011  20.451  0.00  0.00    +0.000 A 
ATOM     19  C   UNL     1       1.246   8.631  21.666  0.00  0.00    +0.000 A 
ATOM     20  C   UNL     1       0.730   9.928  21.715  0.00  0.00    +0.000 A 
ATOM     21  C   UNL     1       0.584  10.620  20.514  0.00  0.00    +0.000 A 
BRANCH  16  23
ATOM     22  C   UNL     1       2.359  11.644  17.986  0.00  0.00    +0.000 C 
ATOM     23  O   UNL     1       1.150  10.957  18.255  0.00  0.00    +0.000 OA
ENDBRANCH  16  23
BRANCH  20  24
ATOM     24  O   UNL     1       0.315  10.270  22.976  0.00  0.00    +0.000 OA
ATOM     25  C   UNL     1      -1.069  10.414  23.261  0.00  0.00    +0.000 C 
ENDBRANCH  20  24
BRANCH  21  26
ATOM     26  O   UNL     1      -0.133  11.790  20.483  0.00  0.00    +0.000 OA
ATOM     27  C   UNL     1       0.624  12.895  20.990  0.00  0.00    +0.000 C 
ENDBRANCH  21  26
ENDBRANCH  15  18
ENDBRANCH   1  15
TORSDOF 6
ENDMDL
