MODEL 1
REMARK VINA RESULT:      -6.3      0.000      0.000
REMARK  Name = 
REMARK  12 active torsions:
REMARK  status: ('A' for Active; 'I' for Inactive)
REMARK    1  A    between atoms: C_1  and  C_2
REMARK    2  A    between atoms: C_2  and  C_3
REMARK    3  A    between atoms: C_3  and  C_4
REMARK    4  A    between atoms: C_4  and  C_5
REMARK    5  A    between atoms: C_8  and  C_9
REMARK    6  A    between atoms: C_11  and  C_12
REMARK    7  A    between atoms: C_12  and  N_13
REMARK    8  A    between atoms: N_13  and  C_14
REMARK    9  A    between atoms: C_14  and  C_15
REMARK   10  A    between atoms: C_15  and  N_16
REMARK   11  A    between atoms: N_16  and  C_17
REMARK   12  A    between atoms: N_16  and  C_18
REMARK                            x       y       z     vdW  Elec       q    Type
REMARK                         _______ _______ _______ _____ _____    ______ ____
ROOT
ATOM      1  C   UNL     1       2.761   6.521  19.349  0.00  0.00    +0.000 A 
ATOM      2  N   UNL     1       3.994   6.254  18.946  0.00  0.00    +0.000 NA
ATOM      3  C   UNL     1       4.175   4.927  19.276  0.00  0.00    +0.000 A 
ATOM      4  C   UNL     1       3.027   4.440  19.858  0.00  0.00    +0.000 A 
ATOM      5  O   UNL     1       2.116   5.447  19.909  0.00  0.00    +0.000 OA
ENDROOT
BRANCH   1   9
ATOM      6  C   UNL     1       0.580  10.210  19.229  0.00  0.00    +0.000 A 
ATOM      7  C   UNL     1       0.696   9.479  20.419  0.00  0.00    +0.000 A 
ATOM      8  C   UNL     1       1.412   8.280  20.451  0.00  0.00    +0.000 A 
ATOM      9  C   UNL     1       2.017   7.774  19.292  0.00  0.00    +0.000 A 
ATOM     10  C   UNL     1       1.880   8.498  18.099  0.00  0.00    +0.000 A 
ATOM     11  C   UNL     1       1.171   9.703  18.066  0.00  0.00    +0.000 A 
BRANCH   6  12
ATOM     12  C   UNL     1      -0.182  11.513  19.192  0.00  0.00    +0.000 C 
BRANCH  12  13
ATOM     13  C   UNL     1      -1.218  11.550  18.064  0.00  0.00    +0.000 C 
BRANCH  13  15
ATOM     14  C   UNL     1      -2.607   9.873  16.808  0.00  0.00    +0.000 C 
ATOM     15  C   UNL     1      -2.209  10.395  18.179  0.00  0.00    +0.000 C 
ENDBRANCH  13  15
ENDBRANCH  12  13
ENDBRANCH   6  12
ENDBRANCH   1   9
BRANCH   3  16
ATOM     16  C   UNL     1       5.484   4.246  19.085  0.00  0.00    +0.000 C 
BRANCH  16  17
ATOM     17  N   UNL     1       6.582   5.072  19.612  0.00  0.00    +0.000 NA
ATOM     18  H   UNL     1       7.066   4.507  20.315  0.00  0.00    +0.000 HD
BRANCH  17  19
ATOM     19  C   UNL     1       7.546   5.431  18.560  0.00  0.00    +0.000 C 
BRANCH  19  20
ATOM     20  C   UNL     1       7.291   4.651  17.253  0.00  0.00    +0.000 C 
BRANCH  20  21
ATOM     21  N   UNL     1       7.212   5.519  16.058  0.00  0.00    +0.000 NA
ATOM     22  C   UNL     1       6.987   4.752  14.831  0.00  0.00    +0.000 C 
ATOM     23  C   UNL     1       6.141   6.505  16.230  0.00  0.00    +0.000 C 
ENDBRANCH  20  21
ENDBRANCH  19  20
ENDBRANCH  17  19
ENDBRANCH  16  17
ENDBRANCH   3  16
TORSDOF 9
ENDMDL
MODEL 2
REMARK VINA RESULT:      -6.3      1.865      3.552
REMARK  Name = 
REMARK  12 active torsions:
REMARK  status: ('A' for Active; 'I' for Inactive)
REMARK    1  A    between atoms: C_1  and  C_2
REMARK    2  A    between atoms: C_2  and  C_3
REMARK    3  A    between atoms: C_3  and  C_4
REMARK    4  A    between atoms: C_4  and  C_5
REMARK    5  A    between atoms: C_8  and  C_9
REMARK    6  A    between atoms: C_11  and  C_12
REMARK    7  A    between atoms: C_12  and  N_13
REMARK    8  A    between atoms: N_13  and  C_14
REMARK    9  A    between atoms: C_14  and  C_15
REMARK   10  A    between atoms: C_15  and  N_16
REMARK   11  A    between atoms: N_16  and  C_17
REMARK   12  A    between atoms: N_16  and  C_18
REMARK                            x       y       z     vdW  Elec       q    Type
REMARK                         _______ _______ _______ _____ _____    ______ ____
ROOT
ATOM      1  C   UNL     1       3.495   6.758  18.295  0.00  0.00    +0.000 A 
ATOM      2  N   UNL     1       3.993   5.780  19.035  0.00  0.00    +0.000 NA
ATOM      3  C   UNL     1       4.865   5.129  18.189  0.00  0.00    +0.000 A 
ATOM      4  C   UNL     1       4.868   5.755  16.964  0.00  0.00    +0.000 A 
ATOM      5  O   UNL     1       3.998   6.798  17.018  0.00  0.00    +0.000 OA
ENDROOT
BRANCH   1   9
ATOM      6  C   UNL     1       0.576   9.717  19.343  0.00  0.00    +0.000 A 
ATOM      7  C   UNL     1       0.996   8.758  20.274  0.00  0.00    +0.000 A 
ATOM      8  C   UNL     1       1.952   7.799  19.926  0.00  0.00    +0.000 A 
ATOM      9  C   UNL     1       2.498   7.766  18.637  0.00  0.00    +0.000 A 
ATOM     10  C   UNL     1       2.059   8.716  17.702  0.00  0.00    +0.000 A 
ATOM     11  C   UNL     1       1.110   9.681  18.051  0.00  0.00    +0.000 A 
BRANCH   6  12
ATOM     12  C   UNL     1      -0.446  10.764  19.719  0.00  0.00    +0.000 C 
BRANCH  12  13
ATOM     13  C   UNL     1      -1.274  11.227  18.516  0.00  0.00    +0.000 C 
BRANCH  13  15
ATOM     14  C   UNL     1      -2.357   9.963  16.632  0.00  0.00    +0.000 C 
ATOM     15  C   UNL     1      -2.331  10.193  18.135  0.00  0.00    +0.000 C 
ENDBRANCH  13  15
ENDBRANCH  12  13
ENDBRANCH   6  12
ENDBRANCH   1   9
BRANCH   3  16
ATOM     16  C   UNL     1       5.572   3.885  18.601  0.00  0.00    +0.000 C 
BRANCH  16  17
ATOM     17  N   UNL     1       4.705   3.051  19.447  0.00  0.00    +0.000 NA
ATOM     18  H   UNL     1       4.176   3.688  20.048  0.00  0.00    +0.000 HD
BRANCH  17  19
ATOM     19  C   UNL     1       3.749   2.271  18.643  0.00  0.00    +0.000 C 
BRANCH  19  20
ATOM     20  C   UNL     1       2.371   2.166  19.327  0.00  0.00    +0.000 C 
BRANCH  20  21
ATOM     21  N   UNL     1       2.151   3.196  20.365  0.00  0.00    +0.000 NA
ATOM     22  C   UNL     1       1.024   4.074  20.044  0.00  0.00    +0.000 C 
ATOM     23  C   UNL     1       1.925   2.553  21.663  0.00  0.00    +0.000 C 
ENDBRANCH  20  21
ENDBRANCH  19  20
ENDBRANCH  17  19
ENDBRANCH  16  17
ENDBRANCH   3  16
TORSDOF 9
ENDMDL
MODEL 3
REMARK VINA RESULT:      -6.3      2.774      8.314
REMARK  Name = 
REMARK  12 active torsions:
REMARK  status: ('A' for Active; 'I' for Inactive)
REMARK    1  A    between atoms: C_1  and  C_2
REMARK    2  A    between atoms: C_2  and  C_3
REMARK    3  A    between atoms: C_3  and  C_4
REMARK    4  A    between atoms: C_4  and  C_5
REMARK    5  A    between atoms: C_8  and  C_9
REMARK    6  A    between atoms: C_11  and  C_12
REMARK    7  A    between atoms: C_12  and  N_13
REMARK    8  A    between atoms: N_13  and  C_14
REMARK    9  A    between atoms: C_14  and  C_15
REMARK   10  A    between atoms: C_15  and  N_16
REMARK   11  A    between atoms: N_16  and  C_17
REMARK   12  A    between atoms: N_16  and  C_18
REMARK                            x       y       z     vdW  Elec       q    Type
REMARK                         _______ _______ _______ _____ _____    ______ ____
ROOT
ATOM      1  C   UNL     1       2.717   7.345  18.491  0.00  0.00    +0.000 A 
ATOM      2  N   UNL     1       2.094   8.468  18.170  0.00  0.00    +0.000 NA
ATOM      3  C   UNL     1       1.434   8.828  19.326  0.00  0.00    +0.000 A 
ATOM      4  C   UNL     1       1.699   7.905  20.311  0.00  0.00    +0.000 A 
ATOM      5  O   UNL     1       2.518   6.953  19.791  0.00  0.00    +0.000 OA
ENDROOT
BRANCH   1   9
ATOM      6  C   UNL     1       5.210   4.832  16.072  0.00  0.00    +0.000 A 
ATOM      7  C   UNL     1       5.368   6.225  16.067  0.00  0.00    +0.000 A 
ATOM      8  C   UNL     1       4.554   7.037  16.861  0.00  0.00    +0.000 A 
ATOM      9  C   UNL     1       3.554   6.479  17.669  0.00  0.00    +0.000 A 
ATOM     10  C   UNL     1       3.386   5.087  17.655  0.00  0.00    +0.000 A 
ATOM     11  C   UNL     1       4.205   4.272  16.867  0.00  0.00    +0.000 A 
BRANCH   6  12
ATOM     12  C   UNL     1       6.096   3.950  15.226  0.00  0.00    +0.000 C 
BRANCH  12  13
ATOM     13  C   UNL     1       5.528   3.733  13.820  0.00  0.00    +0.000 C 
BRANCH  13  15
ATOM     14  C   UNL     1       7.573   5.038  13.158  0.00  0.00    +0.000 C 
ATOM     15  C   UNL     1       6.595   3.949  12.748  0.00  0.00    +0.000 C 
ENDBRANCH  13  15
ENDBRANCH  12  13
ENDBRANCH   6  12
ENDBRANCH   1   9
BRANCH   3  16
ATOM     16  C   UNL     1       0.516  10.000  19.369  0.00  0.00    +0.000 C 
BRANCH  16  17
ATOM     17  N   UNL     1       0.025  10.325  18.021  0.00  0.00    +0.000 NA
ATOM     18  H   UNL     1       0.047   9.457  17.480  0.00  0.00    +0.000 HD
BRANCH  17  19
ATOM     19  C   UNL     1      -1.361  10.818  18.051  0.00  0.00    +0.000 C 
BRANCH  19  20
ATOM     20  C   UNL     1      -2.281  10.013  17.110  0.00  0.00    +0.000 C 
BRANCH  20  21
ATOM     21  N   UNL     1      -2.905  10.838  16.053  0.00  0.00    +0.000 NA
ATOM     22  C   UNL     1      -2.907  10.163  14.753  0.00  0.00    +0.000 C 
ATOM     23  C   UNL     1      -4.277  11.182  16.436  0.00  0.00    +0.000 C 
ENDBRANCH  20  21
ENDBRANCH  19  20
ENDBRANCH  17  19
ENDBRANCH  16  17
ENDBRANCH   3  16
TORSDOF 9
ENDMDL
MODEL 4
REMARK VINA RESULT:      -6.2      4.216      7.210
REMARK  Name = 
REMARK  12 active torsions:
REMARK  status: ('A' for Active; 'I' for Inactive)
REMARK    1  A    between atoms: C_1  and  C_2
REMARK    2  A    between atoms: C_2  and  C_3
REMARK    3  A    between atoms: C_3  and  C_4
REMARK    4  A    between atoms: C_4  and  C_5
REMARK    5  A    between atoms: C_8  and  C_9
REMARK    6  A    between atoms: C_11  and  C_12
REMARK    7  A    between atoms: C_12  and  N_13
REMARK    8  A    between atoms: N_13  and  C_14
REMARK    9  A    between atoms: C_14  and  C_15
REMARK   10  A    between atoms: C_15  and  N_16
REMARK   11  A    between atoms: N_16  and  C_17
REMARK   12  A    between atoms: N_16  and  C_18
REMARK                            x       y       z     vdW  Elec       q    Type
REMARK                         _______ _______ _______ _____ _____    ______ ____
ROOT
ATOM      1  C   UNL     1       5.519   4.755  17.754  0.00  0.00    +0.000 A 
ATOM      2  N   UNL     1       5.079   3.860  18.624  0.00  0.00    +0.000 NA
ATOM      3  C   UNL     1       4.234   3.059  17.884  0.00  0.00    +0.000 A 
ATOM      4  C   UNL     1       4.209   3.502  16.581  0.00  0.00    +0.000 A 
ATOM      5  O   UNL     1       5.026   4.584  16.485  0.00  0.00    +0.000 OA
ENDROOT
BRANCH   1   9
ATOM      6  C   UNL     1       8.143   8.095  18.337  0.00  0.00    +0.000 A 
ATOM      7  C   UNL     1       7.104   8.150  17.399  0.00  0.00    +0.000 A 
ATOM      8  C   UNL     1       6.250   7.058  17.217  0.00  0.00    +0.000 A 
ATOM      9  C   UNL     1       6.422   5.882  17.958  0.00  0.00    +0.000 A 
ATOM     10  C   UNL     1       7.477   5.824  18.882  0.00  0.00    +0.000 A 
ATOM     11  C   UNL     1       8.327   6.918  19.070  0.00  0.00    +0.000 A 
BRANCH   6  12
ATOM     12  C   UNL     1       9.060   9.276  18.546  0.00  0.00    +0.000 C 
BRANCH  12  13
ATOM     13  C   UNL     1       8.491  10.568  17.951  0.00  0.00    +0.000 C 
BRANCH  13  15
ATOM     14  C   UNL     1      10.762  11.634  17.792  0.00  0.00    +0.000 C 
ATOM     15  C   UNL     1       9.345  11.778  18.324  0.00  0.00    +0.000 C 
ENDBRANCH  13  15
ENDBRANCH  12  13
ENDBRANCH   6  12
ENDBRANCH   1   9
BRANCH   3  16
ATOM     16  C   UNL     1       3.437   1.971  18.514  0.00  0.00    +0.000 C 
BRANCH  16  17
ATOM     17  N   UNL     1       2.058   1.974  18.002  0.00  0.00    +0.000 NA
ATOM     18  H   UNL     1       1.590   1.160  18.407  0.00  0.00    +0.000 HD
BRANCH  17  19
ATOM     19  C   UNL     1       1.328   3.184  18.416  0.00  0.00    +0.000 C 
BRANCH  19  20
ATOM     20  C   UNL     1       0.707   3.030  19.820  0.00  0.00    +0.000 C 
BRANCH  20  21
ATOM     21  N   UNL     1       1.279   3.960  20.819  0.00  0.00    +0.000 NA
ATOM     22  C   UNL     1       2.225   3.294  21.717  0.00  0.00    +0.000 C 
ATOM     23  C   UNL     1       1.942   5.075  20.137  0.00  0.00    +0.000 C 
ENDBRANCH  20  21
ENDBRANCH  19  20
ENDBRANCH  17  19
ENDBRANCH  16  17
ENDBRANCH   3  16
TORSDOF 9
ENDMDL
MODEL 5
REMARK VINA RESULT:      -6.1      0.772      1.082
REMARK  Name = 
REMARK  12 active torsions:
REMARK  status: ('A' for Active; 'I' for Inactive)
REMARK    1  A    between atoms: C_1  and  C_2
REMARK    2  A    between atoms: C_2  and  C_3
REMARK    3  A    between atoms: C_3  and  C_4
REMARK    4  A    between atoms: C_4  and  C_5
REMARK    5  A    between atoms: C_8  and  C_9
REMARK    6  A    between atoms: C_11  and  C_12
REMARK    7  A    between atoms: C_12  and  N_13
REMARK    8  A    between atoms: N_13  and  C_14
REMARK    9  A    between atoms: C_14  and  C_15
REMARK   10  A    between atoms: C_15  and  N_16
REMARK   11  A    between atoms: N_16  and  C_17
REMARK   12  A    between atoms: N_16  and  C_18
REMARK                            x       y       z     vdW  Elec       q    Type
REMARK                         _______ _______ _______ _____ _____    ______ ____
ROOT
ATOM      1  C   UNL     1       2.622   6.512  19.483  0.00  0.00    +0.000 A 
ATOM      2  N   UNL     1       3.681   6.016  18.862  0.00  0.00    +0.000 NA
ATOM      3  C   UNL     1       3.851   4.771  19.430  0.00  0.00    +0.000 A 
ATOM      4  C   UNL     1       2.869   4.560  20.371  0.00  0.00    +0.000 A 
ATOM      5  O   UNL     1       2.077   5.663  20.413  0.00  0.00    +0.000 OA
ENDROOT
BRANCH   1   9
ATOM      6  C   UNL     1       0.734  10.338  19.071  0.00  0.00    +0.000 A 
ATOM      7  C   UNL     1       0.677   9.633  20.280  0.00  0.00    +0.000 A 
ATOM      8  C   UNL     1       1.298   8.387  20.407  0.00  0.00    +0.000 A 
ATOM      9  C   UNL     1       1.979   7.811  19.327  0.00  0.00    +0.000 A 
ATOM     10  C   UNL     1       2.016   8.512  18.112  0.00  0.00    +0.000 A 
ATOM     11  C   UNL     1       1.402   9.762  17.985  0.00  0.00    +0.000 A 
BRANCH   6  12
ATOM     12  C   UNL     1       0.075  11.690  18.931  0.00  0.00    +0.000 C 
BRANCH  12  13
ATOM     13  C   UNL     1      -1.454  11.596  18.938  0.00  0.00    +0.000 C 
BRANCH  13  15
ATOM     14  C   UNL     1      -2.738   9.853  17.659  0.00  0.00    +0.000 C 
ATOM     15  C   UNL     1      -1.992  11.174  17.572  0.00  0.00    +0.000 C 
ENDBRANCH  13  15
ENDBRANCH  12  13
ENDBRANCH   6  12
ENDBRANCH   1   9
BRANCH   3  16
ATOM     16  C   UNL     1       5.011   3.905  19.084  0.00  0.00    +0.000 C 
BRANCH  16  17
ATOM     17  N   UNL     1       6.231   4.712  18.920  0.00  0.00    +0.000 NA
ATOM     18  H   UNL     1       6.911   4.361  19.599  0.00  0.00    +0.000 HD
BRANCH  17  19
ATOM     19  C   UNL     1       6.803   4.564  17.571  0.00  0.00    +0.000 C 
BRANCH  19  20
ATOM     20  C   UNL     1       5.768   4.024  16.562  0.00  0.00    +0.000 C 
BRANCH  20  21
ATOM     21  N   UNL     1       5.642   4.859  15.348  0.00  0.00    +0.000 NA
ATOM     22  C   UNL     1       5.277   6.241  15.662  0.00  0.00    +0.000 C 
ATOM     23  C   UNL     1       6.901   4.836  14.597  0.00  0.00    +0.000 C 
ENDBRANCH  20  21
ENDBRANCH  19  20
ENDBRANCH  17  19
ENDBRANCH  16  17
ENDBRANCH   3  16
TORSDOF 9
ENDMDL
MODEL 6
REMARK VINA RESULT:      -6.1      2.293      4.096
REMARK  Name = 
REMARK  12 active torsions:
REMARK  status: ('A' for Active; 'I' for Inactive)
REMARK    1  A    between atoms: C_1  and  C_2
REMARK    2  A    between atoms: C_2  and  C_3
REMARK    3  A    between atoms: C_3  and  C_4
REMARK    4  A    between atoms: C_4  and  C_5
REMARK    5  A    between atoms: C_8  and  C_9
REMARK    6  A    between atoms: C_11  and  C_12
REMARK    7  A    between atoms: C_12  and  N_13
REMARK    8  A    between atoms: N_13  and  C_14
REMARK    9  A    between atoms: C_14  and  C_15
REMARK   10  A    between atoms: C_15  and  N_16
REMARK   11  A    between atoms: N_16  and  C_17
REMARK   12  A    between atoms: N_16  and  C_18
REMARK                            x       y       z     vdW  Elec       q    Type
REMARK                         _______ _______ _______ _____ _____    ______ ____
ROOT
ATOM      1  C   UNL     1       3.080   6.927  18.232  0.00  0.00    +0.000 A 
ATOM      2  N   UNL     1       3.128   5.631  18.496  0.00  0.00    +0.000 NA
ATOM      3  C   UNL     1       4.159   5.165  17.708  0.00  0.00    +0.000 A 
ATOM      4  C   UNL     1       4.705   6.212  17.003  0.00  0.00    +0.000 A 
ATOM      5  O   UNL     1       4.026   7.344  17.329  0.00  0.00    +0.000 OA
ENDROOT
BRANCH   1   9
ATOM      6  C   UNL     1       0.394   9.930  19.696  0.00  0.00    +0.000 A 
ATOM      7  C   UNL     1       0.778   9.902  18.349  0.00  0.00    +0.000 A 
ATOM      8  C   UNL     1       1.651   8.917  17.878  0.00  0.00    +0.000 A 
ATOM      9  C   UNL     1       2.172   7.947  18.744  0.00  0.00    +0.000 A 
ATOM     10  C   UNL     1       1.801   7.991  20.096  0.00  0.00    +0.000 A 
ATOM     11  C   UNL     1       0.921   8.971  20.567  0.00  0.00    +0.000 A 
BRANCH   6  12
ATOM     12  C   UNL     1      -0.559  10.985  20.206  0.00  0.00    +0.000 C 
BRANCH  12  13
ATOM     13  C   UNL     1      -0.023  11.702  21.449  0.00  0.00    +0.000 C 
BRANCH  13  15
ATOM     14  C   UNL     1      -1.549  12.745  23.153  0.00  0.00    +0.000 C 
ATOM     15  C   UNL     1      -0.913  11.453  22.664  0.00  0.00    +0.000 C 
ENDBRANCH  13  15
ENDBRANCH  12  13
ENDBRANCH   6  12
ENDBRANCH   1   9
BRANCH   3  16
ATOM     16  C   UNL     1       4.487   3.715  17.627  0.00  0.00    +0.000 C 
BRANCH  16  17
ATOM     17  N   UNL     1       5.254   3.288  18.807  0.00  0.00    +0.000 NA
ATOM     18  H   UNL     1       5.637   4.136  19.233  0.00  0.00    +0.000 HD
BRANCH  17  19
ATOM     19  C   UNL     1       4.398   2.617  19.799  0.00  0.00    +0.000 C 
BRANCH  19  20
ATOM     20  C   UNL     1       3.109   2.056  19.163  0.00  0.00    +0.000 C 
BRANCH  20  21
ATOM     21  N   UNL     1       1.883   2.752  19.611  0.00  0.00    +0.000 NA
ATOM     22  C   UNL     1       0.703   2.339  18.849  0.00  0.00    +0.000 C 
ATOM     23  C   UNL     1       1.664   2.502  21.038  0.00  0.00    +0.000 C 
ENDBRANCH  20  21
ENDBRANCH  19  20
ENDBRANCH  17  19
ENDBRANCH  16  17
ENDBRANCH   3  16
TORSDOF 9
ENDMDL
MODEL 7
REMARK VINA RESULT:      -6.1      2.248      4.140
REMARK  Name = 
REMARK  12 active torsions:
REMARK  status: ('A' for Active; 'I' for Inactive)
REMARK    1  A    between atoms: C_1  and  C_2
REMARK    2  A    between atoms: C_2  and  C_3
REMARK    3  A    between atoms: C_3  and  C_4
REMARK    4  A    between atoms: C_4  and  C_5
REMARK    5  A    between atoms: C_8  and  C_9
REMARK    6  A    between atoms: C_11  and  C_12
REMARK    7  A    between atoms: C_12  and  N_13
REMARK    8  A    between atoms: N_13  and  C_14
REMARK    9  A    between atoms: C_14  and  C_15
REMARK   10  A    between atoms: C_15  and  N_16
REMARK   11  A    between atoms: N_16  and  C_17
REMARK   12  A    between atoms: N_16  and  C_18
REMARK                            x       y       z     vdW  Elec       q    Type
REMARK                         _______ _______ _______ _____ _____    ______ ____
ROOT
ATOM      1  C   UNL     1       3.245   6.913  18.460  0.00  0.00    +0.000 A 
ATOM      2  N   UNL     1       3.676   5.871  19.152  0.00  0.00    +0.000 NA
ATOM      3  C   UNL     1       4.579   5.258  18.308  0.00  0.00    +0.000 A 
ATOM      4  C   UNL     1       4.665   5.972  17.135  0.00  0.00    +0.000 A 
ATOM      5  O   UNL     1       3.819   7.032  17.219  0.00  0.00    +0.000 OA
ENDROOT
BRANCH   1   9
ATOM      6  C   UNL     1       0.321   9.879  19.478  0.00  0.00    +0.000 A 
ATOM      7  C   UNL     1       0.796   9.755  18.166  0.00  0.00    +0.000 A 
ATOM      8  C   UNL     1       1.746   8.784  17.841  0.00  0.00    +0.000 A 
ATOM      9  C   UNL     1       2.255   7.922  18.821  0.00  0.00    +0.000 A 
ATOM     10  C   UNL     1       1.792   8.063  20.138  0.00  0.00    +0.000 A 
ATOM     11  C   UNL     1       0.835   9.029  20.463  0.00  0.00    +0.000 A 
BRANCH   6  12
ATOM     12  C   UNL     1      -0.716  10.919  19.832  0.00  0.00    +0.000 C 
BRANCH  12  13
ATOM     13  C   UNL     1      -0.508  11.493  21.236  0.00  0.00    +0.000 C 
BRANCH  13  15
ATOM     14  C   UNL     1      -2.111  11.769  23.154  0.00  0.00    +0.000 C 
ATOM     15  C   UNL     1      -1.763  12.204  21.739  0.00  0.00    +0.000 C 
ENDBRANCH  13  15
ENDBRANCH  12  13
ENDBRANCH   6  12
ENDBRANCH   1   9
BRANCH   3  16
ATOM     16  C   UNL     1       5.232   3.969  18.664  0.00  0.00    +0.000 C 
BRANCH  16  17
ATOM     17  N   UNL     1       4.410   2.831  18.223  0.00  0.00    +0.000 NA
ATOM     18  H   UNL     1       5.045   2.160  17.783  0.00  0.00    +0.000 HD
BRANCH  17  19
ATOM     19  C   UNL     1       3.746   2.168  19.357  0.00  0.00    +0.000 C 
BRANCH  19  20
ATOM     20  C   UNL     1       2.211   2.173  19.210  0.00  0.00    +0.000 C 
BRANCH  20  21
ATOM     21  N   UNL     1       1.506   2.634  20.426  0.00  0.00    +0.000 NA
ATOM     22  C   UNL     1       2.399   2.722  21.583  0.00  0.00    +0.000 C 
ATOM     23  C   UNL     1       0.887   3.938  20.176  0.00  0.00    +0.000 C 
ENDBRANCH  20  21
ENDBRANCH  19  20
ENDBRANCH  17  19
ENDBRANCH  16  17
ENDBRANCH   3  16
TORSDOF 9
ENDMDL
MODEL 8
REMARK VINA RESULT:      -6.1      1.962      3.801
REMARK  Name = 
REMARK  12 active torsions:
REMARK  status: ('A' for Active; 'I' for Inactive)
REMARK    1  A    between atoms: C_1  and  C_2
REMARK    2  A    between atoms: C_2  and  C_3
REMARK    3  A    between atoms: C_3  and  C_4
REMARK    4  A    between atoms: C_4  and  C_5
REMARK    5  A    between atoms: C_8  and  C_9
REMARK    6  A    between atoms: C_11  and  C_12
REMARK    7  A    between atoms: C_12  and  N_13
REMARK    8  A    between atoms: N_13  and  C_14
REMARK    9  A    between atoms: C_14  and  C_15
REMARK   10  A    between atoms: C_15  and  N_16
REMARK   11  A    between atoms: N_16  and  C_17
REMARK   12  A    between atoms: N_16  and  C_18
REMARK                            x       y       z     vdW  Elec       q    Type
REMARK                         _______ _______ _______ _____ _____    ______ ____
ROOT
ATOM      1  C   UNL     1       3.411   6.579  18.495  0.00  0.00    +0.000 A 
ATOM      2  N   UNL     1       4.044   5.735  19.295  0.00  0.00    +0.000 NA
ATOM      3  C   UNL     1       4.788   4.954  18.437  0.00  0.00    +0.000 A 
ATOM      4  C   UNL     1       4.581   5.371  17.142  0.00  0.00    +0.000 A 
ATOM      5  O   UNL     1       3.705   6.410  17.166  0.00  0.00    +0.000 OA
ENDROOT
BRANCH   1   9
ATOM      6  C   UNL     1       0.589   9.672  19.419  0.00  0.00    +0.000 A 
ATOM      7  C   UNL     1       1.128   9.549  18.132  0.00  0.00    +0.000 A 
ATOM      8  C   UNL     1       2.045   8.536  17.837  0.00  0.00    +0.000 A 
ATOM      9  C   UNL     1       2.455   7.630  18.825  0.00  0.00    +0.000 A 
ATOM     10  C   UNL     1       1.929   7.770  20.117  0.00  0.00    +0.000 A 
ATOM     11  C   UNL     1       1.005   8.779  20.412  0.00  0.00    +0.000 A 
BRANCH   6  12
ATOM     12  C   UNL     1      -0.411  10.758  19.739  0.00  0.00    +0.000 C 
BRANCH  12  13
ATOM     13  C   UNL     1      -1.608  10.745  18.784  0.00  0.00    +0.000 C 
BRANCH  13  15
ATOM     14  C   UNL     1      -0.556  12.978  18.303  0.00  0.00    +0.000 C 
ATOM     15  C   UNL     1      -1.764  12.085  18.067  0.00  0.00    +0.000 C 
ENDBRANCH  13  15
ENDBRANCH  12  13
ENDBRANCH   6  12
ENDBRANCH   1   9
BRANCH   3  16
ATOM     16  C   UNL     1       5.583   3.794  18.926  0.00  0.00    +0.000 C 
BRANCH  16  17
ATOM     17  N   UNL     1       4.716   2.823  19.613  0.00  0.00    +0.000 NA
ATOM     18  H   UNL     1       4.230   3.334  20.355  0.00  0.00    +0.000 HD
BRANCH  17  19
ATOM     19  C   UNL     1       3.709   2.255  18.703  0.00  0.00    +0.000 C 
BRANCH  19  20
ATOM     20  C   UNL     1       2.331   2.116  19.382  0.00  0.00    +0.000 C 
BRANCH  20  21
ATOM     21  N   UNL     1       2.069   3.161  20.397  0.00  0.00    +0.000 NA
ATOM     22  C   UNL     1       1.005   4.078  19.984  0.00  0.00    +0.000 C 
ATOM     23  C   UNL     1       1.717   2.535  21.674  0.00  0.00    +0.000 C 
ENDBRANCH  20  21
ENDBRANCH  19  20
ENDBRANCH  17  19
ENDBRANCH  16  17
ENDBRANCH   3  16
TORSDOF 9
ENDMDL
MODEL 9
REMARK VINA RESULT:      -6.1      3.048      8.527
REMARK  Name = 
REMARK  12 active torsions:
REMARK  status: ('A' for Active; 'I' for Inactive)
REMARK    1  A    between atoms: C_1  and  C_2
REMARK    2  A    between atoms: C_2  and  C_3
REMARK    3  A    between atoms: C_3  and  C_4
REMARK    4  A    between atoms: C_4  and  C_5
REMARK    5  A    between atoms: C_8  and  C_9
REMARK    6  A    between atoms: C_11  and  C_12
REMARK    7  A    between atoms: C_12  and  N_13
REMARK    8  A    between atoms: N_13  and  C_14
REMARK    9  A    between atoms: C_14  and  C_15
REMARK   10  A    between atoms: C_15  and  N_16
REMARK   11  A    between atoms: N_16  and  C_17
REMARK   12  A    between atoms: N_16  and  C_18
REMARK                            x       y       z     vdW  Elec       q    Type
REMARK                         _______ _______ _______ _____ _____    ______ ____
ROOT
ATOM      1  C   UNL     1       2.200   7.933  18.839  0.00  0.00    +0.000 A 
ATOM      2  N   UNL     1       1.762   9.100  18.395  0.00  0.00    +0.000 NA
ATOM      3  C   UNL     1       1.072   9.629  19.466  0.00  0.00    +0.000 A 
ATOM      4  C   UNL     1       1.135   8.755  20.527  0.00  0.00    +0.000 A 
ATOM      5  O   UNL     1       1.853   7.668  20.140  0.00  0.00    +0.000 OA
ENDROOT
BRANCH   1   9
ATOM      6  C   UNL     1       4.499   4.943  16.801  0.00  0.00    +0.000 A 
ATOM      7  C   UNL     1       4.825   6.301  16.693  0.00  0.00    +0.000 A 
ATOM      8  C   UNL     1       4.073   7.270  17.363  0.00  0.00    +0.000 A 
ATOM      9  C   UNL     1       2.970   6.906  18.146  0.00  0.00    +0.000 A 
ATOM     10  C   UNL     1       2.635   5.547  18.236  0.00  0.00    +0.000 A 
ATOM     11  C   UNL     1       3.391   4.575  17.572  0.00  0.00    +0.000 A 
BRANCH   6  12
ATOM     12  C   UNL     1       5.317   3.891  16.089  0.00  0.00    +0.000 C 
BRANCH  12  13
ATOM     13  C   UNL     1       6.709   4.399  15.703  0.00  0.00    +0.000 C 
BRANCH  13  15
ATOM     14  C   UNL     1       6.037   3.733  13.374  0.00  0.00    +0.000 C 
ATOM     15  C   UNL     1       6.781   4.754  14.219  0.00  0.00    +0.000 C 
ENDBRANCH  13  15
ENDBRANCH  12  13
ENDBRANCH   6  12
ENDBRANCH   1   9
BRANCH   3  16
ATOM     16  C   UNL     1       0.323  10.911  19.357  0.00  0.00    +0.000 C 
BRANCH  16  17
ATOM     17  N   UNL     1      -1.126  10.676  19.468  0.00  0.00    +0.000 NA
ATOM     18  H   UNL     1      -1.515  11.470  19.983  0.00  0.00    +0.000 HD
BRANCH  17  19
ATOM     19  C   UNL     1      -1.769  10.619  18.146  0.00  0.00    +0.000 C 
BRANCH  19  20
ATOM     20  C   UNL     1      -3.043  11.487  18.086  0.00  0.00    +0.000 C 
BRANCH  20  21
ATOM     21  N   UNL     1      -4.012  11.037  17.062  0.00  0.00    +0.000 NA
ATOM     22  C   UNL     1      -5.200  11.892  17.011  0.00  0.00    +0.000 C 
ATOM     23  C   UNL     1      -3.366  11.007  15.747  0.00  0.00    +0.000 C 
ENDBRANCH  20  21
ENDBRANCH  19  20
ENDBRANCH  17  19
ENDBRANCH  16  17
ENDBRANCH   3  16
TORSDOF 9
ENDMDL
