MODEL 1
REMARK VINA RESULT:      -8.3      0.000      0.000
REMARK  Name = 
REMARK  6 active torsions:
REMARK  status: ('A' for Active; 'I' for Inactive)
REMARK    1  A    between atoms: C_1  and  C_2
REMARK    2  A    between atoms: C_5  and  C_6
REMARK    3  A    between atoms: N_7  and  N_8
REMARK    4  A    between atoms: C_9  and  C_11
REMARK    5  A    between atoms: C_11  and  S_12
REMARK    6  A    between atoms: S_12  and  C_13
REMARK                            x       y       z     vdW  Elec       q    Type
REMARK                         _______ _______ _______ _____ _____    ______ ____
ROOT
ATOM      1  N   UNL     1       7.598   5.622  15.925  0.00  0.00    +0.000 N 
ATOM      2  C   UNL     1       6.704   6.504  16.524  0.00  0.00    +0.000 C 
ATOM      3  O   UNL     1       5.653   6.890  16.011  0.00  0.00    +0.000 OA
ATOM      4  H   UNL     1       8.313   5.162  16.490  0.00  0.00    +0.000 HD
ENDROOT
BRANCH   1   6
ATOM      5  C   UNL     1       6.416   4.174  14.612  0.00  0.00    +0.000 C 
ATOM      6  N   UNL     1       7.277   5.136  14.694  0.00  0.00    +0.000 NA
BRANCH   5  11
ATOM      7  C   UNL     1       3.430   3.193  10.924  0.00  0.00    +0.000 C 
ATOM      8  C   UNL     1       4.737   3.232  11.612  0.00  0.00    +0.000 A 
ATOM      9  C   UNL     1       5.997   2.828  11.232  0.00  0.00    +0.000 A 
ATOM     10  C   UNL     1       6.848   3.116  12.319  0.00  0.00    +0.000 A 
ATOM     11  C   UNL     1       6.064   3.687  13.303  0.00  0.00    +0.000 A 
ATOM     12  O   UNL     1       4.767   3.759  12.874  0.00  0.00    +0.000 OA
ENDBRANCH   5  11
ENDBRANCH   1   6
BRANCH   2  13
ATOM     13  C   UNL     1       7.131   6.985  17.895  0.00  0.00    +0.000 C 
BRANCH  13  14
ATOM     14  S   UNL     1       7.206   5.600  19.061  0.00  0.00    +0.000 S 
BRANCH  14  15
ATOM     15  C   UNL     1       5.637   4.921  18.870  0.00  0.00    +0.000 A 
ATOM     16  N   UNL     1       4.477   5.511  19.044  0.00  0.00    +0.000 NA
ATOM     17  C   UNL     1       3.553   4.537  18.726  0.00  0.00    +0.000 A 
ATOM     18  C   UNL     1       2.153   4.603  18.694  0.00  0.00    +0.000 A 
ATOM     19  C   UNL     1       1.432   3.446  18.363  0.00  0.00    +0.000 A 
ATOM     20  C   UNL     1       2.091   2.250  18.069  0.00  0.00    +0.000 A 
ATOM     21  C   UNL     1       3.486   2.166  18.080  0.00  0.00    +0.000 A 
ATOM     22  C   UNL     1       4.178   3.333  18.408  0.00  0.00    +0.000 A 
ATOM     23  N   UNL     1       5.516   3.616  18.502  0.00  0.00    +0.000 N 
ATOM     24  H   UNL     1       6.284   2.985  18.332  0.00  0.00    +0.000 HD
ENDBRANCH  14  15
ENDBRANCH  13  14
ENDBRANCH   2  13
TORSDOF 5
ENDMDL
MODEL 2
REMARK VINA RESULT:      -8.0      4.069      6.980
REMARK  Name = 
REMARK  6 active torsions:
REMARK  status: ('A' for Active; 'I' for Inactive)
REMARK    1  A    between atoms: C_1  and  C_2
REMARK    2  A    between atoms: C_5  and  C_6
REMARK    3  A    between atoms: N_7  and  N_8
REMARK    4  A    between atoms: C_9  and  C_11
REMARK    5  A    between atoms: C_11  and  S_12
REMARK    6  A    between atoms: S_12  and  C_13
REMARK                            x       y       z     vdW  Elec       q    Type
REMARK                         _______ _______ _______ _____ _____    ______ ____
ROOT
ATOM      1  N   UNL     1       8.602   8.126  18.880  0.00  0.00    +0.000 N 
ATOM      2  C   UNL     1       7.849   7.297  18.054  0.00  0.00    +0.000 C 
ATOM      3  O   UNL     1       7.404   7.626  16.953  0.00  0.00    +0.000 OA
ATOM      4  H   UNL     1       9.136   7.723  19.652  0.00  0.00    +0.000 HD
ENDROOT
BRANCH   1   6
ATOM      5  C   UNL     1       9.240  10.282  19.288  0.00  0.00    +0.000 C 
ATOM      6  N   UNL     1       8.884   9.380  18.430  0.00  0.00    +0.000 NA
BRANCH   5  11
ATOM      7  C   UNL     1      11.493  13.505  16.458  0.00  0.00    +0.000 C 
ATOM      8  C   UNL     1      10.565  13.084  17.527  0.00  0.00    +0.000 A 
ATOM      9  C   UNL     1       9.735  13.792  18.367  0.00  0.00    +0.000 A 
ATOM     10  C   UNL     1       9.095  12.837  19.185  0.00  0.00    +0.000 A 
ATOM     11  C   UNL     1       9.562  11.597  18.796  0.00  0.00    +0.000 A 
ATOM     12  O   UNL     1      10.466  11.743  17.779  0.00  0.00    +0.000 OA
ENDBRANCH   5  11
ENDBRANCH   1   6
BRANCH   2  13
ATOM     13  C   UNL     1       7.595   5.918  18.624  0.00  0.00    +0.000 C 
BRANCH  13  14
ATOM     14  S   UNL     1       7.176   4.750  17.304  0.00  0.00    +0.000 S 
BRANCH  14  15
ATOM     15  C   UNL     1       5.565   4.327  17.734  0.00  0.00    +0.000 A 
ATOM     16  N   UNL     1       4.451   4.699  17.149  0.00  0.00    +0.000 NA
ATOM     17  C   UNL     1       3.463   4.053  17.863  0.00  0.00    +0.000 A 
ATOM     18  C   UNL     1       2.074   4.044  17.670  0.00  0.00    +0.000 A 
ATOM     19  C   UNL     1       1.275   3.322  18.569  0.00  0.00    +0.000 A 
ATOM     20  C   UNL     1       1.845   2.620  19.633  0.00  0.00    +0.000 A 
ATOM     21  C   UNL     1       3.229   2.601  19.833  0.00  0.00    +0.000 A 
ATOM     22  C   UNL     1       4.001   3.326  18.923  0.00  0.00    +0.000 A 
ATOM     23  N   UNL     1       5.353   3.516  18.807  0.00  0.00    +0.000 N 
ATOM     24  H   UNL     1       6.074   3.132  19.400  0.00  0.00    +0.000 HD
ENDBRANCH  14  15
ENDBRANCH  13  14
ENDBRANCH   2  13
TORSDOF 5
ENDMDL
MODEL 3
REMARK VINA RESULT:      -8.0      4.100      6.961
REMARK  Name = 
REMARK  6 active torsions:
REMARK  status: ('A' for Active; 'I' for Inactive)
REMARK    1  A    between atoms: C_1  and  C_2
REMARK    2  A    between atoms: C_5  and  C_6
REMARK    3  A    between atoms: N_7  and  N_8
REMARK    4  A    between atoms: C_9  and  C_11
REMARK    5  A    between atoms: C_11  and  S_12
REMARK    6  A    between atoms: S_12  and  C_13
REMARK                            x       y       z     vdW  Elec       q    Type
REMARK                         _______ _______ _______ _____ _____    ______ ____
ROOT
ATOM      1  N   UNL     1       8.525   8.256  18.864  0.00  0.00    +0.000 N 
ATOM      2  C   UNL     1       7.874   7.323  18.063  0.00  0.00    +0.000 C 
ATOM      3  O   UNL     1       7.501   7.532  16.907  0.00  0.00    +0.000 OA
ATOM      4  H   UNL     1       9.014   7.948  19.706  0.00  0.00    +0.000 HD
ENDROOT
BRANCH   1   6
ATOM      5  C   UNL     1       9.355  10.376  19.065  0.00  0.00    +0.000 C 
ATOM      6  N   UNL     1       8.787   9.479  18.324  0.00  0.00    +0.000 NA
BRANCH   5  11
ATOM      7  C   UNL     1       8.630  15.072  18.121  0.00  0.00    +0.000 C 
ATOM      8  C   UNL     1       9.352  13.786  18.030  0.00  0.00    +0.000 A 
ATOM      9  C   UNL     1      10.502  13.414  17.372  0.00  0.00    +0.000 A 
ATOM     10  C   UNL     1      10.691  12.044  17.654  0.00  0.00    +0.000 A 
ATOM     11  C   UNL     1       9.651  11.656  18.475  0.00  0.00    +0.000 A 
ATOM     12  O   UNL     1       8.824  12.721  18.707  0.00  0.00    +0.000 OA
ENDBRANCH   5  11
ENDBRANCH   1   6
BRANCH   2  13
ATOM     13  C   UNL     1       7.635   5.987  18.735  0.00  0.00    +0.000 C 
BRANCH  13  14
ATOM     14  S   UNL     1       7.260   4.712  17.504  0.00  0.00    +0.000 S 
BRANCH  14  15
ATOM     15  C   UNL     1       5.623   4.352  17.888  0.00  0.00    +0.000 A 
ATOM     16  N   UNL     1       4.539   4.814  17.310  0.00  0.00    +0.000 NA
ATOM     17  C   UNL     1       3.507   4.183  17.973  0.00  0.00    +0.000 A 
ATOM     18  C   UNL     1       2.123   4.259  17.762  0.00  0.00    +0.000 A 
ATOM     19  C   UNL     1       1.273   3.530  18.607  0.00  0.00    +0.000 A 
ATOM     20  C   UNL     1       1.789   2.742  19.638  0.00  0.00    +0.000 A 
ATOM     21  C   UNL     1       3.166   2.639  19.855  0.00  0.00    +0.000 A 
ATOM     22  C   UNL     1       3.989   3.371  18.998  0.00  0.00    +0.000 A 
ATOM     23  N   UNL     1       5.351   3.495  18.910  0.00  0.00    +0.000 N 
ATOM     24  H   UNL     1       6.041   3.042  19.490  0.00  0.00    +0.000 HD
ENDBRANCH  14  15
ENDBRANCH  13  14
ENDBRANCH   2  13
TORSDOF 5
ENDMDL
MODEL 4
REMARK VINA RESULT:      -7.9      0.654      1.107
REMARK  Name = 
REMARK  6 active torsions:
REMARK  status: ('A' for Active; 'I' for Inactive)
REMARK    1  A    between atoms: C_1  and  C_2
REMARK    2  A    between atoms: C_5  and  C_6
REMARK    3  A    between atoms: N_7  and  N_8
REMARK    4  A    between atoms: C_9  and  C_11
REMARK    5  A    between atoms: C_11  and  S_12
REMARK    6  A    between atoms: S_12  and  C_13
REMARK                            x       y       z     vdW  Elec       q    Type
REMARK                         _______ _______ _______ _____ _____    ______ ____
ROOT
ATOM      1  N   UNL     1       7.610   5.539  15.939  0.00  0.00    +0.000 N 
ATOM      2  C   UNL     1       6.756   6.461  16.539  0.00  0.00    +0.000 C 
ATOM      3  O   UNL     1       5.692   6.847  16.052  0.00  0.00    +0.000 OA
ATOM      4  H   UNL     1       8.338   5.088  16.494  0.00  0.00    +0.000 HD
ENDROOT
BRANCH   1   6
ATOM      5  C   UNL     1       6.233   4.190  14.713  0.00  0.00    +0.000 C 
ATOM      6  N   UNL     1       7.231   5.013  14.742  0.00  0.00    +0.000 NA
BRANCH   5  11
ATOM      7  C   UNL     1       6.564   1.340  10.809  0.00  0.00    +0.000 C 
ATOM      8  C   UNL     1       5.945   2.381  11.655  0.00  0.00    +0.000 A 
ATOM      9  C   UNL     1       4.816   3.153  11.499  0.00  0.00    +0.000 A 
ATOM     10  C   UNL     1       4.742   3.979  12.641  0.00  0.00    +0.000 A 
ATOM     11  C   UNL     1       5.825   3.661  13.437  0.00  0.00    +0.000 A 
ATOM     12  O   UNL     1       6.568   2.682  12.835  0.00  0.00    +0.000 OA
ENDBRANCH   5  11
ENDBRANCH   1   6
BRANCH   2  13
ATOM     13  C   UNL     1       7.245   6.985  17.872  0.00  0.00    +0.000 C 
BRANCH  13  14
ATOM     14  S   UNL     1       7.267   5.661  19.109  0.00  0.00    +0.000 S 
BRANCH  14  15
ATOM     15  C   UNL     1       5.701   4.981  18.892  0.00  0.00    +0.000 A 
ATOM     16  N   UNL     1       4.538   5.560  19.079  0.00  0.00    +0.000 NA
ATOM     17  C   UNL     1       3.619   4.592  18.729  0.00  0.00    +0.000 A 
ATOM     18  C   UNL     1       2.219   4.652  18.694  0.00  0.00    +0.000 A 
ATOM     19  C   UNL     1       1.505   3.502  18.326  0.00  0.00    +0.000 A 
ATOM     20  C   UNL     1       2.170   2.318  17.999  0.00  0.00    +0.000 A 
ATOM     21  C   UNL     1       3.566   2.241  18.011  0.00  0.00    +0.000 A 
ATOM     22  C   UNL     1       4.252   3.401  18.377  0.00  0.00    +0.000 A 
ATOM     23  N   UNL     1       5.588   3.687  18.484  0.00  0.00    +0.000 N 
ATOM     24  H   UNL     1       6.360   3.065  18.298  0.00  0.00    +0.000 HD
ENDBRANCH  14  15
ENDBRANCH  13  14
ENDBRANCH   2  13
TORSDOF 5
ENDMDL
MODEL 5
REMARK VINA RESULT:      -7.8      3.941      6.902
REMARK  Name = 
REMARK  6 active torsions:
REMARK  status: ('A' for Active; 'I' for Inactive)
REMARK    1  A    between atoms: C_1  and  C_2
REMARK    2  A    between atoms: C_5  and  C_6
REMARK    3  A    between atoms: N_7  and  N_8
REMARK    4  A    between atoms: C_9  and  C_11
REMARK    5  A    between atoms: C_11  and  S_12
REMARK    6  A    between atoms: S_12  and  C_13
REMARK                            x       y       z     vdW  Elec       q    Type
REMARK                         _______ _______ _______ _____ _____    ______ ____
ROOT
ATOM      1  N   UNL     1       8.341   7.915  18.682  0.00  0.00    +0.000 N 
ATOM      2  C   UNL     1       7.581   7.058  17.893  0.00  0.00    +0.000 C 
ATOM      3  O   UNL     1       7.141   7.341  16.777  0.00  0.00    +0.000 OA
ATOM      4  H   UNL     1       8.869   7.542  19.473  0.00  0.00    +0.000 HD
ENDROOT
BRANCH   1   6
ATOM      5  C   UNL     1       9.223  10.007  18.943  0.00  0.00    +0.000 C 
ATOM      6  N   UNL     1       8.637   9.144  18.176  0.00  0.00    +0.000 NA
BRANCH   5  11
ATOM      7  C   UNL     1      12.065  13.274  16.769  0.00  0.00    +0.000 C 
ATOM      8  C   UNL     1      10.818  12.797  17.402  0.00  0.00    +0.000 A 
ATOM      9  C   UNL     1       9.612  13.413  17.654  0.00  0.00    +0.000 A 
ATOM     10  C   UNL     1       8.804  12.448  18.291  0.00  0.00    +0.000 A 
ATOM     11  C   UNL     1       9.555  11.294  18.388  0.00  0.00    +0.000 A 
ATOM     12  O   UNL     1      10.793  11.503  17.845  0.00  0.00    +0.000 OA
ENDBRANCH   5  11
ENDBRANCH   1   6
BRANCH   2  13
ATOM     13  C   UNL     1       7.310   5.709  18.524  0.00  0.00    +0.000 C 
BRANCH  13  14
ATOM     14  S   UNL     1       6.555   4.582  17.323  0.00  0.00    +0.000 S 
BRANCH  14  15
ATOM     15  C   UNL     1       5.027   4.291  18.057  0.00  0.00    +0.000 A 
ATOM     16  N   UNL     1       4.198   3.300  17.825  0.00  0.00    +0.000 NA
ATOM     17  C   UNL     1       3.154   3.522  18.699  0.00  0.00    +0.000 A 
ATOM     18  C   UNL     1       1.995   2.767  18.927  0.00  0.00    +0.000 A 
ATOM     19  C   UNL     1       1.060   3.234  19.862  0.00  0.00    +0.000 A 
ATOM     20  C   UNL     1       1.274   4.426  20.558  0.00  0.00    +0.000 A 
ATOM     21  C   UNL     1       2.430   5.186  20.358  0.00  0.00    +0.000 A 
ATOM     22  C   UNL     1       3.346   4.696  19.425  0.00  0.00    +0.000 A 
ATOM     23  N   UNL     1       4.561   5.160  18.995  0.00  0.00    +0.000 N 
ATOM     24  H   UNL     1       5.039   5.993  19.305  0.00  0.00    +0.000 HD
ENDBRANCH  14  15
ENDBRANCH  13  14
ENDBRANCH   2  13
TORSDOF 5
ENDMDL
MODEL 6
REMARK VINA RESULT:      -7.8      1.252      1.575
REMARK  Name = 
REMARK  6 active torsions:
REMARK  status: ('A' for Active; 'I' for Inactive)
REMARK    1  A    between atoms: C_1  and  C_2
REMARK    2  A    between atoms: C_5  and  C_6
REMARK    3  A    between atoms: N_7  and  N_8
REMARK    4  A    between atoms: C_9  and  C_11
REMARK    5  A    between atoms: C_11  and  S_12
REMARK    6  A    between atoms: S_12  and  C_13
REMARK                            x       y       z     vdW  Elec       q    Type
REMARK                         _______ _______ _______ _____ _____    ______ ____
ROOT
ATOM      1  N   UNL     1       5.776   5.349  16.082  0.00  0.00    +0.000 N 
ATOM      2  C   UNL     1       7.041   5.232  16.651  0.00  0.00    +0.000 C 
ATOM      3  O   UNL     1       7.880   4.391  16.323  0.00  0.00    +0.000 OA
ATOM      4  H   UNL     1       5.232   6.201  16.226  0.00  0.00    +0.000 HD
ENDROOT
BRANCH   1   6
ATOM      5  C   UNL     1       5.865   4.744  13.881  0.00  0.00    +0.000 C 
ATOM      6  N   UNL     1       5.451   4.486  15.080  0.00  0.00    +0.000 NA
BRANCH   5  11
ATOM      7  C   UNL     1       6.580   0.907  11.009  0.00  0.00    +0.000 C 
ATOM      8  C   UNL     1       5.831   2.074  11.519  0.00  0.00    +0.000 A 
ATOM      9  C   UNL     1       4.619   2.624  11.167  0.00  0.00    +0.000 A 
ATOM     10  C   UNL     1       4.433   3.741  12.009  0.00  0.00    +0.000 A 
ATOM     11  C   UNL     1       5.538   3.809  12.835  0.00  0.00    +0.000 A 
ATOM     12  O   UNL     1       6.400   2.790  12.537  0.00  0.00    +0.000 OA
ENDBRANCH   5  11
ENDBRANCH   1   6
BRANCH   2  13
ATOM     13  C   UNL     1       7.324   6.237  17.747  0.00  0.00    +0.000 C 
BRANCH  13  14
ATOM     14  S   UNL     1       7.035   5.502  19.377  0.00  0.00    +0.000 S 
BRANCH  14  15
ATOM     15  C   UNL     1       5.468   4.826  19.163  0.00  0.00    +0.000 A 
ATOM     16  N   UNL     1       4.329   5.463  19.017  0.00  0.00    +0.000 NA
ATOM     17  C   UNL     1       3.400   4.458  18.845  0.00  0.00    +0.000 A 
ATOM     18  C   UNL     1       2.021   4.540  18.608  0.00  0.00    +0.000 A 
ATOM     19  C   UNL     1       1.285   3.350  18.502  0.00  0.00    +0.000 A 
ATOM     20  C   UNL     1       1.909   2.107  18.625  0.00  0.00    +0.000 A 
ATOM     21  C   UNL     1       3.285   2.002  18.845  0.00  0.00    +0.000 A 
ATOM     22  C   UNL     1       3.994   3.201  18.944  0.00  0.00    +0.000 A 
ATOM     23  N   UNL     1       5.322   3.473  19.139  0.00  0.00    +0.000 N 
ATOM     24  H   UNL     1       6.071   2.805  19.247  0.00  0.00    +0.000 HD
ENDBRANCH  14  15
ENDBRANCH  13  14
ENDBRANCH   2  13
TORSDOF 5
ENDMDL
MODEL 7
REMARK VINA RESULT:      -7.7      4.127      7.062
REMARK  Name = 
REMARK  6 active torsions:
REMARK  status: ('A' for Active; 'I' for Inactive)
REMARK    1  A    between atoms: C_1  and  C_2
REMARK    2  A    between atoms: C_5  and  C_6
REMARK    3  A    between atoms: N_7  and  N_8
REMARK    4  A    between atoms: C_9  and  C_11
REMARK    5  A    between atoms: C_11  and  S_12
REMARK    6  A    between atoms: S_12  and  C_13
REMARK                            x       y       z     vdW  Elec       q    Type
REMARK                         _______ _______ _______ _____ _____    ______ ____
ROOT
ATOM      1  N   UNL     1       8.575   8.216  18.854  0.00  0.00    +0.000 N 
ATOM      2  C   UNL     1       7.871   7.318  18.057  0.00  0.00    +0.000 C 
ATOM      3  O   UNL     1       7.440   7.573  16.931  0.00  0.00    +0.000 OA
ATOM      4  H   UNL     1       9.104   7.874  19.657  0.00  0.00    +0.000 HD
ENDROOT
BRANCH   1   6
ATOM      5  C   UNL     1       9.338  10.354  19.119  0.00  0.00    +0.000 C 
ATOM      6  N   UNL     1       8.823   9.454  18.344  0.00  0.00    +0.000 NA
BRANCH   5  11
ATOM      7  C   UNL     1       8.796  15.138  18.578  0.00  0.00    +0.000 C 
ATOM      8  C   UNL     1       9.401  13.821  18.293  0.00  0.00    +0.000 A 
ATOM      9  C   UNL     1      10.398  13.426  17.430  0.00  0.00    +0.000 A 
ATOM     10  C   UNL     1      10.536  12.032  17.598  0.00  0.00    +0.000 A 
ATOM     11  C   UNL     1       9.621  11.651  18.560  0.00  0.00    +0.000 A 
ATOM     12  O   UNL     1       8.920  12.745  18.989  0.00  0.00    +0.000 OA
ENDBRANCH   5  11
ENDBRANCH   1   6
BRANCH   2  13
ATOM     13  C   UNL     1       7.651   5.963  18.694  0.00  0.00    +0.000 C 
BRANCH  13  14
ATOM     14  S   UNL     1       7.141   4.749  17.450  0.00  0.00    +0.000 S 
BRANCH  14  15
ATOM     15  C   UNL     1       5.595   4.290  18.051  0.00  0.00    +0.000 A 
ATOM     16  N   UNL     1       5.311   3.752  19.214  0.00  0.00    +0.000 NA
ATOM     17  C   UNL     1       3.937   3.623  19.198  0.00  0.00    +0.000 A 
ATOM     18  C   UNL     1       3.068   3.143  20.188  0.00  0.00    +0.000 A 
ATOM     19  C   UNL     1       1.695   3.084  19.907  0.00  0.00    +0.000 A 
ATOM     20  C   UNL     1       1.197   3.496  18.668  0.00  0.00    +0.000 A 
ATOM     21  C   UNL     1       2.044   3.993  17.673  0.00  0.00    +0.000 A 
ATOM     22  C   UNL     1       3.405   4.044  17.981  0.00  0.00    +0.000 A 
ATOM     23  N   UNL     1       4.495   4.475  17.271  0.00  0.00    +0.000 N 
ATOM     24  H   UNL     1       4.500   4.860  16.338  0.00  0.00    +0.000 HD
ENDBRANCH  14  15
ENDBRANCH  13  14
ENDBRANCH   2  13
TORSDOF 5
ENDMDL
MODEL 8
REMARK VINA RESULT:      -7.6      1.029      1.562
REMARK  Name = 
REMARK  6 active torsions:
REMARK  status: ('A' for Active; 'I' for Inactive)
REMARK    1  A    between atoms: C_1  and  C_2
REMARK    2  A    between atoms: C_5  and  C_6
REMARK    3  A    between atoms: N_7  and  N_8
REMARK    4  A    between atoms: C_9  and  C_11
REMARK    5  A    between atoms: C_11  and  S_12
REMARK    6  A    between atoms: S_12  and  C_13
REMARK                            x       y       z     vdW  Elec       q    Type
REMARK                         _______ _______ _______ _____ _____    ______ ____
ROOT
ATOM      1  N   UNL     1       6.885   6.009  15.853  0.00  0.00    +0.000 N 
ATOM      2  C   UNL     1       7.555   5.479  16.952  0.00  0.00    +0.000 C 
ATOM      3  O   UNL     1       8.028   4.342  17.000  0.00  0.00    +0.000 OA
ATOM      4  H   UNL     1       6.735   7.017  15.789  0.00  0.00    +0.000 HD
ENDROOT
BRANCH   1   6
ATOM      5  C   UNL     1       5.585   4.804  14.412  0.00  0.00    +0.000 C 
ATOM      6  N   UNL     1       6.763   5.223  14.748  0.00  0.00    +0.000 NA
BRANCH   5  11
ATOM      7  C   UNL     1       3.364   3.026  10.490  0.00  0.00    +0.000 C 
ATOM      8  C   UNL     1       4.487   3.173  11.438  0.00  0.00    +0.000 A 
ATOM      9  C   UNL     1       5.739   2.603  11.488  0.00  0.00    +0.000 A 
ATOM     10  C   UNL     1       6.365   3.128  12.638  0.00  0.00    +0.000 A 
ATOM     11  C   UNL     1       5.466   3.996  13.225  0.00  0.00    +0.000 A 
ATOM     12  O   UNL     1       4.310   4.026  12.493  0.00  0.00    +0.000 OA
ENDBRANCH   5  11
ENDBRANCH   1   6
BRANCH   2  13
ATOM     13  C   UNL     1       7.658   6.422  18.131  0.00  0.00    +0.000 C 
BRANCH  13  14
ATOM     14  S   UNL     1       7.171   5.585  19.663  0.00  0.00    +0.000 S 
BRANCH  14  15
ATOM     15  C   UNL     1       5.673   4.882  19.193  0.00  0.00    +0.000 A 
ATOM     16  N   UNL     1       5.353   3.609  19.170  0.00  0.00    +0.000 NA
ATOM     17  C   UNL     1       4.037   3.599  18.757  0.00  0.00    +0.000 A 
ATOM     18  C   UNL     1       3.156   2.522  18.584  0.00  0.00    +0.000 A 
ATOM     19  C   UNL     1       1.859   2.781  18.117  0.00  0.00    +0.000 A 
ATOM     20  C   UNL     1       1.447   4.084  17.831  0.00  0.00    +0.000 A 
ATOM     21  C   UNL     1       2.303   5.175  18.012  0.00  0.00    +0.000 A 
ATOM     22  C   UNL     1       3.586   4.889  18.481  0.00  0.00    +0.000 A 
ATOM     23  N   UNL     1       4.658   5.689  18.780  0.00  0.00    +0.000 N 
ATOM     24  H   UNL     1       4.704   6.694  18.711  0.00  0.00    +0.000 HD
ENDBRANCH  14  15
ENDBRANCH  13  14
ENDBRANCH   2  13
TORSDOF 5
ENDMDL
MODEL 9
REMARK VINA RESULT:      -7.6      4.008      7.176
REMARK  Name = 
REMARK  6 active torsions:
REMARK  status: ('A' for Active; 'I' for Inactive)
REMARK    1  A    between atoms: C_1  and  C_2
REMARK    2  A    between atoms: C_5  and  C_6
REMARK    3  A    between atoms: N_7  and  N_8
REMARK    4  A    between atoms: C_9  and  C_11
REMARK    5  A    between atoms: C_11  and  S_12
REMARK    6  A    between atoms: S_12  and  C_13
REMARK                            x       y       z     vdW  Elec       q    Type
REMARK                         _______ _______ _______ _____ _____    ______ ____
ROOT
ATOM      1  N   UNL     1       7.678   8.411  17.413  0.00  0.00    +0.000 N 
ATOM      2  C   UNL     1       7.467   7.097  17.817  0.00  0.00    +0.000 C 
ATOM      3  O   UNL     1       7.988   6.577  18.806  0.00  0.00    +0.000 OA
ATOM      4  H   UNL     1       7.041   8.844  16.742  0.00  0.00    +0.000 HD
ENDROOT
BRANCH   1   6
ATOM      5  C   UNL     1       8.587  10.447  17.914  0.00  0.00    +0.000 C 
ATOM      6  N   UNL     1       8.502   9.182  18.175  0.00  0.00    +0.000 NA
BRANCH   5  11
ATOM      7  C   UNL     1      10.713  14.544  19.386  0.00  0.00    +0.000 C 
ATOM      8  C   UNL     1      10.419  13.097  19.438  0.00  0.00    +0.000 A 
ATOM      9  C   UNL     1      10.855  12.093  20.272  0.00  0.00    +0.000 A 
ATOM     10  C   UNL     1      10.230  10.910  19.824  0.00  0.00    +0.000 A 
ATOM     11  C   UNL     1       9.441  11.256  18.744  0.00  0.00    +0.000 A 
ATOM     12  O   UNL     1       9.555  12.598  18.503  0.00  0.00    +0.000 OA
ENDBRANCH   5  11
ENDBRANCH   1   6
BRANCH   2  13
ATOM     13  C   UNL     1       6.528   6.315  16.923  0.00  0.00    +0.000 C 
BRANCH  13  14
ATOM     14  S   UNL     1       6.611   4.545  17.302  0.00  0.00    +0.000 S 
BRANCH  14  15
ATOM     15  C   UNL     1       5.179   4.338  18.231  0.00  0.00    +0.000 A 
ATOM     16  N   UNL     1       4.593   5.213  19.014  0.00  0.00    +0.000 NA
ATOM     17  C   UNL     1       3.474   4.553  19.481  0.00  0.00    +0.000 A 
ATOM     18  C   UNL     1       2.451   5.004  20.326  0.00  0.00    +0.000 A 
ATOM     19  C   UNL     1       1.428   4.112  20.680  0.00  0.00    +0.000 A 
ATOM     20  C   UNL     1       1.422   2.801  20.200  0.00  0.00    +0.000 A 
ATOM     21  C   UNL     1       2.423   2.335  19.343  0.00  0.00    +0.000 A 
ATOM     22  C   UNL     1       3.427   3.244  19.004  0.00  0.00    +0.000 A 
ATOM     23  N   UNL     1       4.530   3.141  18.198  0.00  0.00    +0.000 N 
ATOM     24  H   UNL     1       4.824   2.333  17.670  0.00  0.00    +0.000 HD
ENDBRANCH  14  15
ENDBRANCH  13  14
ENDBRANCH   2  13
TORSDOF 5
ENDMDL
