MODEL 1
REMARK VINA RESULT:      -6.4      0.000      0.000
REMARK  Name = 
REMARK  5 active torsions:
REMARK  status: ('A' for Active; 'I' for Inactive)
REMARK    1  A    between atoms: O_1  and  C_2
REMARK    2  A    between atoms: C_2  and  C_3
REMARK    3  A    between atoms: C_6  and  C_7
REMARK    4  A    between atoms: C_7  and  O_8
REMARK    5  A    between atoms: O_8  and  C_9
REMARK                            x       y       z     vdW  Elec       q    Type
REMARK                         _______ _______ _______ _____ _____    ______ ____
ROOT
ATOM      1  C   UNL     1       6.413   5.209  15.827  0.00  0.00    +0.000 C 
ATOM      2  C   UNL     1       5.281   5.937  15.766  0.00  0.00    +0.000 C 
ATOM      3  C   UNL     1       4.562   6.450  16.919  0.00  0.00    +0.000 C 
ATOM      4  C   UNL     1       4.540   5.856  18.130  0.00  0.00    +0.000 C 
ATOM      5  S   UNL     1       5.448   4.386  18.424  0.00  0.00    +0.000 S 
ATOM      6  S   UNL     1       7.158   4.868  17.377  0.00  0.00    +0.000 S 
ENDROOT
BRANCH   1   7
ATOM      7  C   UNL     1       7.125   4.665  14.610  0.00  0.00    +0.000 C 
BRANCH   7   8
ATOM      8  O   UNL     1       7.995   5.634  14.029  0.00  0.00    +0.000 OA
ATOM      9  H   UNL     1       7.452   6.178  13.436  0.00  0.00    +0.000 HD
ENDBRANCH   7   8
ENDBRANCH   1   7
BRANCH   4  10
ATOM     10  C   UNL     1       3.691   6.387  19.263  0.00  0.00    +0.000 C 
BRANCH  10  11
ATOM     11  O   UNL     1       2.328   6.087  18.953  0.00  0.00    +0.000 OA
BRANCH  11  12
ATOM     12  C   UNL     1       1.853   4.875  19.365  0.00  0.00    +0.000 A 
ATOM     13  C   UNL     1       1.520   3.992  18.335  0.00  0.00    +0.000 A 
ATOM     14  C   UNL     1       1.064   2.705  18.623  0.00  0.00    +0.000 A 
ATOM     15  C   UNL     1       0.954   2.290  19.948  0.00  0.00    +0.000 A 
ATOM     16  C   UNL     1       1.295   3.164  20.979  0.00  0.00    +0.000 A 
ATOM     17  C   UNL     1       1.743   4.457  20.691  0.00  0.00    +0.000 A 
ENDBRANCH  11  12
ENDBRANCH  10  11
ENDBRANCH   4  10
TORSDOF 5
ENDMDL
MODEL 2
REMARK VINA RESULT:      -6.3      0.490      1.287
REMARK  Name = 
REMARK  5 active torsions:
REMARK  status: ('A' for Active; 'I' for Inactive)
REMARK    1  A    between atoms: O_1  and  C_2
REMARK    2  A    between atoms: C_2  and  C_3
REMARK    3  A    between atoms: C_6  and  C_7
REMARK    4  A    between atoms: C_7  and  O_8
REMARK    5  A    between atoms: O_8  and  C_9
REMARK                            x       y       z     vdW  Elec       q    Type
REMARK                         _______ _______ _______ _____ _____    ______ ____
ROOT
ATOM      1  C   UNL     1       6.494   5.171  15.552  0.00  0.00    +0.000 C 
ATOM      2  C   UNL     1       5.443   6.009  15.464  0.00  0.00    +0.000 C 
ATOM      3  C   UNL     1       4.723   6.558  16.600  0.00  0.00    +0.000 C 
ATOM      4  C   UNL     1       4.586   5.936  17.790  0.00  0.00    +0.000 C 
ATOM      5  S   UNL     1       5.332   4.376  18.076  0.00  0.00    +0.000 S 
ATOM      6  S   UNL     1       7.129   4.717  17.123  0.00  0.00    +0.000 S 
ENDROOT
BRANCH   1   7
ATOM      7  C   UNL     1       7.207   4.593  14.351  0.00  0.00    +0.000 C 
BRANCH   7   8
ATOM      8  O   UNL     1       7.966   5.583  13.660  0.00  0.00    +0.000 OA
ATOM      9  H   UNL     1       8.868   5.232  13.571  0.00  0.00    +0.000 HD
ENDBRANCH   7   8
ENDBRANCH   1   7
BRANCH   4  10
ATOM     10  C   UNL     1       3.741   6.517  18.899  0.00  0.00    +0.000 C 
BRANCH  10  11
ATOM     11  O   UNL     1       2.402   6.055  18.705  0.00  0.00    +0.000 OA
BRANCH  11  12
ATOM     12  C   UNL     1       2.037   4.922  19.374  0.00  0.00    +0.000 A 
ATOM     13  C   UNL     1       2.408   4.887  20.720  0.00  0.00    +0.000 A 
ATOM     14  C   UNL     1       2.057   3.804  21.527  0.00  0.00    +0.000 A 
ATOM     15  C   UNL     1       1.314   2.754  20.991  0.00  0.00    +0.000 A 
ATOM     16  C   UNL     1       0.931   2.789  19.651  0.00  0.00    +0.000 A 
ATOM     17  C   UNL     1       1.292   3.871  18.840  0.00  0.00    +0.000 A 
ENDBRANCH  11  12
ENDBRANCH  10  11
ENDBRANCH   4  10
TORSDOF 5
ENDMDL
MODEL 3
REMARK VINA RESULT:      -6.2      2.541      6.206
REMARK  Name = 
REMARK  5 active torsions:
REMARK  status: ('A' for Active; 'I' for Inactive)
REMARK    1  A    between atoms: O_1  and  C_2
REMARK    2  A    between atoms: C_2  and  C_3
REMARK    3  A    between atoms: C_6  and  C_7
REMARK    4  A    between atoms: C_7  and  O_8
REMARK    5  A    between atoms: O_8  and  C_9
REMARK                            x       y       z     vdW  Elec       q    Type
REMARK                         _______ _______ _______ _____ _____    ______ ____
ROOT
ATOM      1  C   UNL     1       2.013   4.242  19.254  0.00  0.00    +0.000 C 
ATOM      2  C   UNL     1       2.752   5.286  18.832  0.00  0.00    +0.000 C 
ATOM      3  C   UNL     1       3.547   5.300  17.616  0.00  0.00    +0.000 C 
ATOM      4  C   UNL     1       4.121   4.210  17.066  0.00  0.00    +0.000 C 
ATOM      5  S   UNL     1       3.906   2.626  17.785  0.00  0.00    +0.000 S 
ATOM      6  S   UNL     1       1.911   2.785  18.284  0.00  0.00    +0.000 S 
ENDROOT
BRANCH   1   7
ATOM      7  C   UNL     1       1.217   4.246  20.539  0.00  0.00    +0.000 C 
BRANCH   7   8
ATOM      8  O   UNL     1       0.599   2.984  20.783  0.00  0.00    +0.000 OA
ATOM      9  H   UNL     1      -0.289   3.170  21.129  0.00  0.00    +0.000 HD
ENDBRANCH   7   8
ENDBRANCH   1   7
BRANCH   4  10
ATOM     10  C   UNL     1       5.018   4.307  15.854  0.00  0.00    +0.000 C 
BRANCH  10  11
ATOM     11  O   UNL     1       6.354   4.040  16.288  0.00  0.00    +0.000 OA
BRANCH  11  12
ATOM     12  C   UNL     1       6.937   4.968  17.102  0.00  0.00    +0.000 A 
ATOM     13  C   UNL     1       7.026   6.253  16.560  0.00  0.00    +0.000 A 
ATOM     14  C   UNL     1       7.562   7.303  17.307  0.00  0.00    +0.000 A 
ATOM     15  C   UNL     1       7.998   7.074  18.610  0.00  0.00    +0.000 A 
ATOM     16  C   UNL     1       7.901   5.796  19.159  0.00  0.00    +0.000 A 
ATOM     17  C   UNL     1       7.372   4.741  18.407  0.00  0.00    +0.000 A 
ENDBRANCH  11  12
ENDBRANCH  10  11
ENDBRANCH   4  10
TORSDOF 5
ENDMDL
MODEL 4
REMARK VINA RESULT:      -6.2      2.654      6.251
REMARK  Name = 
REMARK  5 active torsions:
REMARK  status: ('A' for Active; 'I' for Inactive)
REMARK    1  A    between atoms: O_1  and  C_2
REMARK    2  A    between atoms: C_2  and  C_3
REMARK    3  A    between atoms: C_6  and  C_7
REMARK    4  A    between atoms: C_7  and  O_8
REMARK    5  A    between atoms: O_8  and  C_9
REMARK                            x       y       z     vdW  Elec       q    Type
REMARK                         _______ _______ _______ _____ _____    ______ ____
ROOT
ATOM      1  C   UNL     1       2.650   3.483  19.792  0.00  0.00    +0.000 C 
ATOM      2  C   UNL     1       2.979   2.592  18.836  0.00  0.00    +0.000 C 
ATOM      3  C   UNL     1       3.890   2.855  17.735  0.00  0.00    +0.000 C 
ATOM      4  C   UNL     1       4.079   4.068  17.175  0.00  0.00    +0.000 C 
ATOM      5  S   UNL     1       3.236   5.478  17.785  0.00  0.00    +0.000 S 
ATOM      6  S   UNL     1       3.385   5.075  19.802  0.00  0.00    +0.000 S 
ENDROOT
BRANCH   1   7
ATOM      7  C   UNL     1       1.677   3.189  20.911  0.00  0.00    +0.000 C 
BRANCH   7   8
ATOM      8  O   UNL     1       2.345   2.746  22.090  0.00  0.00    +0.000 OA
ATOM      9  H   UNL     1       3.141   3.294  22.184  0.00  0.00    +0.000 HD
ENDBRANCH   7   8
ENDBRANCH   1   7
BRANCH   4  10
ATOM     10  C   UNL     1       4.967   4.257  15.967  0.00  0.00    +0.000 C 
BRANCH  10  11
ATOM     11  O   UNL     1       6.310   3.991  16.379  0.00  0.00    +0.000 OA
BRANCH  11  12
ATOM     12  C   UNL     1       6.924   4.943  17.141  0.00  0.00    +0.000 A 
ATOM     13  C   UNL     1       6.889   6.235  16.610  0.00  0.00    +0.000 A 
ATOM     14  C   UNL     1       7.442   7.307  17.311  0.00  0.00    +0.000 A 
ATOM     15  C   UNL     1       8.021   7.092  18.560  0.00  0.00    +0.000 A 
ATOM     16  C   UNL     1       8.048   5.806  19.100  0.00  0.00    +0.000 A 
ATOM     17  C   UNL     1       7.502   4.730  18.392  0.00  0.00    +0.000 A 
ENDBRANCH  11  12
ENDBRANCH  10  11
ENDBRANCH   4  10
TORSDOF 5
ENDMDL
MODEL 5
REMARK VINA RESULT:      -6.0      2.368      2.895
REMARK  Name = 
REMARK  5 active torsions:
REMARK  status: ('A' for Active; 'I' for Inactive)
REMARK    1  A    between atoms: O_1  and  C_2
REMARK    2  A    between atoms: C_2  and  C_3
REMARK    3  A    between atoms: C_6  and  C_7
REMARK    4  A    between atoms: C_7  and  O_8
REMARK    5  A    between atoms: O_8  and  C_9
REMARK                            x       y       z     vdW  Elec       q    Type
REMARK                         _______ _______ _______ _____ _____    ______ ____
ROOT
ATOM      1  C   UNL     1       7.198   7.382  17.764  0.00  0.00    +0.000 C 
ATOM      2  C   UNL     1       6.063   7.318  17.042  0.00  0.00    +0.000 C 
ATOM      3  C   UNL     1       5.193   6.157  16.964  0.00  0.00    +0.000 C 
ATOM      4  C   UNL     1       5.613   4.880  17.085  0.00  0.00    +0.000 C 
ATOM      5  S   UNL     1       7.299   4.517  17.397  0.00  0.00    +0.000 S 
ATOM      6  S   UNL     1       7.690   6.020  18.753  0.00  0.00    +0.000 S 
ENDROOT
BRANCH   1   7
ATOM      7  C   UNL     1       8.098   8.596  17.803  0.00  0.00    +0.000 C 
BRANCH   7   8
ATOM      8  O   UNL     1       8.868   8.645  19.002  0.00  0.00    +0.000 OA
ATOM      9  H   UNL     1       9.782   8.843  18.740  0.00  0.00    +0.000 HD
ENDBRANCH   7   8
ENDBRANCH   1   7
BRANCH   4  10
ATOM     10  C   UNL     1       4.674   3.712  16.897  0.00  0.00    +0.000 C 
BRANCH  10  11
ATOM     11  O   UNL     1       3.339   4.221  16.959  0.00  0.00    +0.000 OA
BRANCH  11  12
ATOM     12  C   UNL     1       2.560   3.788  17.993  0.00  0.00    +0.000 A 
ATOM     13  C   UNL     1       2.284   4.751  18.966  0.00  0.00    +0.000 A 
ATOM     14  C   UNL     1       1.463   4.448  20.053  0.00  0.00    +0.000 A 
ATOM     15  C   UNL     1       0.899   3.179  20.162  0.00  0.00    +0.000 A 
ATOM     16  C   UNL     1       1.163   2.217  19.188  0.00  0.00    +0.000 A 
ATOM     17  C   UNL     1       1.994   2.518  18.104  0.00  0.00    +0.000 A 
ENDBRANCH  11  12
ENDBRANCH  10  11
ENDBRANCH   4  10
TORSDOF 5
ENDMDL
MODEL 6
REMARK VINA RESULT:      -6.0      2.324      2.665
REMARK  Name = 
REMARK  5 active torsions:
REMARK  status: ('A' for Active; 'I' for Inactive)
REMARK    1  A    between atoms: O_1  and  C_2
REMARK    2  A    between atoms: C_2  and  C_3
REMARK    3  A    between atoms: C_6  and  C_7
REMARK    4  A    between atoms: C_7  and  O_8
REMARK    5  A    between atoms: O_8  and  C_9
REMARK                            x       y       z     vdW  Elec       q    Type
REMARK                         _______ _______ _______ _____ _____    ______ ____
ROOT
ATOM      1  C   UNL     1       7.231   7.388  17.760  0.00  0.00    +0.000 C 
ATOM      2  C   UNL     1       6.060   7.351  17.095  0.00  0.00    +0.000 C 
ATOM      3  C   UNL     1       5.142   6.225  17.094  0.00  0.00    +0.000 C 
ATOM      4  C   UNL     1       5.515   4.936  17.232  0.00  0.00    +0.000 C 
ATOM      5  S   UNL     1       7.199   4.512  17.474  0.00  0.00    +0.000 S 
ATOM      6  S   UNL     1       7.716   6.035  18.765  0.00  0.00    +0.000 S 
ENDROOT
BRANCH   1   7
ATOM      7  C   UNL     1       8.180   8.564  17.720  0.00  0.00    +0.000 C 
BRANCH   7   8
ATOM      8  O   UNL     1       8.838   8.755  18.971  0.00  0.00    +0.000 OA
ATOM      9  H   UNL     1       8.686   7.950  19.492  0.00  0.00    +0.000 HD
ENDBRANCH   7   8
ENDBRANCH   1   7
BRANCH   4  10
ATOM     10  C   UNL     1       4.521   3.803  17.124  0.00  0.00    +0.000 C 
BRANCH  10  11
ATOM     11  O   UNL     1       3.213   4.374  17.194  0.00  0.00    +0.000 OA
BRANCH  11  12
ATOM     12  C   UNL     1       2.505   4.158  18.341  0.00  0.00    +0.000 A 
ATOM     13  C   UNL     1       1.628   3.071  18.296  0.00  0.00    +0.000 A 
ATOM     14  C   UNL     1       0.878   2.717  19.418  0.00  0.00    +0.000 A 
ATOM     15  C   UNL     1       1.015   3.441  20.600  0.00  0.00    +0.000 A 
ATOM     16  C   UNL     1       1.897   4.520  20.653  0.00  0.00    +0.000 A 
ATOM     17  C   UNL     1       2.642   4.881  19.526  0.00  0.00    +0.000 A 
ENDBRANCH  11  12
ENDBRANCH  10  11
ENDBRANCH   4  10
TORSDOF 5
ENDMDL
MODEL 7
REMARK VINA RESULT:      -6.0      2.334      2.863
REMARK  Name = 
REMARK  5 active torsions:
REMARK  status: ('A' for Active; 'I' for Inactive)
REMARK    1  A    between atoms: O_1  and  C_2
REMARK    2  A    between atoms: C_2  and  C_3
REMARK    3  A    between atoms: C_6  and  C_7
REMARK    4  A    between atoms: C_7  and  O_8
REMARK    5  A    between atoms: O_8  and  C_9
REMARK                            x       y       z     vdW  Elec       q    Type
REMARK                         _______ _______ _______ _____ _____    ______ ____
ROOT
ATOM      1  C   UNL     1       6.838   6.922  17.580  0.00  0.00    +0.000 C 
ATOM      2  C   UNL     1       5.535   7.066  17.272  0.00  0.00    +0.000 C 
ATOM      3  C   UNL     1       4.581   5.975  17.173  0.00  0.00    +0.000 C 
ATOM      4  C   UNL     1       4.897   4.715  16.809  0.00  0.00    +0.000 C 
ATOM      5  S   UNL     1       6.556   4.275  16.454  0.00  0.00    +0.000 S 
ATOM      6  S   UNL     1       7.483   5.336  17.960  0.00  0.00    +0.000 S 
ENDROOT
BRANCH   1   7
ATOM      7  C   UNL     1       7.815   8.074  17.649  0.00  0.00    +0.000 C 
BRANCH   7   8
ATOM      8  O   UNL     1       8.640   7.999  18.809  0.00  0.00    +0.000 OA
ATOM      9  H   UNL     1       9.024   8.882  18.937  0.00  0.00    +0.000 HD
ENDBRANCH   7   8
ENDBRANCH   1   7
BRANCH   4  10
ATOM     10  C   UNL     1       3.841   3.649  16.629  0.00  0.00    +0.000 C 
BRANCH  10  11
ATOM     11  O   UNL     1       3.915   2.779  17.761  0.00  0.00    +0.000 OA
BRANCH  11  12
ATOM     12  C   UNL     1       2.939   2.910  18.706  0.00  0.00    +0.000 A 
ATOM     13  C   UNL     1       3.367   3.439  19.926  0.00  0.00    +0.000 A 
ATOM     14  C   UNL     1       2.458   3.664  20.961  0.00  0.00    +0.000 A 
ATOM     15  C   UNL     1       1.109   3.374  20.773  0.00  0.00    +0.000 A 
ATOM     16  C   UNL     1       0.674   2.855  19.553  0.00  0.00    +0.000 A 
ATOM     17  C   UNL     1       1.587   2.621  18.519  0.00  0.00    +0.000 A 
ENDBRANCH  11  12
ENDBRANCH  10  11
ENDBRANCH   4  10
TORSDOF 5
ENDMDL
MODEL 8
REMARK VINA RESULT:      -6.0      2.771      6.415
REMARK  Name = 
REMARK  5 active torsions:
REMARK  status: ('A' for Active; 'I' for Inactive)
REMARK    1  A    between atoms: O_1  and  C_2
REMARK    2  A    between atoms: C_2  and  C_3
REMARK    3  A    between atoms: C_6  and  C_7
REMARK    4  A    between atoms: C_7  and  O_8
REMARK    5  A    between atoms: O_8  and  C_9
REMARK                            x       y       z     vdW  Elec       q    Type
REMARK                         _______ _______ _______ _____ _____    ______ ____
ROOT
ATOM      1  C   UNL     1       2.887   3.581  20.390  0.00  0.00    +0.000 C 
ATOM      2  C   UNL     1       3.517   2.655  19.642  0.00  0.00    +0.000 C 
ATOM      3  C   UNL     1       4.264   2.938  18.428  0.00  0.00    +0.000 C 
ATOM      4  C   UNL     1       3.993   3.956  17.585  0.00  0.00    +0.000 C 
ATOM      5  S   UNL     1       2.693   5.080  17.927  0.00  0.00    +0.000 S 
ATOM      6  S   UNL     1       2.986   5.278  19.959  0.00  0.00    +0.000 S 
ENDROOT
BRANCH   1   7
ATOM      7  C   UNL     1       2.093   3.253  21.634  0.00  0.00    +0.000 C 
BRANCH   7   8
ATOM      8  O   UNL     1       0.785   2.783  21.318  0.00  0.00    +0.000 OA
ATOM      9  H   UNL     1       0.378   2.505  22.155  0.00  0.00    +0.000 HD
ENDBRANCH   7   8
ENDBRANCH   1   7
BRANCH   4  10
ATOM     10  C   UNL     1       4.747   4.137  16.288  0.00  0.00    +0.000 C 
BRANCH  10  11
ATOM     11  O   UNL     1       6.142   4.052  16.588  0.00  0.00    +0.000 OA
BRANCH  11  12
ATOM     12  C   UNL     1       6.713   5.141  17.182  0.00  0.00    +0.000 A 
ATOM     13  C   UNL     1       7.380   4.875  18.380  0.00  0.00    +0.000 A 
ATOM     14  C   UNL     1       8.044   5.894  19.065  0.00  0.00    +0.000 A 
ATOM     15  C   UNL     1       8.056   7.185  18.543  0.00  0.00    +0.000 A 
ATOM     16  C   UNL     1       7.400   7.454  17.342  0.00  0.00    +0.000 A 
ATOM     17  C   UNL     1       6.727   6.434  16.660  0.00  0.00    +0.000 A 
ENDBRANCH  11  12
ENDBRANCH  10  11
ENDBRANCH   4  10
TORSDOF 5
ENDMDL
MODEL 9
REMARK VINA RESULT:      -6.0      1.899      2.417
REMARK  Name = 
REMARK  5 active torsions:
REMARK  status: ('A' for Active; 'I' for Inactive)
REMARK    1  A    between atoms: O_1  and  C_2
REMARK    2  A    between atoms: C_2  and  C_3
REMARK    3  A    between atoms: C_6  and  C_7
REMARK    4  A    between atoms: C_7  and  O_8
REMARK    5  A    between atoms: O_8  and  C_9
REMARK                            x       y       z     vdW  Elec       q    Type
REMARK                         _______ _______ _______ _____ _____    ______ ____
ROOT
ATOM      1  C   UNL     1       6.830   4.781  15.005  0.00  0.00    +0.000 C 
ATOM      2  C   UNL     1       7.595   4.733  16.113  0.00  0.00    +0.000 C 
ATOM      3  C   UNL     1       7.086   4.600  17.467  0.00  0.00    +0.000 C 
ATOM      4  C   UNL     1       5.886   5.060  17.879  0.00  0.00    +0.000 C 
ATOM      5  S   UNL     1       4.794   5.847  16.757  0.00  0.00    +0.000 S 
ATOM      6  S   UNL     1       5.089   4.616  15.129  0.00  0.00    +0.000 S 
ENDROOT
BRANCH   1   7
ATOM      7  C   UNL     1       7.387   4.948  13.609  0.00  0.00    +0.000 C 
BRANCH   7   8
ATOM      8  O   UNL     1       8.500   5.839  13.587  0.00  0.00    +0.000 OA
ATOM      9  H   UNL     1       8.180   6.694  13.917  0.00  0.00    +0.000 HD
ENDBRANCH   7   8
ENDBRANCH   1   7
BRANCH   4  10
ATOM     10  C   UNL     1       5.456   4.977  19.326  0.00  0.00    +0.000 C 
BRANCH  10  11
ATOM     11  O   UNL     1       5.096   3.618  19.588  0.00  0.00    +0.000 OA
BRANCH  11  12
ATOM     12  C   UNL     1       3.795   3.270  19.365  0.00  0.00    +0.000 A 
ATOM     13  C   UNL     1       2.868   3.881  20.212  0.00  0.00    +0.000 A 
ATOM     14  C   UNL     1       1.501   3.642  20.059  0.00  0.00    +0.000 A 
ATOM     15  C   UNL     1       1.055   2.800  19.044  0.00  0.00    +0.000 A 
ATOM     16  C   UNL     1       1.975   2.196  18.189  0.00  0.00    +0.000 A 
ATOM     17  C   UNL     1       3.346   2.428  18.347  0.00  0.00    +0.000 A 
ENDBRANCH  11  12
ENDBRANCH  10  11
ENDBRANCH   4  10
TORSDOF 5
ENDMDL
