MODEL 1
REMARK VINA RESULT:      -8.0      0.000      0.000
REMARK  Name = 
REMARK  4 active torsions:
REMARK  status: ('A' for Active; 'I' for Inactive)
REMARK    1  A    between atoms: C_1  and  C_2
REMARK    2  A    between atoms: C_2  and  C_4
REMARK    3  A    between atoms: C_4  and  O_5
REMARK    4  A    between atoms: O_5  and  C_6
REMARK                            x       y       z     vdW  Elec       q    Type
REMARK                         _______ _______ _______ _____ _____    ______ ____
ROOT
ATOM      1  C   UNL     1       5.647   5.498  15.790  0.00  0.00    +0.000 A 
ATOM      2  C   UNL     1       5.201   4.179  15.737  0.00  0.00    +0.000 A 
ATOM      3  C   UNL     1       4.189   3.725  16.597  0.00  0.00    +0.000 A 
ATOM      4  C   UNL     1       3.606   4.576  17.544  0.00  0.00    +0.000 A 
ATOM      5  C   UNL     1       2.575   4.179  18.525  0.00  0.00    +0.000 A 
ATOM      6  C   UNL     1       2.081   5.109  19.372  0.00  0.00    +0.000 A 
ATOM      7  C   UNL     1       2.524   6.529  19.331  0.00  0.00    +0.000 A 
ATOM      8  O   UNL     1       2.047   7.387  20.067  0.00  0.00    +0.000 OA
ATOM      9  O   UNL     1       3.526   6.849  18.437  0.00  0.00    +0.000 OA
ATOM     10  C   UNL     1       4.066   5.892  17.564  0.00  0.00    +0.000 A 
ATOM     11  C   UNL     1       5.074   6.363  16.714  0.00  0.00    +0.000 A 
ATOM     12  C   UNL     1       1.084   4.777  20.459  0.00  0.00    +0.000 C 
ATOM     13  C   UNL     1       1.683   3.864  21.533  0.00  0.00    +0.000 C 
ATOM     14  C   UNL     1       1.730   2.389  21.136  0.00  0.00    +0.000 C 
ATOM     15  C   UNL     1       2.600   2.069  19.919  0.00  0.00    +0.000 C 
ATOM     16  C   UNL     1       2.122   2.737  18.626  0.00  0.00    +0.000 C 
ENDROOT
BRANCH   1  17
ATOM     17  O   UNL     1       6.622   5.838  14.897  0.00  0.00    +0.000 OA
BRANCH  17  18
ATOM     18  C   UNL     1       7.322   4.745  14.312  0.00  0.00    +0.000 C 
BRANCH  18  20
ATOM     19  C   UNL     1       7.097   4.076  11.839  0.00  0.00    +0.000 C 
ATOM     20  C   UNL     1       7.618   5.053  12.854  0.00  0.00    +0.000 C 
ATOM     21  O   UNL     1       8.279   6.039  12.507  0.00  0.00    +0.000 OA
ENDBRANCH  18  20
ENDBRANCH  17  18
ENDBRANCH   1  17
TORSDOF 3
ENDMDL
MODEL 2
REMARK VINA RESULT:      -7.6      3.138      6.590
REMARK  Name = 
REMARK  4 active torsions:
REMARK  status: ('A' for Active; 'I' for Inactive)
REMARK    1  A    between atoms: C_1  and  C_2
REMARK    2  A    between atoms: C_2  and  C_4
REMARK    3  A    between atoms: C_4  and  O_5
REMARK    4  A    between atoms: O_5  and  C_6
REMARK                            x       y       z     vdW  Elec       q    Type
REMARK                         _______ _______ _______ _____ _____    ______ ____
ROOT
ATOM      1  C   UNL     1       1.437   9.554  19.099  0.00  0.00    +0.000 A 
ATOM      2  C   UNL     1       1.090   8.939  20.300  0.00  0.00    +0.000 A 
ATOM      3  C   UNL     1       1.484   7.619  20.573  0.00  0.00    +0.000 A 
ATOM      4  C   UNL     1       2.224   6.876  19.644  0.00  0.00    +0.000 A 
ATOM      5  C   UNL     1       2.639   5.469  19.817  0.00  0.00    +0.000 A 
ATOM      6  C   UNL     1       3.371   4.876  18.848  0.00  0.00    +0.000 A 
ATOM      7  C   UNL     1       3.794   5.604  17.621  0.00  0.00    +0.000 A 
ATOM      8  O   UNL     1       4.496   5.084  16.759  0.00  0.00    +0.000 OA
ATOM      9  O   UNL     1       3.343   6.899  17.472  0.00  0.00    +0.000 OA
ATOM     10  C   UNL     1       2.565   7.525  18.458  0.00  0.00    +0.000 A 
ATOM     11  C   UNL     1       2.181   8.840  18.168  0.00  0.00    +0.000 A 
ATOM     12  C   UNL     1       3.772   3.418  18.903  0.00  0.00    +0.000 C 
ATOM     13  C   UNL     1       2.563   2.483  18.806  0.00  0.00    +0.000 C 
ATOM     14  C   UNL     1       1.803   2.316  20.121  0.00  0.00    +0.000 C 
ATOM     15  C   UNL     1       1.176   3.594  20.680  0.00  0.00    +0.000 C 
ATOM     16  C   UNL     1       2.199   4.679  21.033  0.00  0.00    +0.000 C 
ENDROOT
BRANCH   1  17
ATOM     17  O   UNL     1       1.018  10.845  18.945  0.00  0.00    +0.000 OA
BRANCH  17  18
ATOM     18  C   UNL     1      -0.277  11.133  19.463  0.00  0.00    +0.000 C 
BRANCH  18  20
ATOM     19  C   UNL     1      -1.986  10.104  17.839  0.00  0.00    +0.000 C 
ATOM     20  C   UNL     1      -1.252  11.325  18.314  0.00  0.00    +0.000 C 
ATOM     21  O   UNL     1      -1.421  12.422  17.766  0.00  0.00    +0.000 OA
ENDBRANCH  18  20
ENDBRANCH  17  18
ENDBRANCH   1  17
TORSDOF 3
ENDMDL
MODEL 3
REMARK VINA RESULT:      -7.6      3.338      7.705
REMARK  Name = 
REMARK  4 active torsions:
REMARK  status: ('A' for Active; 'I' for Inactive)
REMARK    1  A    between atoms: C_1  and  C_2
REMARK    2  A    between atoms: C_2  and  C_4
REMARK    3  A    between atoms: C_4  and  O_5
REMARK    4  A    between atoms: O_5  and  C_6
REMARK                            x       y       z     vdW  Elec       q    Type
REMARK                         _______ _______ _______ _____ _____    ______ ____
ROOT
ATOM      1  C   UNL     1       1.194   8.594  19.999  0.00  0.00    +0.000 A 
ATOM      2  C   UNL     1       1.697   9.068  18.790  0.00  0.00    +0.000 A 
ATOM      3  C   UNL     1       2.586   8.296  18.026  0.00  0.00    +0.000 A 
ATOM      4  C   UNL     1       3.007   7.033  18.460  0.00  0.00    +0.000 A 
ATOM      5  C   UNL     1       3.977   6.170  17.755  0.00  0.00    +0.000 A 
ATOM      6  C   UNL     1       4.280   4.961  18.277  0.00  0.00    +0.000 A 
ATOM      7  C   UNL     1       3.648   4.458  19.527  0.00  0.00    +0.000 A 
ATOM      8  O   UNL     1       3.886   3.343  19.980  0.00  0.00    +0.000 OA
ATOM      9  O   UNL     1       2.788   5.314  20.183  0.00  0.00    +0.000 OA
ATOM     10  C   UNL     1       2.476   6.582  19.669  0.00  0.00    +0.000 A 
ATOM     11  C   UNL     1       1.589   7.338  20.444  0.00  0.00    +0.000 A 
ATOM     12  C   UNL     1       5.319   4.046  17.667  0.00  0.00    +0.000 C 
ATOM     13  C   UNL     1       6.731   4.633  17.758  0.00  0.00    +0.000 C 
ATOM     14  C   UNL     1       7.035   5.680  16.686  0.00  0.00    +0.000 C 
ATOM     15  C   UNL     1       6.160   6.934  16.732  0.00  0.00    +0.000 C 
ATOM     16  C   UNL     1       4.672   6.656  16.500  0.00  0.00    +0.000 C 
ENDROOT
BRANCH   1  17
ATOM     17  O   UNL     1       0.323   9.419  20.651  0.00  0.00    +0.000 OA
BRANCH  17  18
ATOM     18  C   UNL     1      -0.280   8.869  21.819  0.00  0.00    +0.000 C 
BRANCH  18  20
ATOM     19  C   UNL     1      -0.838  11.238  22.651  0.00  0.00    +0.000 C 
ATOM     20  C   UNL     1      -0.238   9.892  22.941  0.00  0.00    +0.000 C 
ATOM     21  O   UNL     1       0.288   9.652  24.035  0.00  0.00    +0.000 OA
ENDBRANCH  18  20
ENDBRANCH  17  18
ENDBRANCH   1  17
TORSDOF 3
ENDMDL
MODEL 4
REMARK VINA RESULT:      -7.3      3.205      6.560
REMARK  Name = 
REMARK  4 active torsions:
REMARK  status: ('A' for Active; 'I' for Inactive)
REMARK    1  A    between atoms: C_1  and  C_2
REMARK    2  A    between atoms: C_2  and  C_4
REMARK    3  A    between atoms: C_4  and  O_5
REMARK    4  A    between atoms: O_5  and  C_6
REMARK                            x       y       z     vdW  Elec       q    Type
REMARK                         _______ _______ _______ _____ _____    ______ ____
ROOT
ATOM      1  C   UNL     1       1.516   9.632  18.883  0.00  0.00    +0.000 A 
ATOM      2  C   UNL     1       1.137   9.057  20.094  0.00  0.00    +0.000 A 
ATOM      3  C   UNL     1       1.509   7.743  20.416  0.00  0.00    +0.000 A 
ATOM      4  C   UNL     1       2.261   6.963  19.527  0.00  0.00    +0.000 A 
ATOM      5  C   UNL     1       2.656   5.558  19.752  0.00  0.00    +0.000 A 
ATOM      6  C   UNL     1       3.402   4.927  18.817  0.00  0.00    +0.000 A 
ATOM      7  C   UNL     1       3.860   5.613  17.578  0.00  0.00    +0.000 A 
ATOM      8  O   UNL     1       4.574   5.059  16.748  0.00  0.00    +0.000 OA
ATOM      9  O   UNL     1       3.426   6.907  17.380  0.00  0.00    +0.000 OA
ATOM     10  C   UNL     1       2.634   7.572  18.329  0.00  0.00    +0.000 A 
ATOM     11  C   UNL     1       2.272   8.881  17.991  0.00  0.00    +0.000 A 
ATOM     12  C   UNL     1       3.785   3.468  18.926  0.00  0.00    +0.000 C 
ATOM     13  C   UNL     1       2.568   2.543  18.832  0.00  0.00    +0.000 C 
ATOM     14  C   UNL     1       1.779   2.425  20.135  0.00  0.00    +0.000 C 
ATOM     15  C   UNL     1       1.155   3.727  20.641  0.00  0.00    +0.000 C 
ATOM     16  C   UNL     1       2.182   4.811  20.982  0.00  0.00    +0.000 C 
ENDROOT
BRANCH   1  17
ATOM     17  O   UNL     1       1.115  10.921  18.680  0.00  0.00    +0.000 OA
BRANCH  17  18
ATOM     18  C   UNL     1       0.790  11.653  19.857  0.00  0.00    +0.000 C 
BRANCH  18  20
ATOM     19  C   UNL     1       2.348  13.420  18.826  0.00  0.00    +0.000 C 
ATOM     20  C   UNL     1       1.807  12.761  20.063  0.00  0.00    +0.000 C 
ATOM     21  O   UNL     1       2.204  13.096  21.186  0.00  0.00    +0.000 OA
ENDBRANCH  18  20
ENDBRANCH  17  18
ENDBRANCH   1  17
TORSDOF 3
ENDMDL
MODEL 5
REMARK VINA RESULT:      -7.3      4.272      7.205
REMARK  Name = 
REMARK  4 active torsions:
REMARK  status: ('A' for Active; 'I' for Inactive)
REMARK    1  A    between atoms: C_1  and  C_2
REMARK    2  A    between atoms: C_2  and  C_4
REMARK    3  A    between atoms: C_4  and  O_5
REMARK    4  A    between atoms: O_5  and  C_6
REMARK                            x       y       z     vdW  Elec       q    Type
REMARK                         _______ _______ _______ _____ _____    ______ ____
ROOT
ATOM      1  C   UNL     1       2.452   6.974  18.774  0.00  0.00    +0.000 A 
ATOM      2  C   UNL     1       2.259   7.983  17.834  0.00  0.00    +0.000 A 
ATOM      3  C   UNL     1       1.676   9.207  18.199  0.00  0.00    +0.000 A 
ATOM      4  C   UNL     1       1.259   9.447  19.515  0.00  0.00    +0.000 A 
ATOM      5  C   UNL     1       0.591  10.678  19.984  0.00  0.00    +0.000 A 
ATOM      6  C   UNL     1       0.257  10.788  21.289  0.00  0.00    +0.000 A 
ATOM      7  C   UNL     1       0.566   9.718  22.276  0.00  0.00    +0.000 A 
ATOM      8  O   UNL     1       0.306   9.831  23.470  0.00  0.00    +0.000 OA
ATOM      9  O   UNL     1       1.143   8.563  21.789  0.00  0.00    +0.000 OA
ATOM     10  C   UNL     1       1.477   8.421  20.434  0.00  0.00    +0.000 A 
ATOM     11  C   UNL     1       2.056   7.195  20.087  0.00  0.00    +0.000 A 
ATOM     12  C   UNL     1      -0.499  11.976  21.842  0.00  0.00    +0.000 C 
ATOM     13  C   UNL     1      -1.925  12.060  21.291  0.00  0.00    +0.000 C 
ATOM     14  C   UNL     1      -2.012  12.666  19.891  0.00  0.00    +0.000 C 
ATOM     15  C   UNL     1      -1.288  11.883  18.794  0.00  0.00    +0.000 C 
ATOM     16  C   UNL     1       0.225  11.777  19.008  0.00  0.00    +0.000 C 
ENDROOT
BRANCH   1  17
ATOM     17  O   UNL     1       3.043   5.832  18.314  0.00  0.00    +0.000 OA
BRANCH  17  18
ATOM     18  C   UNL     1       2.853   4.677  19.125  0.00  0.00    +0.000 C 
BRANCH  18  20
ATOM     19  C   UNL     1       0.850   3.183  19.732  0.00  0.00    +0.000 C 
ATOM     20  C   UNL     1       1.603   3.941  18.677  0.00  0.00    +0.000 C 
ATOM     21  O   UNL     1       1.228   3.932  17.497  0.00  0.00    +0.000 OA
ENDBRANCH  18  20
ENDBRANCH  17  18
ENDBRANCH   1  17
TORSDOF 3
ENDMDL
MODEL 6
REMARK VINA RESULT:      -7.3      3.212      7.220
REMARK  Name = 
REMARK  4 active torsions:
REMARK  status: ('A' for Active; 'I' for Inactive)
REMARK    1  A    between atoms: C_1  and  C_2
REMARK    2  A    between atoms: C_2  and  C_4
REMARK    3  A    between atoms: C_4  and  O_5
REMARK    4  A    between atoms: O_5  and  C_6
REMARK                            x       y       z     vdW  Elec       q    Type
REMARK                         _______ _______ _______ _____ _____    ______ ____
ROOT
ATOM      1  C   UNL     1       1.209   9.482  19.658  0.00  0.00    +0.000 A 
ATOM      2  C   UNL     1       0.888   8.696  20.762  0.00  0.00    +0.000 A 
ATOM      3  C   UNL     1       1.329   7.366  20.853  0.00  0.00    +0.000 A 
ATOM      4  C   UNL     1       2.092   6.784  19.833  0.00  0.00    +0.000 A 
ATOM      5  C   UNL     1       2.557   5.382  19.813  0.00  0.00    +0.000 A 
ATOM      6  C   UNL     1       3.306   4.953  18.773  0.00  0.00    +0.000 A 
ATOM      7  C   UNL     1       3.701   5.857  17.658  0.00  0.00    +0.000 A 
ATOM      8  O   UNL     1       4.418   5.485  16.734  0.00  0.00    +0.000 OA
ATOM      9  O   UNL     1       3.203   7.143  17.687  0.00  0.00    +0.000 OA
ATOM     10  C   UNL     1       2.406   7.601  18.747  0.00  0.00    +0.000 A 
ATOM     11  C   UNL     1       1.976   8.928  18.639  0.00  0.00    +0.000 A 
ATOM     12  C   UNL     1       3.759   3.517  18.629  0.00  0.00    +0.000 C 
ATOM     13  C   UNL     1       2.584   2.561  18.403  0.00  0.00    +0.000 C 
ATOM     14  C   UNL     1       1.834   2.189  19.681  0.00  0.00    +0.000 C 
ATOM     15  C   UNL     1       1.164   3.357  20.409  0.00  0.00    +0.000 C 
ATOM     16  C   UNL     1       2.149   4.418  20.908  0.00  0.00    +0.000 C 
ENDROOT
BRANCH   1  17
ATOM     17  O   UNL     1       0.745  10.766  19.680  0.00  0.00    +0.000 OA
BRANCH  17  18
ATOM     18  C   UNL     1      -0.437  10.974  20.447  0.00  0.00    +0.000 C 
BRANCH  18  20
ATOM     19  C   UNL     1      -1.076  11.884  22.766  0.00  0.00    +0.000 C 
ATOM     20  C   UNL     1      -0.138  11.924  21.593  0.00  0.00    +0.000 C 
ATOM     21  O   UNL     1       0.810  12.720  21.564  0.00  0.00    +0.000 OA
ENDBRANCH  18  20
ENDBRANCH  17  18
ENDBRANCH   1  17
TORSDOF 3
ENDMDL
MODEL 7
REMARK VINA RESULT:      -7.2      2.997      7.640
REMARK  Name = 
REMARK  4 active torsions:
REMARK  status: ('A' for Active; 'I' for Inactive)
REMARK    1  A    between atoms: C_1  and  C_2
REMARK    2  A    between atoms: C_2  and  C_4
REMARK    3  A    between atoms: C_4  and  O_5
REMARK    4  A    between atoms: O_5  and  C_6
REMARK                            x       y       z     vdW  Elec       q    Type
REMARK                         _______ _______ _______ _____ _____    ______ ____
ROOT
ATOM      1  C   UNL     1       1.365   7.403  20.706  0.00  0.00    +0.000 A 
ATOM      2  C   UNL     1       1.859   8.275  19.739  0.00  0.00    +0.000 A 
ATOM      3  C   UNL     1       2.652   7.804  18.681  0.00  0.00    +0.000 A 
ATOM      4  C   UNL     1       2.983   6.447  18.571  0.00  0.00    +0.000 A 
ATOM      5  C   UNL     1       3.851   5.865  17.528  0.00  0.00    +0.000 A 
ATOM      6  C   UNL     1       4.073   4.532  17.526  0.00  0.00    +0.000 A 
ATOM      7  C   UNL     1       3.449   3.626  18.529  0.00  0.00    +0.000 A 
ATOM      8  O   UNL     1       3.611   2.410  18.505  0.00  0.00    +0.000 OA
ATOM      9  O   UNL     1       2.687   4.214  19.518  0.00  0.00    +0.000 OA
ATOM     10  C   UNL     1       2.463   5.599  19.548  0.00  0.00    +0.000 A 
ATOM     11  C   UNL     1       1.670   6.051  20.610  0.00  0.00    +0.000 A 
ATOM     12  C   UNL     1       5.009   3.860  16.546  0.00  0.00    +0.000 C 
ATOM     13  C   UNL     1       6.467   4.279  16.760  0.00  0.00    +0.000 C 
ATOM     14  C   UNL     1       6.816   5.637  16.152  0.00  0.00    +0.000 C 
ATOM     15  C   UNL     1       6.050   6.828  16.731  0.00  0.00    +0.000 C 
ATOM     16  C   UNL     1       4.536   6.754  16.510  0.00  0.00    +0.000 C 
ENDROOT
BRANCH   1  17
ATOM     17  O   UNL     1       0.589   7.964  21.680  0.00  0.00    +0.000 OA
BRANCH  17  18
ATOM     18  C   UNL     1      -0.188   9.085  21.271  0.00  0.00    +0.000 C 
BRANCH  18  20
ATOM     19  C   UNL     1      -0.413  11.568  21.900  0.00  0.00    +0.000 C 
ATOM     20  C   UNL     1      -0.132  10.160  22.342  0.00  0.00    +0.000 C 
ATOM     21  O   UNL     1       0.159   9.909  23.518  0.00  0.00    +0.000 OA
ENDBRANCH  18  20
ENDBRANCH  17  18
ENDBRANCH   1  17
TORSDOF 3
ENDMDL
MODEL 8
REMARK VINA RESULT:      -7.2      3.474      7.487
REMARK  Name = 
REMARK  4 active torsions:
REMARK  status: ('A' for Active; 'I' for Inactive)
REMARK    1  A    between atoms: C_1  and  C_2
REMARK    2  A    between atoms: C_2  and  C_4
REMARK    3  A    between atoms: C_4  and  O_5
REMARK    4  A    between atoms: O_5  and  C_6
REMARK                            x       y       z     vdW  Elec       q    Type
REMARK                         _______ _______ _______ _____ _____    ______ ____
ROOT
ATOM      1  C   UNL     1       1.236   9.399  19.248  0.00  0.00    +0.000 A 
ATOM      2  C   UNL     1       1.889   9.611  18.037  0.00  0.00    +0.000 A 
ATOM      3  C   UNL     1       2.743   8.636  17.498  0.00  0.00    +0.000 A 
ATOM      4  C   UNL     1       2.975   7.426  18.165  0.00  0.00    +0.000 A 
ATOM      5  C   UNL     1       3.892   6.364  17.706  0.00  0.00    +0.000 A 
ATOM      6  C   UNL     1       4.007   5.233  18.438  0.00  0.00    +0.000 A 
ATOM      7  C   UNL     1       3.218   5.014  19.681  0.00  0.00    +0.000 A 
ATOM      8  O   UNL     1       3.285   3.972  20.325  0.00  0.00    +0.000 OA
ATOM      9  O   UNL     1       2.412   6.051  20.104  0.00  0.00    +0.000 OA
ATOM     10  C   UNL     1       2.296   7.240  19.369  0.00  0.00    +0.000 A 
ATOM     11  C   UNL     1       1.442   8.201  19.922  0.00  0.00    +0.000 A 
ATOM     12  C   UNL     1       4.979   4.128  18.088  0.00  0.00    +0.000 C 
ATOM     13  C   UNL     1       6.437   4.575  18.228  0.00  0.00    +0.000 C 
ATOM     14  C   UNL     1       6.950   5.392  17.042  0.00  0.00    +0.000 C 
ATOM     15  C   UNL     1       6.227   6.719  16.802  0.00  0.00    +0.000 C 
ATOM     16  C   UNL     1       4.741   6.560  16.467  0.00  0.00    +0.000 C 
ENDROOT
BRANCH   1  17
ATOM     17  O   UNL     1       0.416  10.406  19.671  0.00  0.00    +0.000 OA
BRANCH  17  18
ATOM     18  C   UNL     1      -0.553  10.035  20.647  0.00  0.00    +0.000 C 
BRANCH  18  20
ATOM     19  C   UNL     1      -0.587   9.998  23.218  0.00  0.00    +0.000 C 
ATOM     20  C   UNL     1      -0.250  10.741  21.957  0.00  0.00    +0.000 C 
ATOM     21  O   UNL     1       0.221  11.884  22.000  0.00  0.00    +0.000 OA
ENDBRANCH  18  20
ENDBRANCH  17  18
ENDBRANCH   1  17
TORSDOF 3
ENDMDL
MODEL 9
REMARK VINA RESULT:      -7.1      4.203      6.753
REMARK  Name = 
REMARK  4 active torsions:
REMARK  status: ('A' for Active; 'I' for Inactive)
REMARK    1  A    between atoms: C_1  and  C_2
REMARK    2  A    between atoms: C_2  and  C_4
REMARK    3  A    between atoms: C_4  and  O_5
REMARK    4  A    between atoms: O_5  and  C_6
REMARK                            x       y       z     vdW  Elec       q    Type
REMARK                         _______ _______ _______ _____ _____    ______ ____
ROOT
ATOM      1  C   UNL     1       2.501   6.832  18.821  0.00  0.00    +0.000 A 
ATOM      2  C   UNL     1       2.306   7.832  17.871  0.00  0.00    +0.000 A 
ATOM      3  C   UNL     1       1.731   9.062  18.226  0.00  0.00    +0.000 A 
ATOM      4  C   UNL     1       1.322   9.319  19.541  0.00  0.00    +0.000 A 
ATOM      5  C   UNL     1       0.662  10.557  20.001  0.00  0.00    +0.000 A 
ATOM      6  C   UNL     1       0.337  10.683  21.307  0.00  0.00    +0.000 A 
ATOM      7  C   UNL     1       0.647   9.622  22.303  0.00  0.00    +0.000 A 
ATOM      8  O   UNL     1       0.396   9.750  23.497  0.00  0.00    +0.000 OA
ATOM      9  O   UNL     1       1.217   8.460  21.826  0.00  0.00    +0.000 OA
ATOM     10  C   UNL     1       1.542   8.302  20.470  0.00  0.00    +0.000 A 
ATOM     11  C   UNL     1       2.114   7.069  20.134  0.00  0.00    +0.000 A 
ATOM     12  C   UNL     1      -0.411  11.880  21.851  0.00  0.00    +0.000 C 
ATOM     13  C   UNL     1      -1.840  11.964  21.308  0.00  0.00    +0.000 C 
ATOM     14  C   UNL     1      -1.933  12.555  19.901  0.00  0.00    +0.000 C 
ATOM     15  C   UNL     1      -1.220  11.756  18.809  0.00  0.00    +0.000 C 
ATOM     16  C   UNL     1       0.294  11.647  19.015  0.00  0.00    +0.000 C 
ENDROOT
BRANCH   1  17
ATOM     17  O   UNL     1       3.084   5.683  18.370  0.00  0.00    +0.000 OA
BRANCH  17  18
ATOM     18  C   UNL     1       4.493   5.751  18.170  0.00  0.00    +0.000 C 
BRANCH  18  20
ATOM     19  C   UNL     1       4.362   3.496  19.399  0.00  0.00    +0.000 C 
ATOM     20  C   UNL     1       5.179   4.699  19.024  0.00  0.00    +0.000 C 
ATOM     21  O   UNL     1       6.343   4.827  19.424  0.00  0.00    +0.000 OA
ENDBRANCH  18  20
ENDBRANCH  17  18
ENDBRANCH   1  17
TORSDOF 3
ENDMDL
