MODEL 1
REMARK VINA RESULT:      -6.9      0.000      0.000
REMARK  Name = 
REMARK  12 active torsions:
REMARK  status: ('A' for Active; 'I' for Inactive)
REMARK    1  A    between atoms: C_1  and  C_2
REMARK    2  A    between atoms: C_2  and  C_3
REMARK    3  A    between atoms: C_7  and  C_8
REMARK    4  A    between atoms: C_9  and  O_10
REMARK    5  A    between atoms: O_10  and  C_11
REMARK    6  A    between atoms: C_11  and  C_13
REMARK    7  A    between atoms: C_13  and  C_14
REMARK    8  A    between atoms: C_14  and  C_15
REMARK    9  A    between atoms: C_15  and  N_16
REMARK   10  A    between atoms: N_19  and  C_20
REMARK   11  A    between atoms: C_20  and  C_21
REMARK   12  A    between atoms: C_21  and  N_22
REMARK                            x       y       z     vdW  Elec       q    Type
REMARK                         _______ _______ _______ _____ _____    ______ ____
ROOT
ATOM      1  C   UNL     1       7.913   9.350  17.588  0.00  0.00    +0.000 C 
ENDROOT
BRANCH   1   2
ATOM      2  C   UNL     1       8.991   9.924  18.476  0.00  0.00    +0.000 C 
ATOM      3  O   UNL     1       9.244   9.562  19.618  0.00  0.00    +0.000 OA
BRANCH   2   4
ATOM      4  O   UNL     1       9.546  11.003  17.865  0.00  0.00    +0.000 OA
BRANCH   4  13
ATOM      5  C   UNL     1      12.260  15.028  19.241  0.00  0.00    +0.000 C 
ATOM      6  C   UNL     1      10.983  14.169  19.177  0.00  0.00    +0.000 C 
ATOM      7  C   UNL     1      10.186  14.493  20.459  0.00  0.00    +0.000 C 
ATOM      8  C   UNL     1      10.183  14.351  17.862  0.00  0.00    +0.000 C 
ATOM      9  C   UNL     1      11.135  13.797  16.772  0.00  0.00    +0.000 C 
ATOM     10  C   UNL     1      11.870  12.656  17.494  0.00  0.00    +0.000 C 
ATOM     11  C   UNL     1      11.191  12.645  18.886  0.00  0.00    +0.000 C 
ATOM     12  C   UNL     1      11.987  11.870  19.919  0.00  0.00    +0.000 C 
ATOM     13  C   UNL     1       9.722  12.144  18.711  0.00  0.00    +0.000 C 
ATOM     14  C   UNL     1       9.037  13.330  17.999  0.00  0.00    +0.000 C 
ENDBRANCH   4  13
ENDBRANCH   2   4
ENDBRANCH   1   2
BRANCH   1  15
ATOM     15  C   UNL     1       7.841   7.834  17.761  0.00  0.00    +0.000 C 
BRANCH  15  16
ATOM     16  C   UNL     1       6.513   7.216  17.310  0.00  0.00    +0.000 C 
BRANCH  16  17
ATOM     17  N   UNL     1       6.492   5.747  17.231  0.00  0.00    +0.000 NA
ATOM     18  C   UNL     1       6.457   5.091  18.556  0.00  0.00    +0.000 C 
ATOM     19  C   UNL     1       5.120   5.277  19.306  0.00  0.00    +0.000 C 
ATOM     20  N   UNL     1       3.942   4.769  18.573  0.00  0.00    +0.000 NA
ATOM     21  C   UNL     1       3.952   5.357  17.211  0.00  0.00    +0.000 C 
ATOM     22  C   UNL     1       5.312   5.286  16.458  0.00  0.00    +0.000 C 
BRANCH  20  23
ATOM     23  C   UNL     1       3.897   3.293  18.507  0.00  0.00    +0.000 C 
BRANCH  23  24
ATOM     24  C   UNL     1       2.791   2.743  17.581  0.00  0.00    +0.000 C 
BRANCH  24  25
ATOM     25  N   UNL     1       1.460   2.903  18.170  0.00  0.00    +0.000 NA
ATOM     26  H   UNL     1       1.487   2.615  19.147  0.00  0.00    +0.000 HD
ATOM     27  H   UNL     1       0.817   2.255  17.714  0.00  0.00    +0.000 HD
ENDBRANCH  24  25
ENDBRANCH  23  24
ENDBRANCH  20  23
ENDBRANCH  16  17
ENDBRANCH  15  16
ENDBRANCH   1  15
TORSDOF 9
ENDMDL
MODEL 2
REMARK VINA RESULT:      -6.9      6.174      9.439
REMARK  Name = 
REMARK  12 active torsions:
REMARK  status: ('A' for Active; 'I' for Inactive)
REMARK    1  A    between atoms: C_1  and  C_2
REMARK    2  A    between atoms: C_2  and  C_3
REMARK    3  A    between atoms: C_7  and  C_8
REMARK    4  A    between atoms: C_9  and  O_10
REMARK    5  A    between atoms: O_10  and  C_11
REMARK    6  A    between atoms: C_11  and  C_13
REMARK    7  A    between atoms: C_13  and  C_14
REMARK    8  A    between atoms: C_14  and  C_15
REMARK    9  A    between atoms: C_15  and  N_16
REMARK   10  A    between atoms: N_19  and  C_20
REMARK   11  A    between atoms: C_20  and  C_21
REMARK   12  A    between atoms: C_21  and  N_22
REMARK                            x       y       z     vdW  Elec       q    Type
REMARK                         _______ _______ _______ _____ _____    ______ ____
ROOT
ATOM      1  C   UNL     1       6.648   6.029  17.508  0.00  0.00    +0.000 C 
ENDROOT
BRANCH   1   2
ATOM      2  C   UNL     1       6.252   5.210  18.713  0.00  0.00    +0.000 C 
ATOM      3  O   UNL     1       6.754   5.288  19.826  0.00  0.00    +0.000 OA
BRANCH   2   4
ATOM      4  O   UNL     1       5.346   4.270  18.335  0.00  0.00    +0.000 OA
BRANCH   4  13
ATOM      5  C   UNL     1       0.613   3.334  19.815  0.00  0.00    +0.000 C 
ATOM      6  C   UNL     1       2.147   3.260  19.935  0.00  0.00    +0.000 C 
ATOM      7  C   UNL     1       2.452   3.139  21.444  0.00  0.00    +0.000 C 
ATOM      8  C   UNL     1       2.780   2.147  19.062  0.00  0.00    +0.000 C 
ATOM      9  C   UNL     1       2.480   2.600  17.611  0.00  0.00    +0.000 C 
ATOM     10  C   UNL     1       2.544   4.134  17.701  0.00  0.00    +0.000 C 
ATOM     11  C   UNL     1       2.953   4.368  19.177  0.00  0.00    +0.000 C 
ATOM     12  C   UNL     1       2.714   5.796  19.631  0.00  0.00    +0.000 C 
ATOM     13  C   UNL     1       4.426   3.882  19.360  0.00  0.00    +0.000 C 
ATOM     14  C   UNL     1       4.294   2.346  19.275  0.00  0.00    +0.000 C 
ENDBRANCH   4  13
ENDBRANCH   2   4
ENDBRANCH   1   2
BRANCH   1  15
ATOM     15  C   UNL     1       5.433   6.277  16.616  0.00  0.00    +0.000 C 
BRANCH  15  16
ATOM     16  C   UNL     1       5.605   5.787  15.175  0.00  0.00    +0.000 C 
BRANCH  16  17
ATOM     17  N   UNL     1       6.477   4.614  15.004  0.00  0.00    +0.000 NA
ATOM     18  C   UNL     1       5.761   3.420  14.508  0.00  0.00    +0.000 C 
ATOM     19  C   UNL     1       5.290   3.541  13.042  0.00  0.00    +0.000 C 
ATOM     20  N   UNL     1       6.382   3.787  12.078  0.00  0.00    +0.000 NA
ATOM     21  C   UNL     1       7.171   4.951  12.553  0.00  0.00    +0.000 C 
ATOM     22  C   UNL     1       7.576   4.919  14.055  0.00  0.00    +0.000 C 
BRANCH  20  23
ATOM     23  C   UNL     1       7.252   2.608  11.881  0.00  0.00    +0.000 C 
BRANCH  23  24
ATOM     24  C   UNL     1       6.729   1.617  10.819  0.00  0.00    +0.000 C 
BRANCH  24  25
ATOM     25  N   UNL     1       6.257   0.371  11.426  0.00  0.00    +0.000 NA
ATOM     26  H   UNL     1       6.610  -0.420  10.890  0.00  0.00    +0.000 HD
ATOM     27  H   UNL     1       5.241   0.326  11.337  0.00  0.00    +0.000 HD
ENDBRANCH  24  25
ENDBRANCH  23  24
ENDBRANCH  20  23
ENDBRANCH  16  17
ENDBRANCH  15  16
ENDBRANCH   1  15
TORSDOF 9
ENDMDL
MODEL 3
REMARK VINA RESULT:      -6.7      3.792      9.874
REMARK  Name = 
REMARK  12 active torsions:
REMARK  status: ('A' for Active; 'I' for Inactive)
REMARK    1  A    between atoms: C_1  and  C_2
REMARK    2  A    between atoms: C_2  and  C_3
REMARK    3  A    between atoms: C_7  and  C_8
REMARK    4  A    between atoms: C_9  and  O_10
REMARK    5  A    between atoms: O_10  and  C_11
REMARK    6  A    between atoms: C_11  and  C_13
REMARK    7  A    between atoms: C_13  and  C_14
REMARK    8  A    between atoms: C_14  and  C_15
REMARK    9  A    between atoms: C_15  and  N_16
REMARK   10  A    between atoms: N_19  and  C_20
REMARK   11  A    between atoms: C_20  and  C_21
REMARK   12  A    between atoms: C_21  and  N_22
REMARK                            x       y       z     vdW  Elec       q    Type
REMARK                         _______ _______ _______ _____ _____    ______ ____
ROOT
ATOM      1  C   UNL     1       7.948   9.249  17.809  0.00  0.00    +0.000 C 
ENDROOT
BRANCH   1   2
ATOM      2  C   UNL     1       7.981   7.776  18.140  0.00  0.00    +0.000 C 
ATOM      3  O   UNL     1       8.623   7.262  19.047  0.00  0.00    +0.000 OA
BRANCH   2   4
ATOM      4  O   UNL     1       7.300   7.088  17.186  0.00  0.00    +0.000 OA
BRANCH   4  13
ATOM      5  C   UNL     1       3.508   3.812  16.601  0.00  0.00    +0.000 C 
ATOM      6  C   UNL     1       4.819   4.322  17.227  0.00  0.00    +0.000 C 
ATOM      7  C   UNL     1       4.866   3.736  18.655  0.00  0.00    +0.000 C 
ATOM      8  C   UNL     1       6.072   4.016  16.367  0.00  0.00    +0.000 C 
ATOM      9  C   UNL     1       5.851   4.853  15.083  0.00  0.00    +0.000 C 
ATOM     10  C   UNL     1       5.116   6.102  15.597  0.00  0.00    +0.000 C 
ATOM     11  C   UNL     1       5.078   5.863  17.127  0.00  0.00    +0.000 C 
ATOM     12  C   UNL     1       4.075   6.756  17.834  0.00  0.00    +0.000 C 
ATOM     13  C   UNL     1       6.535   5.985  17.679  0.00  0.00    +0.000 C 
ATOM     14  C   UNL     1       7.212   4.705  17.144  0.00  0.00    +0.000 C 
ENDBRANCH   4  13
ENDBRANCH   2   4
ENDBRANCH   1   2
BRANCH   1  15
ATOM     15  C   UNL     1       9.262   9.911  18.220  0.00  0.00    +0.000 C 
BRANCH  15  16
ATOM     16  C   UNL     1       9.144  10.825  19.445  0.00  0.00    +0.000 C 
BRANCH  16  17
ATOM     17  N   UNL     1      10.263  11.759  19.648  0.00  0.00    +0.000 NA
ATOM     18  C   UNL     1      10.871  12.227  18.384  0.00  0.00    +0.000 C 
ATOM     19  C   UNL     1       9.960  13.170  17.568  0.00  0.00    +0.000 C 
ATOM     20  N   UNL     1       9.552  14.390  18.295  0.00  0.00    +0.000 NA
ATOM     21  C   UNL     1       8.977  13.983  19.602  0.00  0.00    +0.000 C 
ATOM     22  C   UNL     1       9.813  12.950  20.410  0.00  0.00    +0.000 C 
BRANCH  20  23
ATOM     23  C   UNL     1      10.663  15.347  18.485  0.00  0.00    +0.000 C 
BRANCH  23  24
ATOM     24  C   UNL     1      11.398  15.716  17.178  0.00  0.00    +0.000 C 
BRANCH  24  25
ATOM     25  N   UNL     1      10.525  16.435  16.249  0.00  0.00    +0.000 NA
ATOM     26  H   UNL     1       9.556  16.176  16.428  0.00  0.00    +0.000 HD
ATOM     27  H   UNL     1      10.719  16.115  15.300  0.00  0.00    +0.000 HD
ENDBRANCH  24  25
ENDBRANCH  23  24
ENDBRANCH  20  23
ENDBRANCH  16  17
ENDBRANCH  15  16
ENDBRANCH   1  15
TORSDOF 9
ENDMDL
MODEL 4
REMARK VINA RESULT:      -6.7      3.625     10.013
REMARK  Name = 
REMARK  12 active torsions:
REMARK  status: ('A' for Active; 'I' for Inactive)
REMARK    1  A    between atoms: C_1  and  C_2
REMARK    2  A    between atoms: C_2  and  C_3
REMARK    3  A    between atoms: C_7  and  C_8
REMARK    4  A    between atoms: C_9  and  O_10
REMARK    5  A    between atoms: O_10  and  C_11
REMARK    6  A    between atoms: C_11  and  C_13
REMARK    7  A    between atoms: C_13  and  C_14
REMARK    8  A    between atoms: C_14  and  C_15
REMARK    9  A    between atoms: C_15  and  N_16
REMARK   10  A    between atoms: N_19  and  C_20
REMARK   11  A    between atoms: C_20  and  C_21
REMARK   12  A    between atoms: C_21  and  N_22
REMARK                            x       y       z     vdW  Elec       q    Type
REMARK                         _______ _______ _______ _____ _____    ______ ____
ROOT
ATOM      1  C   UNL     1       7.911   8.089  17.706  0.00  0.00    +0.000 C 
ENDROOT
BRANCH   1   2
ATOM      2  C   UNL     1       7.756   6.763  18.411  0.00  0.00    +0.000 C 
ATOM      3  O   UNL     1       8.438   6.368  19.348  0.00  0.00    +0.000 OA
BRANCH   2   4
ATOM      4  O   UNL     1       6.833   6.013  17.754  0.00  0.00    +0.000 OA
BRANCH   4  13
ATOM      5  C   UNL     1       1.963   4.692  17.784  0.00  0.00    +0.000 C 
ATOM      6  C   UNL     1       3.335   4.959  18.432  0.00  0.00    +0.000 C 
ATOM      7  C   UNL     1       3.043   5.381  19.889  0.00  0.00    +0.000 C 
ATOM      8  C   UNL     1       4.322   3.772  18.295  0.00  0.00    +0.000 C 
ATOM      9  C   UNL     1       4.575   3.678  16.769  0.00  0.00    +0.000 C 
ATOM     10  C   UNL     1       4.504   5.143  16.309  0.00  0.00    +0.000 C 
ATOM     11  C   UNL     1       4.299   5.905  17.642  0.00  0.00    +0.000 C 
ATOM     12  C   UNL     1       3.816   7.328  17.434  0.00  0.00    +0.000 C 
ATOM     13  C   UNL     1       5.616   5.797  18.475  0.00  0.00    +0.000 C 
ATOM     14  C   UNL     1       5.622   4.318  18.918  0.00  0.00    +0.000 C 
ENDBRANCH   4  13
ENDBRANCH   2   4
ENDBRANCH   1   2
BRANCH   1  15
ATOM     15  C   UNL     1       8.630   9.087  18.612  0.00  0.00    +0.000 C 
BRANCH  15  16
ATOM     16  C   UNL     1       8.930  10.434  17.945  0.00  0.00    +0.000 C 
BRANCH  16  17
ATOM     17  N   UNL     1       9.193  11.551  18.865  0.00  0.00    +0.000 NA
ATOM     18  C   UNL     1      10.472  11.418  19.596  0.00  0.00    +0.000 C 
ATOM     19  C   UNL     1      11.719  11.589  18.701  0.00  0.00    +0.000 C 
ATOM     20  N   UNL     1      11.786  12.889  18.003  0.00  0.00    +0.000 NA
ATOM     21  C   UNL     1      10.503  13.102  17.289  0.00  0.00    +0.000 C 
ATOM     22  C   UNL     1       9.218  12.837  18.125  0.00  0.00    +0.000 C 
BRANCH  20  23
ATOM     23  C   UNL     1      12.074  14.018  18.914  0.00  0.00    +0.000 C 
BRANCH  23  24
ATOM     24  C   UNL     1      11.885  15.406  18.265  0.00  0.00    +0.000 C 
BRANCH  24  25
ATOM     25  N   UNL     1      11.281  16.362  19.195  0.00  0.00    +0.000 NA
ATOM     26  H   UNL     1      10.656  16.982  18.683  0.00  0.00    +0.000 HD
ATOM     27  H   UNL     1      12.014  16.966  19.569  0.00  0.00    +0.000 HD
ENDBRANCH  24  25
ENDBRANCH  23  24
ENDBRANCH  20  23
ENDBRANCH  16  17
ENDBRANCH  15  16
ENDBRANCH   1  15
TORSDOF 9
ENDMDL
MODEL 5
REMARK VINA RESULT:      -6.7      1.107      1.926
REMARK  Name = 
REMARK  12 active torsions:
REMARK  status: ('A' for Active; 'I' for Inactive)
REMARK    1  A    between atoms: C_1  and  C_2
REMARK    2  A    between atoms: C_2  and  C_3
REMARK    3  A    between atoms: C_7  and  C_8
REMARK    4  A    between atoms: C_9  and  O_10
REMARK    5  A    between atoms: O_10  and  C_11
REMARK    6  A    between atoms: C_11  and  C_13
REMARK    7  A    between atoms: C_13  and  C_14
REMARK    8  A    between atoms: C_14  and  C_15
REMARK    9  A    between atoms: C_15  and  N_16
REMARK   10  A    between atoms: N_19  and  C_20
REMARK   11  A    between atoms: C_20  and  C_21
REMARK   12  A    between atoms: C_21  and  N_22
REMARK                            x       y       z     vdW  Elec       q    Type
REMARK                         _______ _______ _______ _____ _____    ______ ____
ROOT
ATOM      1  C   UNL     1       8.421   8.155  18.485  0.00  0.00    +0.000 C 
ENDROOT
BRANCH   1   2
ATOM      2  C   UNL     1       8.355   9.643  18.236  0.00  0.00    +0.000 C 
ATOM      3  O   UNL     1       7.629  10.199  17.422  0.00  0.00    +0.000 OA
BRANCH   2   4
ATOM      4  O   UNL     1       9.329  10.260  18.954  0.00  0.00    +0.000 OA
BRANCH   4  13
ATOM      5  C   UNL     1      11.601  14.677  19.840  0.00  0.00    +0.000 C 
ATOM      6  C   UNL     1      10.863  13.645  18.967  0.00  0.00    +0.000 C 
ATOM      7  C   UNL     1      10.099  14.457  17.899  0.00  0.00    +0.000 C 
ATOM      8  C   UNL     1      11.794  12.546  18.393  0.00  0.00    +0.000 C 
ATOM      9  C   UNL     1      12.282  11.783  19.650  0.00  0.00    +0.000 C 
ATOM     10  C   UNL     1      11.072  11.852  20.596  0.00  0.00    +0.000 C 
ATOM     11  C   UNL     1      10.010  12.578  19.733  0.00  0.00    +0.000 C 
ATOM     12  C   UNL     1       8.853  13.113  20.556  0.00  0.00    +0.000 C 
ATOM     13  C   UNL     1       9.577  11.618  18.579  0.00  0.00    +0.000 C 
ATOM     14  C   UNL     1      10.819  11.602  17.662  0.00  0.00    +0.000 C 
ENDBRANCH   4  13
ENDBRANCH   2   4
ENDBRANCH   1   2
BRANCH   1  15
ATOM     15  C   UNL     1       7.668   7.403  17.390  0.00  0.00    +0.000 C 
BRANCH  15  16
ATOM     16  C   UNL     1       6.261   6.950  17.796  0.00  0.00    +0.000 C 
BRANCH  16  17
ATOM     17  N   UNL     1       6.183   5.631  18.443  0.00  0.00    +0.000 NA
ATOM     18  C   UNL     1       4.894   5.389  19.125  0.00  0.00    +0.000 C 
ATOM     19  C   UNL     1       3.702   5.215  18.158  0.00  0.00    +0.000 C 
ATOM     20  N   UNL     1       3.865   4.105  17.197  0.00  0.00    +0.000 NA
ATOM     21  C   UNL     1       5.172   4.267  16.514  0.00  0.00    +0.000 C 
ATOM     22  C   UNL     1       6.386   4.551  17.446  0.00  0.00    +0.000 C 
BRANCH  20  23
ATOM     23  C   UNL     1       3.765   2.774  17.832  0.00  0.00    +0.000 C 
BRANCH  23  24
ATOM     24  C   UNL     1       2.640   2.667  18.884  0.00  0.00    +0.000 C 
BRANCH  24  25
ATOM     25  N   UNL     1       1.714   1.575  18.578  0.00  0.00    +0.000 NA
ATOM     26  H   UNL     1       1.854   1.273  17.616  0.00  0.00    +0.000 HD
ATOM     27  H   UNL     1       0.759   1.934  18.613  0.00  0.00    +0.000 HD
ENDBRANCH  24  25
ENDBRANCH  23  24
ENDBRANCH  20  23
ENDBRANCH  16  17
ENDBRANCH  15  16
ENDBRANCH   1  15
TORSDOF 9
ENDMDL
MODEL 6
REMARK VINA RESULT:      -6.7      3.817     10.083
REMARK  Name = 
REMARK  12 active torsions:
REMARK  status: ('A' for Active; 'I' for Inactive)
REMARK    1  A    between atoms: C_1  and  C_2
REMARK    2  A    between atoms: C_2  and  C_3
REMARK    3  A    between atoms: C_7  and  C_8
REMARK    4  A    between atoms: C_9  and  O_10
REMARK    5  A    between atoms: O_10  and  C_11
REMARK    6  A    between atoms: C_11  and  C_13
REMARK    7  A    between atoms: C_13  and  C_14
REMARK    8  A    between atoms: C_14  and  C_15
REMARK    9  A    between atoms: C_15  and  N_16
REMARK   10  A    between atoms: N_19  and  C_20
REMARK   11  A    between atoms: C_20  and  C_21
REMARK   12  A    between atoms: C_21  and  N_22
REMARK                            x       y       z     vdW  Elec       q    Type
REMARK                         _______ _______ _______ _____ _____    ______ ____
ROOT
ATOM      1  C   UNL     1       8.102   9.423  17.621  0.00  0.00    +0.000 C 
ENDROOT
BRANCH   1   2
ATOM      2  C   UNL     1       8.023   7.972  18.030  0.00  0.00    +0.000 C 
ATOM      3  O   UNL     1       8.626   7.459  18.964  0.00  0.00    +0.000 OA
BRANCH   2   4
ATOM      4  O   UNL     1       7.288   7.289  17.113  0.00  0.00    +0.000 OA
BRANCH   4  13
ATOM      5  C   UNL     1       3.623   3.858  16.609  0.00  0.00    +0.000 C 
ATOM      6  C   UNL     1       4.901   4.444  17.239  0.00  0.00    +0.000 C 
ATOM      7  C   UNL     1       4.933   3.932  18.695  0.00  0.00    +0.000 C 
ATOM      8  C   UNL     1       6.184   4.139  16.424  0.00  0.00    +0.000 C 
ATOM      9  C   UNL     1       5.966   4.902  15.093  0.00  0.00    +0.000 C 
ATOM     10  C   UNL     1       5.177   6.149  15.528  0.00  0.00    +0.000 C 
ATOM     11  C   UNL     1       5.111   5.986  17.067  0.00  0.00    +0.000 C 
ATOM     12  C   UNL     1       4.062   6.877  17.705  0.00  0.00    +0.000 C 
ATOM     13  C   UNL     1       6.549   6.185  17.644  0.00  0.00    +0.000 C 
ATOM     14  C   UNL     1       7.281   4.904  17.189  0.00  0.00    +0.000 C 
ENDBRANCH   4  13
ENDBRANCH   2   4
ENDBRANCH   1   2
BRANCH   1  15
ATOM     15  C   UNL     1       8.938  10.209  18.629  0.00  0.00    +0.000 C 
BRANCH  15  16
ATOM     16  C   UNL     1      10.052  11.051  17.996  0.00  0.00    +0.000 C 
BRANCH  16  17
ATOM     17  N   UNL     1       9.774  12.492  17.891  0.00  0.00    +0.000 NA
ATOM     18  C   UNL     1       9.633  13.158  19.203  0.00  0.00    +0.000 C 
ATOM     19  C   UNL     1      10.956  13.260  19.994  0.00  0.00    +0.000 C 
ATOM     20  N   UNL     1      12.027  13.990  19.284  0.00  0.00    +0.000 NA
ATOM     21  C   UNL     1      12.180  13.395  17.933  0.00  0.00    +0.000 C 
ATOM     22  C   UNL     1      10.858  13.176  17.142  0.00  0.00    +0.000 C 
BRANCH  20  23
ATOM     23  C   UNL     1      11.770  15.443  19.192  0.00  0.00    +0.000 C 
BRANCH  23  24
ATOM     24  C   UNL     1      11.630  16.140  20.563  0.00  0.00    +0.000 C 
BRANCH  24  25
ATOM     25  N   UNL     1      10.489  17.056  20.591  0.00  0.00    +0.000 NA
ATOM     26  H   UNL     1      10.233  17.306  19.637  0.00  0.00    +0.000 HD
ATOM     27  H   UNL     1      10.778  17.930  21.031  0.00  0.00    +0.000 HD
ENDBRANCH  24  25
ENDBRANCH  23  24
ENDBRANCH  20  23
ENDBRANCH  16  17
ENDBRANCH  15  16
ENDBRANCH   1  15
TORSDOF 9
ENDMDL
MODEL 7
REMARK VINA RESULT:      -6.6      3.888     10.072
REMARK  Name = 
REMARK  12 active torsions:
REMARK  status: ('A' for Active; 'I' for Inactive)
REMARK    1  A    between atoms: C_1  and  C_2
REMARK    2  A    between atoms: C_2  and  C_3
REMARK    3  A    between atoms: C_7  and  C_8
REMARK    4  A    between atoms: C_9  and  O_10
REMARK    5  A    between atoms: O_10  and  C_11
REMARK    6  A    between atoms: C_11  and  C_13
REMARK    7  A    between atoms: C_13  and  C_14
REMARK    8  A    between atoms: C_14  and  C_15
REMARK    9  A    between atoms: C_15  and  N_16
REMARK   10  A    between atoms: N_19  and  C_20
REMARK   11  A    between atoms: C_20  and  C_21
REMARK   12  A    between atoms: C_21  and  N_22
REMARK                            x       y       z     vdW  Elec       q    Type
REMARK                         _______ _______ _______ _____ _____    ______ ____
ROOT
ATOM      1  C   UNL     1       8.065   9.434  17.658  0.00  0.00    +0.000 C 
ENDROOT
BRANCH   1   2
ATOM      2  C   UNL     1       8.032   7.978  18.057  0.00  0.00    +0.000 C 
ATOM      3  O   UNL     1       8.658   7.477  18.982  0.00  0.00    +0.000 OA
BRANCH   2   4
ATOM      4  O   UNL     1       7.310   7.280  17.142  0.00  0.00    +0.000 OA
BRANCH   4  13
ATOM      5  C   UNL     1       3.636   3.857  16.645  0.00  0.00    +0.000 C 
ATOM      6  C   UNL     1       4.905   4.451  17.285  0.00  0.00    +0.000 C 
ATOM      7  C   UNL     1       4.908   3.971  18.753  0.00  0.00    +0.000 C 
ATOM      8  C   UNL     1       6.201   4.121  16.502  0.00  0.00    +0.000 C 
ATOM      9  C   UNL     1       6.012   4.856  15.151  0.00  0.00    +0.000 C 
ATOM     10  C   UNL     1       5.223   6.116  15.543  0.00  0.00    +0.000 C 
ATOM     11  C   UNL     1       5.126   5.987  17.084  0.00  0.00    +0.000 C 
ATOM     12  C   UNL     1       4.070   6.898  17.682  0.00  0.00    +0.000 C 
ATOM     13  C   UNL     1       6.554   6.192  17.683  0.00  0.00    +0.000 C 
ATOM     14  C   UNL     1       7.288   4.898  17.271  0.00  0.00    +0.000 C 
ENDBRANCH   4  13
ENDBRANCH   2   4
ENDBRANCH   1   2
BRANCH   1  15
ATOM     15  C   UNL     1       8.986  10.216  18.592  0.00  0.00    +0.000 C 
BRANCH  15  16
ATOM     16  C   UNL     1       9.956  11.158  17.870  0.00  0.00    +0.000 C 
BRANCH  16  17
ATOM     17  N   UNL     1      10.849  11.938  18.742  0.00  0.00    +0.000 NA
ATOM     18  C   UNL     1      11.883  12.688  17.999  0.00  0.00    +0.000 C 
ATOM     19  C   UNL     1      11.322  13.866  17.171  0.00  0.00    +0.000 C 
ATOM     20  N   UNL     1      10.593  14.870  17.972  0.00  0.00    +0.000 NA
ATOM     21  C   UNL     1       9.568  14.165  18.782  0.00  0.00    +0.000 C 
ATOM     22  C   UNL     1      10.068  12.908  19.549  0.00  0.00    +0.000 C 
BRANCH  20  23
ATOM     23  C   UNL     1      11.482  15.676  18.835  0.00  0.00    +0.000 C 
BRANCH  23  24
ATOM     24  C   UNL     1      10.730  16.542  19.869  0.00  0.00    +0.000 C 
BRANCH  24  25
ATOM     25  N   UNL     1      11.276  16.374  21.217  0.00  0.00    +0.000 NA
ATOM     26  H   UNL     1      11.400  15.382  21.410  0.00  0.00    +0.000 HD
ATOM     27  H   UNL     1      10.585  16.697  21.895  0.00  0.00    +0.000 HD
ENDBRANCH  24  25
ENDBRANCH  23  24
ENDBRANCH  20  23
ENDBRANCH  16  17
ENDBRANCH  15  16
ENDBRANCH   1  15
TORSDOF 9
ENDMDL
MODEL 8
REMARK VINA RESULT:      -6.6      1.201      2.306
REMARK  Name = 
REMARK  12 active torsions:
REMARK  status: ('A' for Active; 'I' for Inactive)
REMARK    1  A    between atoms: C_1  and  C_2
REMARK    2  A    between atoms: C_2  and  C_3
REMARK    3  A    between atoms: C_7  and  C_8
REMARK    4  A    between atoms: C_9  and  O_10
REMARK    5  A    between atoms: O_10  and  C_11
REMARK    6  A    between atoms: C_11  and  C_13
REMARK    7  A    between atoms: C_13  and  C_14
REMARK    8  A    between atoms: C_14  and  C_15
REMARK    9  A    between atoms: C_15  and  N_16
REMARK   10  A    between atoms: N_19  and  C_20
REMARK   11  A    between atoms: C_20  and  C_21
REMARK   12  A    between atoms: C_21  and  N_22
REMARK                            x       y       z     vdW  Elec       q    Type
REMARK                         _______ _______ _______ _____ _____    ______ ____
ROOT
ATOM      1  C   UNL     1       8.530   7.831  18.666  0.00  0.00    +0.000 C 
ENDROOT
BRANCH   1   2
ATOM      2  C   UNL     1       8.290   9.232  18.157  0.00  0.00    +0.000 C 
ATOM      3  O   UNL     1       7.674   9.527  17.142  0.00  0.00    +0.000 OA
BRANCH   2   4
ATOM      4  O   UNL     1       8.987  10.111  18.924  0.00  0.00    +0.000 OA
BRANCH   4  13
ATOM      5  C   UNL     1      10.438  14.904  18.306  0.00  0.00    +0.000 C 
ATOM      6  C   UNL     1      10.531  13.384  18.078  0.00  0.00    +0.000 C 
ATOM      7  C   UNL     1      11.170  13.200  16.684  0.00  0.00    +0.000 C 
ATOM      8  C   UNL     1      11.261  12.633  19.221  0.00  0.00    +0.000 C 
ATOM      9  C   UNL     1      10.332  12.832  20.445  0.00  0.00    +0.000 C 
ATOM     10  C   UNL     1       8.926  12.843  19.822  0.00  0.00    +0.000 C 
ATOM     11  C   UNL     1       9.219  12.567  18.326  0.00  0.00    +0.000 C 
ATOM     12  C   UNL     1       8.043  12.905  17.428  0.00  0.00    +0.000 C 
ATOM     13  C   UNL     1       9.720  11.094  18.187  0.00  0.00    +0.000 C 
ATOM     14  C   UNL     1      11.131  11.152  18.813  0.00  0.00    +0.000 C 
ENDBRANCH   4  13
ENDBRANCH   2   4
ENDBRANCH   1   2
BRANCH   1  15
ATOM     15  C   UNL     1       7.561   6.855  18.001  0.00  0.00    +0.000 C 
BRANCH  15  16
ATOM     16  C   UNL     1       6.914   5.859  18.969  0.00  0.00    +0.000 C 
BRANCH  16  17
ATOM     17  N   UNL     1       6.390   4.629  18.356  0.00  0.00    +0.000 NA
ATOM     18  C   UNL     1       5.355   3.962  19.174  0.00  0.00    +0.000 C 
ATOM     19  C   UNL     1       4.023   4.741  19.245  0.00  0.00    +0.000 C 
ATOM     20  N   UNL     1       3.399   4.989  17.929  0.00  0.00    +0.000 NA
ATOM     21  C   UNL     1       4.413   5.615  17.044  0.00  0.00    +0.000 C 
ATOM     22  C   UNL     1       5.806   4.922  17.023  0.00  0.00    +0.000 C 
BRANCH  20  23
ATOM     23  C   UNL     1       2.848   3.764  17.312  0.00  0.00    +0.000 C 
BRANCH  23  24
ATOM     24  C   UNL     1       1.782   3.055  18.176  0.00  0.00    +0.000 C 
BRANCH  24  25
ATOM     25  N   UNL     1       2.070   1.628  18.331  0.00  0.00    +0.000 NA
ATOM     26  H   UNL     1       2.018   1.379  19.318  0.00  0.00    +0.000 HD
ATOM     27  H   UNL     1       3.039   1.456  18.059  0.00  0.00    +0.000 HD
ENDBRANCH  24  25
ENDBRANCH  23  24
ENDBRANCH  20  23
ENDBRANCH  16  17
ENDBRANCH  15  16
ENDBRANCH   1  15
TORSDOF 9
ENDMDL
MODEL 9
REMARK VINA RESULT:      -6.5      3.542      9.826
REMARK  Name = 
REMARK  12 active torsions:
REMARK  status: ('A' for Active; 'I' for Inactive)
REMARK    1  A    between atoms: C_1  and  C_2
REMARK    2  A    between atoms: C_2  and  C_3
REMARK    3  A    between atoms: C_7  and  C_8
REMARK    4  A    between atoms: C_9  and  O_10
REMARK    5  A    between atoms: O_10  and  C_11
REMARK    6  A    between atoms: C_11  and  C_13
REMARK    7  A    between atoms: C_13  and  C_14
REMARK    8  A    between atoms: C_14  and  C_15
REMARK    9  A    between atoms: C_15  and  N_16
REMARK   10  A    between atoms: N_19  and  C_20
REMARK   11  A    between atoms: C_20  and  C_21
REMARK   12  A    between atoms: C_21  and  N_22
REMARK                            x       y       z     vdW  Elec       q    Type
REMARK                         _______ _______ _______ _____ _____    ______ ____
ROOT
ATOM      1  C   UNL     1       7.840   7.278  18.469  0.00  0.00    +0.000 C 
ENDROOT
BRANCH   1   2
ATOM      2  C   UNL     1       7.502   6.304  17.364  0.00  0.00    +0.000 C 
ATOM      3  O   UNL     1       7.646   6.506  16.166  0.00  0.00    +0.000 OA
BRANCH   2   4
ATOM      4  O   UNL     1       6.878   5.222  17.899  0.00  0.00    +0.000 OA
BRANCH   4  13
ATOM      5  C   UNL     1       1.842   4.939  17.794  0.00  0.00    +0.000 C 
ATOM      6  C   UNL     1       3.208   5.147  18.474  0.00  0.00    +0.000 C 
ATOM      7  C   UNL     1       2.951   6.089  19.670  0.00  0.00    +0.000 C 
ATOM      8  C   UNL     1       3.919   3.820  18.845  0.00  0.00    +0.000 C 
ATOM      9  C   UNL     1       4.213   3.163  17.473  0.00  0.00    +0.000 C 
ATOM     10  C   UNL     1       4.483   4.368  16.556  0.00  0.00    +0.000 C 
ATOM     11  C   UNL     1       4.390   5.564  17.536  0.00  0.00    +0.000 C 
ATOM     12  C   UNL     1       4.238   6.895  16.822  0.00  0.00    +0.000 C 
ATOM     13  C   UNL     1       5.613   5.500  18.505  0.00  0.00    +0.000 C 
ATOM     14  C   UNL     1       5.278   4.289  19.402  0.00  0.00    +0.000 C 
ENDBRANCH   4  13
ENDBRANCH   2   4
ENDBRANCH   1   2
BRANCH   1  15
ATOM     15  C   UNL     1       8.315   8.603  17.876  0.00  0.00    +0.000 C 
BRANCH  15  16
ATOM     16  C   UNL     1       8.498   9.720  18.909  0.00  0.00    +0.000 C 
BRANCH  16  17
ATOM     17  N   UNL     1       9.794  10.415  18.867  0.00  0.00    +0.000 NA
ATOM     18  C   UNL     1       9.929  11.330  17.714  0.00  0.00    +0.000 C 
ATOM     19  C   UNL     1       9.027  12.581  17.803  0.00  0.00    +0.000 C 
ATOM     20  N   UNL     1       9.262  13.408  19.005  0.00  0.00    +0.000 NA
ATOM     21  C   UNL     1       9.188  12.528  20.198  0.00  0.00    +0.000 C 
ATOM     22  C   UNL     1       9.999  11.204  20.107  0.00  0.00    +0.000 C 
BRANCH  20  23
ATOM     23  C   UNL     1      10.551  14.130  18.965  0.00  0.00    +0.000 C 
BRANCH  23  24
ATOM     24  C   UNL     1      10.790  14.906  17.651  0.00  0.00    +0.000 C 
BRANCH  24  25
ATOM     25  N   UNL     1      10.206  16.248  17.700  0.00  0.00    +0.000 NA
ATOM     26  H   UNL     1      10.016  16.498  18.669  0.00  0.00    +0.000 HD
ATOM     27  H   UNL     1       9.294  16.227  17.242  0.00  0.00    +0.000 HD
ENDBRANCH  24  25
ENDBRANCH  23  24
ENDBRANCH  20  23
ENDBRANCH  16  17
ENDBRANCH  15  16
ENDBRANCH   1  15
TORSDOF 9
ENDMDL
