MODEL 1
REMARK VINA RESULT:      -7.6      0.000      0.000
REMARK  Name = 
REMARK  5 active torsions:
REMARK  status: ('A' for Active; 'I' for Inactive)
REMARK    1  A    between atoms: C_1  and  C_2
REMARK    2  A    between atoms: C_2  and  O_3
REMARK    3  A    between atoms: O_3  and  C_4
REMARK    4  A    between atoms: C_4  and  C_6
REMARK    5  A    between atoms: C_12  and  C_13
REMARK                            x       y       z     vdW  Elec       q    Type
REMARK                         _______ _______ _______ _____ _____    ______ ____
ROOT
ATOM      1  C   UNL     1       3.111   4.374  18.573  0.00  0.00    +0.000 C 
ATOM      2  C   UNL     1       4.273   4.951  17.586  0.00  0.00    +0.000 C 
ATOM      3  O   UNL     1       4.662   4.659  16.467  0.00  0.00    +0.000 OA
ATOM      4  C   UNL     1       5.084   5.957  18.414  0.00  0.00    +0.000 C 
ATOM      5  O   UNL     1       6.080   6.539  18.045  0.00  0.00    +0.000 OA
ATOM      6  N   UNL     1       4.415   6.147  19.594  0.00  0.00    +0.000 N 
ATOM      7  C   UNL     1       2.979   5.860  19.342  0.00  0.00    +0.000 C 
ATOM      8  C   UNL     1       2.141   5.122  20.387  0.00  0.00    +0.000 C 
ATOM      9  O   UNL     1       2.799   4.262  21.335  0.00  0.00    +0.000 OA
ATOM     10  C   UNL     1       1.928   3.256  21.854  0.00  0.00    +0.000 C 
ATOM     11  C   UNL     1       1.456   2.382  20.699  0.00  0.00    +0.000 C 
ATOM     12  C   UNL     1       0.762   3.196  19.600  0.00  0.00    +0.000 C 
ATOM     13  C   UNL     1       1.572   4.431  19.141  0.00  0.00    +0.000 C 
ATOM     14  H   UNL     1       4.726   6.965  20.110  0.00  0.00    +0.000 HD
ENDROOT
BRANCH   7  15
ATOM     15  C   UNL     1       2.319   7.326  18.994  0.00  0.00    +0.000 A 
ATOM     16  C   UNL     1       2.445   8.082  17.830  0.00  0.00    +0.000 A 
ATOM     17  C   UNL     1       1.968   9.405  17.767  0.00  0.00    +0.000 A 
ATOM     18  C   UNL     1       1.326  10.019  18.854  0.00  0.00    +0.000 A 
ATOM     19  C   UNL     1       1.158   9.290  20.009  0.00  0.00    +0.000 A 
ATOM     20  C   UNL     1       1.636   7.976  20.070  0.00  0.00    +0.000 A 
ENDBRANCH   7  15
BRANCH   1  21
ATOM     21  C   UNL     1       2.796   3.217  17.550  0.00  0.00    +0.000 C 
ATOM     22  O   UNL     1       1.820   3.087  16.820  0.00  0.00    +0.000 OA
BRANCH  21  23
ATOM     23  O   UNL     1       3.797   2.279  17.641  0.00  0.00    +0.000 OA
BRANCH  23  25
ATOM     24  C   UNL     1       4.696   1.631  19.800  0.00  0.00    +0.000 C 
ATOM     25  C   UNL     1       3.738   1.283  18.678  0.00  0.00    +0.000 C 
ENDBRANCH  23  25
ENDBRANCH  21  23
ENDBRANCH   1  21
TORSDOF 4
ENDMDL
MODEL 2
REMARK VINA RESULT:      -6.9      2.303      5.131
REMARK  Name = 
REMARK  5 active torsions:
REMARK  status: ('A' for Active; 'I' for Inactive)
REMARK    1  A    between atoms: C_1  and  C_2
REMARK    2  A    between atoms: C_2  and  O_3
REMARK    3  A    between atoms: O_3  and  C_4
REMARK    4  A    between atoms: C_4  and  C_6
REMARK    5  A    between atoms: C_12  and  C_13
REMARK                            x       y       z     vdW  Elec       q    Type
REMARK                         _______ _______ _______ _____ _____    ______ ____
ROOT
ATOM      1  C   UNL     1       4.857   6.128  17.774  0.00  0.00    +0.000 C 
ATOM      2  C   UNL     1       3.561   7.102  17.603  0.00  0.00    +0.000 C 
ATOM      3  O   UNL     1       3.108   7.763  16.684  0.00  0.00    +0.000 OA
ATOM      4  C   UNL     1       2.961   7.273  19.005  0.00  0.00    +0.000 C 
ATOM      5  O   UNL     1       2.028   7.991  19.294  0.00  0.00    +0.000 OA
ATOM      6  N   UNL     1       3.605   6.394  19.835  0.00  0.00    +0.000 N 
ATOM      7  C   UNL     1       4.093   5.268  18.996  0.00  0.00    +0.000 C 
ATOM      8  C   UNL     1       5.462   4.641  19.262  0.00  0.00    +0.000 C 
ATOM      9  O   UNL     1       6.475   5.420  19.923  0.00  0.00    +0.000 OA
ATOM     10  C   UNL     1       7.795   4.964  19.625  0.00  0.00    +0.000 C 
ATOM     11  C   UNL     1       8.026   5.098  18.126  0.00  0.00    +0.000 C 
ATOM     12  C   UNL     1       6.981   4.332  17.305  0.00  0.00    +0.000 C 
ATOM     13  C   UNL     1       5.524   4.629  17.729  0.00  0.00    +0.000 C 
ATOM     14  H   UNL     1       3.129   6.248  20.719  0.00  0.00    +0.000 HD
ENDROOT
BRANCH   7  15
ATOM     15  C   UNL     1       2.904   4.136  19.090  0.00  0.00    +0.000 A 
ATOM     16  C   UNL     1       2.222   3.502  18.053  0.00  0.00    +0.000 A 
ATOM     17  C   UNL     1       1.099   2.693  18.308  0.00  0.00    +0.000 A 
ATOM     18  C   UNL     1       0.624   2.466  19.608  0.00  0.00    +0.000 A 
ATOM     19  C   UNL     1       1.292   3.053  20.660  0.00  0.00    +0.000 A 
ATOM     20  C   UNL     1       2.407   3.858  20.402  0.00  0.00    +0.000 A 
ENDBRANCH   7  15
BRANCH   1  21
ATOM     21  C   UNL     1       5.344   6.497  16.320  0.00  0.00    +0.000 C 
ATOM     22  O   UNL     1       4.998   6.007  15.251  0.00  0.00    +0.000 OA
BRANCH  21  23
ATOM     23  O   UNL     1       6.321   7.458  16.426  0.00  0.00    +0.000 OA
BRANCH  23  25
ATOM     24  C   UNL     1       7.978   8.685  17.705  0.00  0.00    +0.000 C 
ATOM     25  C   UNL     1       6.609   8.033  17.713  0.00  0.00    +0.000 C 
ENDBRANCH  23  25
ENDBRANCH  21  23
ENDBRANCH   1  21
TORSDOF 4
ENDMDL
MODEL 3
REMARK VINA RESULT:      -6.8      2.214      5.001
REMARK  Name = 
REMARK  5 active torsions:
REMARK  status: ('A' for Active; 'I' for Inactive)
REMARK    1  A    between atoms: C_1  and  C_2
REMARK    2  A    between atoms: C_2  and  O_3
REMARK    3  A    between atoms: O_3  and  C_4
REMARK    4  A    between atoms: C_4  and  C_6
REMARK    5  A    between atoms: C_12  and  C_13
REMARK                            x       y       z     vdW  Elec       q    Type
REMARK                         _______ _______ _______ _____ _____    ______ ____
ROOT
ATOM      1  C   UNL     1       4.874   6.132  17.919  0.00  0.00    +0.000 C 
ATOM      2  C   UNL     1       3.535   7.037  17.702  0.00  0.00    +0.000 C 
ATOM      3  O   UNL     1       3.081   7.675  16.766  0.00  0.00    +0.000 OA
ATOM      4  C   UNL     1       2.875   7.173  19.081  0.00  0.00    +0.000 C 
ATOM      5  O   UNL     1       1.896   7.839  19.335  0.00  0.00    +0.000 OA
ATOM      6  N   UNL     1       3.534   6.326  19.933  0.00  0.00    +0.000 N 
ATOM      7  C   UNL     1       4.112   5.230  19.111  0.00  0.00    +0.000 C 
ATOM      8  C   UNL     1       5.502   4.675  19.427  0.00  0.00    +0.000 C 
ATOM      9  O   UNL     1       6.447   5.505  20.126  0.00  0.00    +0.000 OA
ATOM     10  C   UNL     1       7.799   5.120  19.877  0.00  0.00    +0.000 C 
ATOM     11  C   UNL     1       8.078   5.270  18.386  0.00  0.00    +0.000 C 
ATOM     12  C   UNL     1       7.105   4.452  17.528  0.00  0.00    +0.000 C 
ATOM     13  C   UNL     1       5.619   4.671  17.898  0.00  0.00    +0.000 C 
ATOM     14  H   UNL     1       3.034   6.153  20.799  0.00  0.00    +0.000 HD
ENDROOT
BRANCH   7  15
ATOM     15  C   UNL     1       2.981   4.036  19.161  0.00  0.00    +0.000 A 
ATOM     16  C   UNL     1       2.354   3.387  18.099  0.00  0.00    +0.000 A 
ATOM     17  C   UNL     1       1.270   2.517  18.316  0.00  0.00    +0.000 A 
ATOM     18  C   UNL     1       0.781   2.242  19.602  0.00  0.00    +0.000 A 
ATOM     19  C   UNL     1       1.397   2.842  20.677  0.00  0.00    +0.000 A 
ATOM     20  C   UNL     1       2.474   3.708  20.457  0.00  0.00    +0.000 A 
ENDBRANCH   7  15
BRANCH   1  21
ATOM     21  C   UNL     1       5.394   6.530  16.485  0.00  0.00    +0.000 C 
ATOM     22  O   UNL     1       6.031   7.523  16.151  0.00  0.00    +0.000 OA
BRANCH  21  23
ATOM     23  O   UNL     1       4.951   5.586  15.590  0.00  0.00    +0.000 OA
BRANCH  23  25
ATOM     24  C   UNL     1       5.894   3.869  14.157  0.00  0.00    +0.000 C 
ATOM     25  C   UNL     1       5.694   5.356  14.380  0.00  0.00    +0.000 C 
ENDBRANCH  23  25
ENDBRANCH  21  23
ENDBRANCH   1  21
TORSDOF 4
ENDMDL
MODEL 4
REMARK VINA RESULT:      -6.6      2.463      4.945
REMARK  Name = 
REMARK  5 active torsions:
REMARK  status: ('A' for Active; 'I' for Inactive)
REMARK    1  A    between atoms: C_1  and  C_2
REMARK    2  A    between atoms: C_2  and  O_3
REMARK    3  A    between atoms: O_3  and  C_4
REMARK    4  A    between atoms: C_4  and  C_6
REMARK    5  A    between atoms: C_12  and  C_13
REMARK                            x       y       z     vdW  Elec       q    Type
REMARK                         _______ _______ _______ _____ _____    ______ ____
ROOT
ATOM      1  C   UNL     1       4.439   5.329  18.645  0.00  0.00    +0.000 C 
ATOM      2  C   UNL     1       5.709   4.511  19.257  0.00  0.00    +0.000 C 
ATOM      3  O   UNL     1       5.825   3.540  19.987  0.00  0.00    +0.000 OA
ATOM      4  C   UNL     1       6.961   5.326  18.903  0.00  0.00    +0.000 C 
ATOM      5  O   UNL     1       8.093   5.074  19.254  0.00  0.00    +0.000 OA
ATOM      6  N   UNL     1       6.572   6.317  18.042  0.00  0.00    +0.000 N 
ATOM      7  C   UNL     1       5.355   5.839  17.335  0.00  0.00    +0.000 C 
ATOM      8  C   UNL     1       4.202   6.799  17.041  0.00  0.00    +0.000 C 
ATOM      9  O   UNL     1       4.034   7.968  17.863  0.00  0.00    +0.000 OA
ATOM     10  C   UNL     1       2.690   8.450  17.858  0.00  0.00    +0.000 C 
ATOM     11  C   UNL     1       1.785   7.363  18.425  0.00  0.00    +0.000 C 
ATOM     12  C   UNL     1       1.900   6.047  17.647  0.00  0.00    +0.000 C 
ATOM     13  C   UNL     1       3.359   5.579  17.435  0.00  0.00    +0.000 C 
ATOM     14  H   UNL     1       7.346   6.759  17.556  0.00  0.00    +0.000 HD
ENDROOT
BRANCH   7  15
ATOM     15  C   UNL     1       5.922   5.165  15.945  0.00  0.00    +0.000 A 
ATOM     16  C   UNL     1       7.092   5.462  15.248  0.00  0.00    +0.000 A 
ATOM     17  C   UNL     1       7.336   4.921  13.972  0.00  0.00    +0.000 A 
ATOM     18  C   UNL     1       6.434   4.045  13.349  0.00  0.00    +0.000 A 
ATOM     19  C   UNL     1       5.282   3.705  14.023  0.00  0.00    +0.000 A 
ATOM     20  C   UNL     1       5.042   4.247  15.290  0.00  0.00    +0.000 A 
ENDBRANCH   7  15
BRANCH   1  21
ATOM     21  C   UNL     1       3.443   4.441  19.486  0.00  0.00    +0.000 C 
ATOM     22  O   UNL     1       2.977   4.660  20.597  0.00  0.00    +0.000 OA
BRANCH  21  23
ATOM     23  O   UNL     1       3.205   3.284  18.785  0.00  0.00    +0.000 OA
BRANCH  23  25
ATOM     24  C   UNL     1       0.922   2.460  18.765  0.00  0.00    +0.000 C 
ATOM     25  C   UNL     1       2.317   2.295  19.336  0.00  0.00    +0.000 C 
ENDBRANCH  23  25
ENDBRANCH  21  23
ENDBRANCH   1  21
TORSDOF 4
ENDMDL
MODEL 5
REMARK VINA RESULT:      -6.6      2.450      4.962
REMARK  Name = 
REMARK  5 active torsions:
REMARK  status: ('A' for Active; 'I' for Inactive)
REMARK    1  A    between atoms: C_1  and  C_2
REMARK    2  A    between atoms: C_2  and  O_3
REMARK    3  A    between atoms: O_3  and  C_4
REMARK    4  A    between atoms: C_4  and  C_6
REMARK    5  A    between atoms: C_12  and  C_13
REMARK                            x       y       z     vdW  Elec       q    Type
REMARK                         _______ _______ _______ _____ _____    ______ ____
ROOT
ATOM      1  C   UNL     1       4.275   5.351  18.583  0.00  0.00    +0.000 C 
ATOM      2  C   UNL     1       5.536   4.437  19.066  0.00  0.00    +0.000 C 
ATOM      3  O   UNL     1       5.647   3.433  19.752  0.00  0.00    +0.000 OA
ATOM      4  C   UNL     1       6.804   5.191  18.647  0.00  0.00    +0.000 C 
ATOM      5  O   UNL     1       7.942   4.861  18.901  0.00  0.00    +0.000 OA
ATOM      6  N   UNL     1       6.413   6.236  17.852  0.00  0.00    +0.000 N 
ATOM      7  C   UNL     1       5.120   5.858  17.224  0.00  0.00    +0.000 C 
ATOM      8  C   UNL     1       4.009   6.894  17.054  0.00  0.00    +0.000 C 
ATOM      9  O   UNL     1       3.974   8.037  17.927  0.00  0.00    +0.000 OA
ATOM     10  C   UNL     1       2.665   8.596  18.042  0.00  0.00    +0.000 C 
ATOM     11  C   UNL     1       1.741   7.542  18.638  0.00  0.00    +0.000 C 
ATOM     12  C   UNL     1       1.718   6.253  17.807  0.00  0.00    +0.000 C 
ATOM     13  C   UNL     1       3.126   5.710  17.469  0.00  0.00    +0.000 C 
ATOM     14  H   UNL     1       7.174   6.652  17.325  0.00  0.00    +0.000 HD
ENDROOT
BRANCH   7  15
ATOM     15  C   UNL     1       5.541   5.207  15.773  0.00  0.00    +0.000 A 
ATOM     16  C   UNL     1       4.923   4.173  15.072  0.00  0.00    +0.000 A 
ATOM     17  C   UNL     1       5.523   3.610  13.929  0.00  0.00    +0.000 A 
ATOM     18  C   UNL     1       6.750   4.070  13.428  0.00  0.00    +0.000 A 
ATOM     19  C   UNL     1       7.373   5.111  14.079  0.00  0.00    +0.000 A 
ATOM     20  C   UNL     1       6.775   5.667  15.216  0.00  0.00    +0.000 A 
ENDBRANCH   7  15
BRANCH   1  21
ATOM     21  C   UNL     1       3.293   4.490  19.466  0.00  0.00    +0.000 C 
ATOM     22  O   UNL     1       2.905   4.705  20.608  0.00  0.00    +0.000 OA
BRANCH  21  23
ATOM     23  O   UNL     1       2.961   3.359  18.759  0.00  0.00    +0.000 OA
BRANCH  23  25
ATOM     24  C   UNL     1       0.698   2.487  18.854  0.00  0.00    +0.000 C 
ATOM     25  C   UNL     1       2.118   2.366  19.371  0.00  0.00    +0.000 C 
ENDBRANCH  23  25
ENDBRANCH  21  23
ENDBRANCH   1  21
TORSDOF 4
ENDMDL
MODEL 6
REMARK VINA RESULT:      -6.3      5.327      8.132
REMARK  Name = 
REMARK  5 active torsions:
REMARK  status: ('A' for Active; 'I' for Inactive)
REMARK    1  A    between atoms: C_1  and  C_2
REMARK    2  A    between atoms: C_2  and  O_3
REMARK    3  A    between atoms: O_3  and  C_4
REMARK    4  A    between atoms: C_4  and  C_6
REMARK    5  A    between atoms: C_12  and  C_13
REMARK                            x       y       z     vdW  Elec       q    Type
REMARK                         _______ _______ _______ _____ _____    ______ ____
ROOT
ATOM      1  C   UNL     1      -0.696  11.087  20.138  0.00  0.00    +0.000 C 
ATOM      2  C   UNL     1      -0.002  11.411  21.577  0.00  0.00    +0.000 C 
ATOM      3  O   UNL     1       0.745  10.796  22.320  0.00  0.00    +0.000 OA
ATOM      4  C   UNL     1      -0.628  12.722  22.074  0.00  0.00    +0.000 C 
ATOM      5  O   UNL     1      -0.418  13.245  23.147  0.00  0.00    +0.000 OA
ATOM      6  N   UNL     1      -1.375  13.232  21.046  0.00  0.00    +0.000 N 
ATOM      7  C   UNL     1      -0.792  12.723  19.777  0.00  0.00    +0.000 C 
ATOM      8  C   UNL     1      -1.700  12.304  18.621  0.00  0.00    +0.000 C 
ATOM      9  O   UNL     1      -3.052  11.898  18.901  0.00  0.00    +0.000 OA
ATOM     10  C   UNL     1      -3.586  11.044  17.888  0.00  0.00    +0.000 C 
ATOM     11  C   UNL     1      -2.737   9.781  17.824  0.00  0.00    +0.000 C 
ATOM     12  C   UNL     1      -1.257  10.088  17.560  0.00  0.00    +0.000 C 
ATOM     13  C   UNL     1      -0.674  11.170  18.500  0.00  0.00    +0.000 C 
ATOM     14  H   UNL     1      -1.632  14.206  21.177  0.00  0.00    +0.000 HD
ENDROOT
BRANCH   7  15
ATOM     15  C   UNL     1       0.254  13.900  19.302  0.00  0.00    +0.000 A 
ATOM     16  C   UNL     1       1.647  13.879  19.305  0.00  0.00    +0.000 A 
ATOM     17  C   UNL     1       2.393  15.044  19.041  0.00  0.00    +0.000 A 
ATOM     18  C   UNL     1       1.780  16.269  18.741  0.00  0.00    +0.000 A 
ATOM     19  C   UNL     1       0.405  16.319  18.698  0.00  0.00    +0.000 A 
ATOM     20  C   UNL     1      -0.334  15.160  18.964  0.00  0.00    +0.000 A 
ENDBRANCH   7  15
BRANCH   1  21
ATOM     21  C   UNL     1      -0.116   9.621  20.171  0.00  0.00    +0.000 C 
ATOM     22  O   UNL     1      -0.589   8.624  20.704  0.00  0.00    +0.000 OA
BRANCH  21  23
ATOM     23  O   UNL     1       1.103   9.628  19.538  0.00  0.00    +0.000 OA
BRANCH  23  25
ATOM     24  C   UNL     1       2.190   8.319  17.807  0.00  0.00    +0.000 C 
ATOM     25  C   UNL     1       1.763   8.380  19.261  0.00  0.00    +0.000 C 
ENDBRANCH  23  25
ENDBRANCH  21  23
ENDBRANCH   1  21
TORSDOF 4
ENDMDL
MODEL 7
REMARK VINA RESULT:      -6.3      7.182      9.604
REMARK  Name = 
REMARK  5 active torsions:
REMARK  status: ('A' for Active; 'I' for Inactive)
REMARK    1  A    between atoms: C_1  and  C_2
REMARK    2  A    between atoms: C_2  and  O_3
REMARK    3  A    between atoms: O_3  and  C_4
REMARK    4  A    between atoms: C_4  and  C_6
REMARK    5  A    between atoms: C_12  and  C_13
REMARK                            x       y       z     vdW  Elec       q    Type
REMARK                         _______ _______ _______ _____ _____    ______ ____
ROOT
ATOM      1  C   UNL     1      -1.506  12.896  21.255  0.00  0.00    +0.000 C 
ATOM      2  C   UNL     1       0.009  12.676  20.696  0.00  0.00    +0.000 C 
ATOM      3  O   UNL     1       1.035  12.219  21.173  0.00  0.00    +0.000 OA
ATOM      4  C   UNL     1       0.076  13.381  19.335  0.00  0.00    +0.000 C 
ATOM      5  O   UNL     1       1.065  13.500  18.646  0.00  0.00    +0.000 OA
ATOM      6  N   UNL     1      -1.201  13.753  19.006  0.00  0.00    +0.000 N 
ATOM      7  C   UNL     1      -2.128  12.820  19.698  0.00  0.00    +0.000 C 
ATOM      8  C   UNL     1      -3.431  13.335  20.311  0.00  0.00    +0.000 C 
ATOM      9  O   UNL     1      -3.530  14.719  20.691  0.00  0.00    +0.000 OA
ATOM     10  C   UNL     1      -4.514  14.938  21.702  0.00  0.00    +0.000 C 
ATOM     11  C   UNL     1      -4.112  14.154  22.945  0.00  0.00    +0.000 C 
ATOM     12  C   UNL     1      -3.942  12.657  22.657  0.00  0.00    +0.000 C 
ATOM     13  C   UNL     1      -3.047  12.361  21.431  0.00  0.00    +0.000 C 
ATOM     14  H   UNL     1      -1.311  14.006  18.029  0.00  0.00    +0.000 HD
ENDROOT
BRANCH   7  15
ATOM     15  C   UNL     1      -2.428  11.639  18.593  0.00  0.00    +0.000 A 
ATOM     16  C   UNL     1      -1.577  10.632  18.143  0.00  0.00    +0.000 A 
ATOM     17  C   UNL     1      -1.930   9.815  17.053  0.00  0.00    +0.000 A 
ATOM     18  C   UNL     1      -3.154   9.955  16.382  0.00  0.00    +0.000 A 
ATOM     19  C   UNL     1      -4.032  10.920  16.820  0.00  0.00    +0.000 A 
ATOM     20  C   UNL     1      -3.678  11.732  17.902  0.00  0.00    +0.000 A 
ENDBRANCH   7  15
BRANCH   1  21
ATOM     21  C   UNL     1      -1.066  12.404  22.687  0.00  0.00    +0.000 C 
ATOM     22  O   UNL     1      -0.445  13.017  23.548  0.00  0.00    +0.000 OA
BRANCH  21  23
ATOM     23  O   UNL     1      -1.439  11.088  22.822  0.00  0.00    +0.000 OA
BRANCH  23  25
ATOM     24  C   UNL     1      -0.339   9.010  22.223  0.00  0.00    +0.000 C 
ATOM     25  C   UNL     1      -0.465  10.119  23.249  0.00  0.00    +0.000 C 
ENDBRANCH  23  25
ENDBRANCH  21  23
ENDBRANCH   1  21
TORSDOF 4
ENDMDL
MODEL 8
REMARK VINA RESULT:      -6.2      7.006      9.886
REMARK  Name = 
REMARK  5 active torsions:
REMARK  status: ('A' for Active; 'I' for Inactive)
REMARK    1  A    between atoms: C_1  and  C_2
REMARK    2  A    between atoms: C_2  and  O_3
REMARK    3  A    between atoms: O_3  and  C_4
REMARK    4  A    between atoms: C_4  and  C_6
REMARK    5  A    between atoms: C_12  and  C_13
REMARK                            x       y       z     vdW  Elec       q    Type
REMARK                         _______ _______ _______ _____ _____    ______ ____
ROOT
ATOM      1  C   UNL     1       0.433  12.862  20.746  0.00  0.00    +0.000 C 
ATOM      2  C   UNL     1      -0.235  11.915  21.893  0.00  0.00    +0.000 C 
ATOM      3  O   UNL     1      -0.671  12.116  23.015  0.00  0.00    +0.000 OA
ATOM      4  C   UNL     1      -0.074  10.468  21.409  0.00  0.00    +0.000 C 
ATOM      5  O   UNL     1      -0.381   9.475  22.031  0.00  0.00    +0.000 OA
ATOM      6  N   UNL     1       0.380  10.518  20.118  0.00  0.00    +0.000 N 
ATOM      7  C   UNL     1      -0.071  11.811  19.538  0.00  0.00    +0.000 C 
ATOM      8  C   UNL     1       0.849  12.608  18.612  0.00  0.00    +0.000 C 
ATOM      9  O   UNL     1       2.273  12.422  18.706  0.00  0.00    +0.000 OA
ATOM     10  C   UNL     1       3.003  13.553  18.229  0.00  0.00    +0.000 C 
ATOM     11  C   UNL     1       2.644  14.757  19.090  0.00  0.00    +0.000 C 
ATOM     12  C   UNL     1       1.136  15.039  19.097  0.00  0.00    +0.000 C 
ATOM     13  C   UNL     1       0.276  13.791  19.403  0.00  0.00    +0.000 C 
ATOM     14  H   UNL     1       0.291   9.637  19.622  0.00  0.00    +0.000 HD
ENDROOT
BRANCH   7  15
ATOM     15  C   UNL     1      -1.490  11.454  18.787  0.00  0.00    +0.000 A 
ATOM     16  C   UNL     1      -2.756  11.990  19.018  0.00  0.00    +0.000 A 
ATOM     17  C   UNL     1      -3.901  11.437  18.414  0.00  0.00    +0.000 A 
ATOM     18  C   UNL     1      -3.827  10.343  17.539  0.00  0.00    +0.000 A 
ATOM     19  C   UNL     1      -2.589   9.808  17.264  0.00  0.00    +0.000 A 
ATOM     20  C   UNL     1      -1.453  10.359  17.868  0.00  0.00    +0.000 A 
ENDBRANCH   7  15
BRANCH   1  21
ATOM     21  C   UNL     1       0.402  14.097  21.726  0.00  0.00    +0.000 C 
ATOM     22  O   UNL     1       1.294  14.516  22.455  0.00  0.00    +0.000 OA
BRANCH  21  23
ATOM     23  O   UNL     1      -0.861  14.635  21.698  0.00  0.00    +0.000 OA
BRANCH  23  25
ATOM     24  C   UNL     1      -1.047  17.040  21.426  0.00  0.00    +0.000 C 
ATOM     25  C   UNL     1      -1.118  15.871  22.389  0.00  0.00    +0.000 C 
ENDBRANCH  23  25
ENDBRANCH  21  23
ENDBRANCH   1  21
TORSDOF 4
ENDMDL
MODEL 9
REMARK VINA RESULT:      -6.2      6.630      9.524
REMARK  Name = 
REMARK  5 active torsions:
REMARK  status: ('A' for Active; 'I' for Inactive)
REMARK    1  A    between atoms: C_1  and  C_2
REMARK    2  A    between atoms: C_2  and  O_3
REMARK    3  A    between atoms: O_3  and  C_4
REMARK    4  A    between atoms: C_4  and  C_6
REMARK    5  A    between atoms: C_12  and  C_13
REMARK                            x       y       z     vdW  Elec       q    Type
REMARK                         _______ _______ _______ _____ _____    ______ ____
ROOT
ATOM      1  C   UNL     1       0.231  12.449  20.622  0.00  0.00    +0.000 C 
ATOM      2  C   UNL     1      -0.409  11.403  21.696  0.00  0.00    +0.000 C 
ATOM      3  O   UNL     1      -0.932  11.521  22.792  0.00  0.00    +0.000 OA
ATOM      4  C   UNL     1      -0.073   9.996  21.183  0.00  0.00    +0.000 C 
ATOM      5  O   UNL     1      -0.318   8.956  21.755  0.00  0.00    +0.000 OA
ATOM      6  N   UNL     1       0.453  10.135  19.926  0.00  0.00    +0.000 N 
ATOM      7  C   UNL     1      -0.088  11.396  19.355  0.00  0.00    +0.000 C 
ATOM      8  C   UNL     1       0.803  12.311  18.513  0.00  0.00    +0.000 C 
ATOM      9  O   UNL     1       2.229  12.263  18.696  0.00  0.00    +0.000 OA
ATOM     10  C   UNL     1       2.870  13.476  18.299  0.00  0.00    +0.000 C 
ATOM     11  C   UNL     1       2.339  14.609  19.168  0.00  0.00    +0.000 C 
ATOM     12  C   UNL     1       0.814  14.740  19.084  0.00  0.00    +0.000 C 
ATOM     13  C   UNL     1       0.065  13.404  19.298  0.00  0.00    +0.000 C 
ATOM     14  H   UNL     1       0.483   9.267  19.401  0.00  0.00    +0.000 HD
ENDROOT
BRANCH   7  15
ATOM     15  C   UNL     1      -1.415  10.927  18.502  0.00  0.00    +0.000 A 
ATOM     16  C   UNL     1      -1.492  10.037  17.432  0.00  0.00    +0.000 A 
ATOM     17  C   UNL     1      -2.680   9.890  16.693  0.00  0.00    +0.000 A 
ATOM     18  C   UNL     1      -3.845  10.606  17.004  0.00  0.00    +0.000 A 
ATOM     19  C   UNL     1      -3.814  11.472  18.074  0.00  0.00    +0.000 A 
ATOM     20  C   UNL     1      -2.630  11.618  18.806  0.00  0.00    +0.000 A 
ENDBRANCH   7  15
BRANCH   1  21
ATOM     21  C   UNL     1       0.015  13.641  21.631  0.00  0.00    +0.000 C 
ATOM     22  O   UNL     1       0.809  14.112  22.437  0.00  0.00    +0.000 OA
BRANCH  21  23
ATOM     23  O   UNL     1      -1.288  14.063  21.525  0.00  0.00    +0.000 OA
BRANCH  23  25
ATOM     24  C   UNL     1      -3.060  14.448  23.137  0.00  0.00    +0.000 C 
ATOM     25  C   UNL     1      -1.807  15.000  22.485  0.00  0.00    +0.000 C 
ENDBRANCH  23  25
ENDBRANCH  21  23
ENDBRANCH   1  21
TORSDOF 4
ENDMDL
