MODEL 1
REMARK VINA RESULT:      -7.1      0.000      0.000
REMARK  Name = 
REMARK  7 active torsions:
REMARK  status: ('A' for Active; 'I' for Inactive)
REMARK    1  A    between atoms: O_1  and  C_2
REMARK    2  A    between atoms: C_2  and  C_3
REMARK    3  A    between atoms: C_3  and  N_4
REMARK    4  A    between atoms: C_8  and  C_9
REMARK    5  A    between atoms: C_15  and  N_16
REMARK    6  A    between atoms: N_16  and  C_17
REMARK    7  A    between atoms: C_20  and  O_21
REMARK                            x       y       z     vdW  Elec       q    Type
REMARK                         _______ _______ _______ _____ _____    ______ ____
ROOT
ATOM      1  N   UNL     1       6.557   6.169  15.869  0.00  0.00    +0.000 N 
ATOM      2  C   UNL     1       5.691   5.690  16.841  0.00  0.00    +0.000 A 
ATOM      3  N   UNL     1       6.035   4.597  17.520  0.00  0.00    +0.000 NA
ATOM      4  C   UNL     1       5.098   4.082  18.326  0.00  0.00    +0.000 A 
ATOM      5  C   UNL     1       3.826   4.590  18.509  0.00  0.00    +0.000 A 
ATOM      6  C   UNL     1       3.603   5.801  17.847  0.00  0.00    +0.000 A 
ATOM      7  N   UNL     1       4.516   6.316  16.984  0.00  0.00    +0.000 NA
ATOM      8  H   UNL     1       5.977   6.671  15.201  0.00  0.00    +0.000 HD
ENDROOT
BRANCH   5   9
ATOM      9  C   UNL     1       2.895   3.883  19.407  0.00  0.00    +0.000 A 
ATOM     10  C   UNL     1       3.170   3.731  20.775  0.00  0.00    +0.000 A 
ATOM     11  C   UNL     1       2.185   3.248  21.629  0.00  0.00    +0.000 A 
ATOM     12  C   UNL     1       0.957   2.885  21.101  0.00  0.00    +0.000 A 
ATOM     13  C   UNL     1       0.777   3.002  19.733  0.00  0.00    +0.000 A 
ATOM     14  N   UNL     1       1.708   3.492  18.878  0.00  0.00    +0.000 NA
ENDBRANCH   5   9
BRANCH   6  15
ATOM     15  N   UNL     1       2.367   6.472  17.987  0.00  0.00    +0.000 N 
ATOM     16  H   UNL     1       1.633   5.773  18.143  0.00  0.00    +0.000 HD
BRANCH  15  17
ATOM     17  C   UNL     1       2.311   7.592  18.938  0.00  0.00    +0.000 C 
ATOM     18  C   UNL     1       1.504   8.739  18.299  0.00  0.00    +0.000 C 
ATOM     19  C   UNL     1       1.447   9.955  19.224  0.00  0.00    +0.000 C 
ATOM     20  C   UNL     1       0.860   9.604  20.589  0.00  0.00    +0.000 C 
ATOM     21  C   UNL     1       1.544   8.391  21.219  0.00  0.00    +0.000 C 
ATOM     22  C   UNL     1       1.629   7.200  20.262  0.00  0.00    +0.000 C 
BRANCH  20  23
ATOM     23  O   UNL     1       0.978  10.726  21.460  0.00  0.00    +0.000 OA
ATOM     24  H   UNL     1       0.296  10.644  22.145  0.00  0.00    +0.000 HD
ENDBRANCH  20  23
ENDBRANCH  15  17
ENDBRANCH   6  15
BRANCH   1  25
ATOM     25  C   UNL     1       7.402   5.146  15.247  0.00  0.00    +0.000 C 
BRANCH  25  26
ATOM     26  C   UNL     1       6.832   4.650  13.909  0.00  0.00    +0.000 C 
BRANCH  26  27
ATOM     27  O   UNL     1       6.275   3.345  14.071  0.00  0.00    +0.000 OA
ATOM     28  H   UNL     1       6.352   3.124  15.015  0.00  0.00    +0.000 HD
ENDBRANCH  26  27
ENDBRANCH  25  26
ENDBRANCH   1  25
TORSDOF 7
ENDMDL
MODEL 2
REMARK VINA RESULT:      -7.0      0.671      1.033
REMARK  Name = 
REMARK  7 active torsions:
REMARK  status: ('A' for Active; 'I' for Inactive)
REMARK    1  A    between atoms: O_1  and  C_2
REMARK    2  A    between atoms: C_2  and  C_3
REMARK    3  A    between atoms: C_3  and  N_4
REMARK    4  A    between atoms: C_8  and  C_9
REMARK    5  A    between atoms: C_15  and  N_16
REMARK    6  A    between atoms: N_16  and  C_17
REMARK    7  A    between atoms: C_20  and  O_21
REMARK                            x       y       z     vdW  Elec       q    Type
REMARK                         _______ _______ _______ _____ _____    ______ ____
ROOT
ATOM      1  N   UNL     1       6.522   6.357  15.965  0.00  0.00    +0.000 N 
ATOM      2  C   UNL     1       5.616   5.930  16.926  0.00  0.00    +0.000 A 
ATOM      3  N   UNL     1       5.909   4.844  17.640  0.00  0.00    +0.000 NA
ATOM      4  C   UNL     1       4.936   4.379  18.434  0.00  0.00    +0.000 A 
ATOM      5  C   UNL     1       3.677   4.930  18.571  0.00  0.00    +0.000 A 
ATOM      6  C   UNL     1       3.509   6.130  17.874  0.00  0.00    +0.000 A 
ATOM      7  N   UNL     1       4.458   6.595  17.023  0.00  0.00    +0.000 NA
ATOM      8  H   UNL     1       5.974   6.859  15.270  0.00  0.00    +0.000 HD
ENDROOT
BRANCH   5   9
ATOM      9  C   UNL     1       2.701   4.276  19.462  0.00  0.00    +0.000 A 
ATOM     10  C   UNL     1       1.643   3.508  18.950  0.00  0.00    +0.000 A 
ATOM     11  C   UNL     1       0.869   2.738  19.810  0.00  0.00    +0.000 A 
ATOM     12  C   UNL     1       1.133   2.776  21.169  0.00  0.00    +0.000 A 
ATOM     13  C   UNL     1       2.152   3.605  21.611  0.00  0.00    +0.000 A 
ATOM     14  N   UNL     1       2.940   4.348  20.796  0.00  0.00    +0.000 NA
ENDBRANCH   5   9
BRANCH   6  15
ATOM     15  N   UNL     1       2.291   6.842  17.965  0.00  0.00    +0.000 N 
ATOM     16  H   UNL     1       1.531   6.171  18.115  0.00  0.00    +0.000 HD
BRANCH  15  17
ATOM     17  C   UNL     1       2.244   7.985  18.889  0.00  0.00    +0.000 C 
ATOM     18  C   UNL     1       1.401   9.103  18.248  0.00  0.00    +0.000 C 
ATOM     19  C   UNL     1       1.351  10.340  19.144  0.00  0.00    +0.000 C 
ATOM     20  C   UNL     1       0.810  10.014  20.534  0.00  0.00    +0.000 C 
ATOM     21  C   UNL     1       1.532   8.828  21.173  0.00  0.00    +0.000 C 
ATOM     22  C   UNL     1       1.608   7.615  20.243  0.00  0.00    +0.000 C 
BRANCH  20  23
ATOM     23  O   UNL     1       0.935  11.159  21.374  0.00  0.00    +0.000 OA
ATOM     24  H   UNL     1       0.750  10.882  22.285  0.00  0.00    +0.000 HD
ENDBRANCH  20  23
ENDBRANCH  15  17
ENDBRANCH   6  15
BRANCH   1  25
ATOM     25  C   UNL     1       7.350   5.293  15.391  0.00  0.00    +0.000 C 
BRANCH  25  26
ATOM     26  C   UNL     1       6.642   4.556  14.243  0.00  0.00    +0.000 C 
BRANCH  26  27
ATOM     27  O   UNL     1       6.127   3.308  14.709  0.00  0.00    +0.000 OA
ATOM     28  H   UNL     1       6.877   2.826  15.100  0.00  0.00    +0.000 HD
ENDBRANCH  26  27
ENDBRANCH  25  26
ENDBRANCH   1  25
TORSDOF 7
ENDMDL
MODEL 3
REMARK VINA RESULT:      -6.6      2.448      5.196
REMARK  Name = 
REMARK  7 active torsions:
REMARK  status: ('A' for Active; 'I' for Inactive)
REMARK    1  A    between atoms: O_1  and  C_2
REMARK    2  A    between atoms: C_2  and  C_3
REMARK    3  A    between atoms: C_3  and  N_4
REMARK    4  A    between atoms: C_8  and  C_9
REMARK    5  A    between atoms: C_15  and  N_16
REMARK    6  A    between atoms: N_16  and  C_17
REMARK    7  A    between atoms: C_20  and  O_21
REMARK                            x       y       z     vdW  Elec       q    Type
REMARK                         _______ _______ _______ _____ _____    ______ ____
ROOT
ATOM      1  N   UNL     1       1.053   3.224  19.167  0.00  0.00    +0.000 N 
ATOM      2  C   UNL     1       2.234   3.863  18.817  0.00  0.00    +0.000 A 
ATOM      3  N   UNL     1       3.372   3.170  18.856  0.00  0.00    +0.000 NA
ATOM      4  C   UNL     1       4.497   3.869  18.671  0.00  0.00    +0.000 A 
ATOM      5  C   UNL     1       4.571   5.230  18.442  0.00  0.00    +0.000 A 
ATOM      6  C   UNL     1       3.324   5.846  18.302  0.00  0.00    +0.000 A 
ATOM      7  N   UNL     1       2.170   5.171  18.535  0.00  0.00    +0.000 NA
ATOM      8  H   UNL     1       0.430   3.955  19.503  0.00  0.00    +0.000 HD
ENDROOT
BRANCH   5   9
ATOM      9  C   UNL     1       5.896   5.861  18.296  0.00  0.00    +0.000 A 
ATOM     10  C   UNL     1       6.128   6.860  17.337  0.00  0.00    +0.000 A 
ATOM     11  C   UNL     1       7.319   7.578  17.362  0.00  0.00    +0.000 A 
ATOM     12  C   UNL     1       8.274   7.262  18.313  0.00  0.00    +0.000 A 
ATOM     13  C   UNL     1       8.004   6.222  19.188  0.00  0.00    +0.000 A 
ATOM     14  N   UNL     1       6.844   5.520  19.205  0.00  0.00    +0.000 NA
ENDBRANCH   5   9
BRANCH   6  15
ATOM     15  N   UNL     1       3.240   7.225  18.006  0.00  0.00    +0.000 N 
ATOM     16  H   UNL     1       3.445   7.358  17.010  0.00  0.00    +0.000 HD
BRANCH  15  17
ATOM     17  C   UNL     1       2.033   7.938  18.448  0.00  0.00    +0.000 C 
ATOM     18  C   UNL     1       2.076   8.076  19.982  0.00  0.00    +0.000 C 
ATOM     19  C   UNL     1       0.822   8.772  20.510  0.00  0.00    +0.000 C 
ATOM     20  C   UNL     1       0.621  10.144  19.871  0.00  0.00    +0.000 C 
ATOM     21  C   UNL     1       0.690  10.088  18.345  0.00  0.00    +0.000 C 
ATOM     22  C   UNL     1       1.931   9.349  17.839  0.00  0.00    +0.000 C 
BRANCH  20  23
ATOM     23  O   UNL     1      -0.638  10.677  20.273  0.00  0.00    +0.000 OA
ATOM     24  H   UNL     1      -1.096  10.993  19.478  0.00  0.00    +0.000 HD
ENDBRANCH  20  23
ENDBRANCH  15  17
ENDBRANCH   6  15
BRANCH   1  25
ATOM     25  C   UNL     1       1.216   2.120  20.116  0.00  0.00    +0.000 C 
BRANCH  25  26
ATOM     26  C   UNL     1       1.370   2.610  21.564  0.00  0.00    +0.000 C 
BRANCH  26  27
ATOM     27  O   UNL     1       2.741   2.537  21.959  0.00  0.00    +0.000 OA
ATOM     28  H   UNL     1       3.242   3.085  21.330  0.00  0.00    +0.000 HD
ENDBRANCH  26  27
ENDBRANCH  25  26
ENDBRANCH   1  25
TORSDOF 7
ENDMDL
MODEL 4
REMARK VINA RESULT:      -6.6      3.757      5.843
REMARK  Name = 
REMARK  7 active torsions:
REMARK  status: ('A' for Active; 'I' for Inactive)
REMARK    1  A    between atoms: O_1  and  C_2
REMARK    2  A    between atoms: C_2  and  C_3
REMARK    3  A    between atoms: C_3  and  N_4
REMARK    4  A    between atoms: C_8  and  C_9
REMARK    5  A    between atoms: C_15  and  N_16
REMARK    6  A    between atoms: N_16  and  C_17
REMARK    7  A    between atoms: C_20  and  O_21
REMARK                            x       y       z     vdW  Elec       q    Type
REMARK                         _______ _______ _______ _____ _____    ______ ____
ROOT
ATOM      1  N   UNL     1       5.655   2.895  12.482  0.00  0.00    +0.000 N 
ATOM      2  C   UNL     1       5.988   3.653  13.595  0.00  0.00    +0.000 A 
ATOM      3  N   UNL     1       6.833   4.672  13.444  0.00  0.00    +0.000 NA
ATOM      4  C   UNL     1       7.250   5.266  14.569  0.00  0.00    +0.000 A 
ATOM      5  C   UNL     1       6.875   4.914  15.852  0.00  0.00    +0.000 A 
ATOM      6  C   UNL     1       5.899   3.915  15.899  0.00  0.00    +0.000 A 
ATOM      7  N   UNL     1       5.499   3.262  14.779  0.00  0.00    +0.000 NA
ATOM      8  H   UNL     1       5.406   1.974  12.836  0.00  0.00    +0.000 HD
ENDROOT
BRANCH   5   9
ATOM      9  C   UNL     1       7.454   5.646  16.993  0.00  0.00    +0.000 A 
ATOM     10  C   UNL     1       7.592   7.042  16.974  0.00  0.00    +0.000 A 
ATOM     11  C   UNL     1       7.944   7.719  18.137  0.00  0.00    +0.000 A 
ATOM     12  C   UNL     1       8.194   6.991  19.288  0.00  0.00    +0.000 A 
ATOM     13  C   UNL     1       8.101   5.610  19.218  0.00  0.00    +0.000 A 
ATOM     14  N   UNL     1       7.737   4.924  18.108  0.00  0.00    +0.000 NA
ENDBRANCH   5   9
BRANCH   6  15
ATOM     15  N   UNL     1       5.374   3.491  17.140  0.00  0.00    +0.000 N 
ATOM     16  H   UNL     1       5.694   4.138  17.868  0.00  0.00    +0.000 HD
BRANCH  15  17
ATOM     17  C   UNL     1       3.931   3.217  17.205  0.00  0.00    +0.000 C 
ATOM     18  C   UNL     1       3.691   2.071  18.207  0.00  0.00    +0.000 C 
ATOM     19  C   UNL     1       2.209   1.707  18.286  0.00  0.00    +0.000 C 
ATOM     20  C   UNL     1       1.347   2.912  18.659  0.00  0.00    +0.000 C 
ATOM     21  C   UNL     1       1.630   4.123  17.771  0.00  0.00    +0.000 C 
ATOM     22  C   UNL     1       3.124   4.443  17.671  0.00  0.00    +0.000 C 
BRANCH  20  23
ATOM     23  O   UNL     1      -0.031   2.559  18.562  0.00  0.00    +0.000 OA
ATOM     24  H   UNL     1      -0.110   1.611  18.754  0.00  0.00    +0.000 HD
ENDBRANCH  20  23
ENDBRANCH  15  17
ENDBRANCH   6  15
BRANCH   1  25
ATOM     25  C   UNL     1       6.685   2.856  11.440  0.00  0.00    +0.000 C 
BRANCH  25  26
ATOM     26  C   UNL     1       7.079   1.421  11.060  0.00  0.00    +0.000 C 
BRANCH  26  27
ATOM     27  O   UNL     1       6.025   0.520  11.402  0.00  0.00    +0.000 OA
ATOM     28  H   UNL     1       5.637   0.212  10.565  0.00  0.00    +0.000 HD
ENDBRANCH  26  27
ENDBRANCH  25  26
ENDBRANCH   1  25
TORSDOF 7
ENDMDL
MODEL 5
REMARK VINA RESULT:      -6.5      1.251      1.652
REMARK  Name = 
REMARK  7 active torsions:
REMARK  status: ('A' for Active; 'I' for Inactive)
REMARK    1  A    between atoms: O_1  and  C_2
REMARK    2  A    between atoms: C_2  and  C_3
REMARK    3  A    between atoms: C_3  and  N_4
REMARK    4  A    between atoms: C_8  and  C_9
REMARK    5  A    between atoms: C_15  and  N_16
REMARK    6  A    between atoms: N_16  and  C_17
REMARK    7  A    between atoms: C_20  and  O_21
REMARK                            x       y       z     vdW  Elec       q    Type
REMARK                         _______ _______ _______ _____ _____    ______ ____
ROOT
ATOM      1  N   UNL     1       5.968   5.978  15.617  0.00  0.00    +0.000 N 
ATOM      2  C   UNL     1       5.302   5.395  16.685  0.00  0.00    +0.000 A 
ATOM      3  N   UNL     1       5.146   4.071  16.695  0.00  0.00    +0.000 NA
ATOM      4  C   UNL     1       4.358   3.576  17.657  0.00  0.00    +0.000 A 
ATOM      5  C   UNL     1       3.708   4.316  18.626  0.00  0.00    +0.000 A 
ATOM      6  C   UNL     1       4.028   5.677  18.604  0.00  0.00    +0.000 A 
ATOM      7  N   UNL     1       4.782   6.211  17.611  0.00  0.00    +0.000 NA
ATOM      8  H   UNL     1       5.611   6.928  15.551  0.00  0.00    +0.000 HD
ENDROOT
BRANCH   5   9
ATOM      9  C   UNL     1       2.842   3.622  19.596  0.00  0.00    +0.000 A 
ATOM     10  C   UNL     1       3.379   2.829  20.621  0.00  0.00    +0.000 A 
ATOM     11  C   UNL     1       2.554   2.361  21.638  0.00  0.00    +0.000 A 
ATOM     12  C   UNL     1       1.202   2.655  21.596  0.00  0.00    +0.000 A 
ATOM     13  C   UNL     1       0.729   3.389  20.520  0.00  0.00    +0.000 A 
ATOM     14  N   UNL     1       1.510   3.880  19.527  0.00  0.00    +0.000 NA
ENDBRANCH   5   9
BRANCH   6  15
ATOM     15  N   UNL     1       3.486   6.551  19.573  0.00  0.00    +0.000 N 
ATOM     16  H   UNL     1       4.246   7.124  19.957  0.00  0.00    +0.000 HD
BRANCH  15  17
ATOM     17  C   UNL     1       2.307   7.339  19.187  0.00  0.00    +0.000 C 
ATOM     18  C   UNL     1       1.802   8.109  20.422  0.00  0.00    +0.000 C 
ATOM     19  C   UNL     1       0.546   8.915  20.096  0.00  0.00    +0.000 C 
ATOM     20  C   UNL     1       0.777   9.885  18.939  0.00  0.00    +0.000 C 
ATOM     21  C   UNL     1       1.394   9.198  17.721  0.00  0.00    +0.000 C 
ATOM     22  C   UNL     1       2.624   8.361  18.078  0.00  0.00    +0.000 C 
BRANCH  20  23
ATOM     23  O   UNL     1      -0.459  10.491  18.572  0.00  0.00    +0.000 OA
ATOM     24  H   UNL     1      -0.617  10.302  17.633  0.00  0.00    +0.000 HD
ENDBRANCH  20  23
ENDBRANCH  15  17
ENDBRANCH   6  15
BRANCH   1  25
ATOM     25  C   UNL     1       5.872   5.234  14.359  0.00  0.00    +0.000 C 
BRANCH  25  26
ATOM     26  C   UNL     1       7.238   4.724  13.874  0.00  0.00    +0.000 C 
BRANCH  26  27
ATOM     27  O   UNL     1       7.749   5.590  12.860  0.00  0.00    +0.000 OA
ATOM     28  H   UNL     1       7.412   6.481  13.058  0.00  0.00    +0.000 HD
ENDBRANCH  26  27
ENDBRANCH  25  26
ENDBRANCH   1  25
TORSDOF 7
ENDMDL
MODEL 6
REMARK VINA RESULT:      -6.5      3.301      5.666
REMARK  Name = 
REMARK  7 active torsions:
REMARK  status: ('A' for Active; 'I' for Inactive)
REMARK    1  A    between atoms: O_1  and  C_2
REMARK    2  A    between atoms: C_2  and  C_3
REMARK    3  A    between atoms: C_3  and  N_4
REMARK    4  A    between atoms: C_8  and  C_9
REMARK    5  A    between atoms: C_15  and  N_16
REMARK    6  A    between atoms: N_16  and  C_17
REMARK    7  A    between atoms: C_20  and  O_21
REMARK                            x       y       z     vdW  Elec       q    Type
REMARK                         _______ _______ _______ _____ _____    ______ ____
ROOT
ATOM      1  N   UNL     1       5.769   2.855  12.616  0.00  0.00    +0.000 N 
ATOM      2  C   UNL     1       5.989   3.688  13.704  0.00  0.00    +0.000 A 
ATOM      3  N   UNL     1       6.638   4.835  13.509  0.00  0.00    +0.000 NA
ATOM      4  C   UNL     1       6.969   5.522  14.609  0.00  0.00    +0.000 A 
ATOM      5  C   UNL     1       6.690   5.144  15.908  0.00  0.00    +0.000 A 
ATOM      6  C   UNL     1       5.905   3.991  16.002  0.00  0.00    +0.000 A 
ATOM      7  N   UNL     1       5.601   3.249  14.908  0.00  0.00    +0.000 NA
ATOM      8  H   UNL     1       5.693   1.915  12.996  0.00  0.00    +0.000 HD
ENDROOT
BRANCH   5   9
ATOM      9  C   UNL     1       7.157   5.994  17.018  0.00  0.00    +0.000 A 
ATOM     10  C   UNL     1       7.568   5.442  18.241  0.00  0.00    +0.000 A 
ATOM     11  C   UNL     1       8.195   6.245  19.187  0.00  0.00    +0.000 A 
ATOM     12  C   UNL     1       8.365   7.592  18.917  0.00  0.00    +0.000 A 
ATOM     13  C   UNL     1       7.878   8.083  17.717  0.00  0.00    +0.000 A 
ATOM     14  N   UNL     1       7.285   7.322  16.764  0.00  0.00    +0.000 NA
ENDBRANCH   5   9
BRANCH   6  15
ATOM     15  N   UNL     1       5.490   3.513  17.266  0.00  0.00    +0.000 N 
ATOM     16  H   UNL     1       6.083   3.939  17.986  0.00  0.00    +0.000 HD
BRANCH  15  17
ATOM     17  C   UNL     1       4.055   3.591  17.579  0.00  0.00    +0.000 C 
ATOM     18  C   UNL     1       3.568   2.193  18.008  0.00  0.00    +0.000 C 
ATOM     19  C   UNL     1       2.069   2.198  18.305  0.00  0.00    +0.000 C 
ATOM     20  C   UNL     1       1.704   3.226  19.374  0.00  0.00    +0.000 C 
ATOM     21  C   UNL     1       2.267   4.612  19.060  0.00  0.00    +0.000 C 
ATOM     22  C   UNL     1       3.760   4.578  18.724  0.00  0.00    +0.000 C 
BRANCH  20  23
ATOM     23  O   UNL     1       0.286   3.302  19.496  0.00  0.00    +0.000 OA
ATOM     24  H   UNL     1      -0.055   3.773  18.719  0.00  0.00    +0.000 HD
ENDBRANCH  20  23
ENDBRANCH  15  17
ENDBRANCH   6  15
BRANCH   1  25
ATOM     25  C   UNL     1       6.767   2.970  11.548  0.00  0.00    +0.000 C 
BRANCH  25  26
ATOM     26  C   UNL     1       7.373   1.611  11.166  0.00  0.00    +0.000 C 
BRANCH  26  27
ATOM     27  O   UNL     1       6.361   0.603  11.186  0.00  0.00    +0.000 OA
ATOM     28  H   UNL     1       6.064   0.524  12.109  0.00  0.00    +0.000 HD
ENDBRANCH  26  27
ENDBRANCH  25  26
ENDBRANCH   1  25
TORSDOF 7
ENDMDL
MODEL 7
REMARK VINA RESULT:      -6.5      2.091      6.596
REMARK  Name = 
REMARK  7 active torsions:
REMARK  status: ('A' for Active; 'I' for Inactive)
REMARK    1  A    between atoms: O_1  and  C_2
REMARK    2  A    between atoms: C_2  and  C_3
REMARK    3  A    between atoms: C_3  and  N_4
REMARK    4  A    between atoms: C_8  and  C_9
REMARK    5  A    between atoms: C_15  and  N_16
REMARK    6  A    between atoms: N_16  and  C_17
REMARK    7  A    between atoms: C_20  and  O_21
REMARK                            x       y       z     vdW  Elec       q    Type
REMARK                         _______ _______ _______ _____ _____    ______ ____
ROOT
ATOM      1  N   UNL     1       1.294   9.517  20.619  0.00  0.00    +0.000 N 
ATOM      2  C   UNL     1       1.484   8.203  20.214  0.00  0.00    +0.000 A 
ATOM      3  N   UNL     1       1.045   7.222  21.001  0.00  0.00    +0.000 NA
ATOM      4  C   UNL     1       1.395   5.980  20.649  0.00  0.00    +0.000 A 
ATOM      5  C   UNL     1       2.160   5.640  19.549  0.00  0.00    +0.000 A 
ATOM      6  C   UNL     1       2.470   6.724  18.723  0.00  0.00    +0.000 A 
ATOM      7  N   UNL     1       2.172   7.998  19.083  0.00  0.00    +0.000 NA
ATOM      8  H   UNL     1       2.035  10.055  20.176  0.00  0.00    +0.000 HD
ENDROOT
BRANCH   5   9
ATOM      9  C   UNL     1       2.492   4.223  19.318  0.00  0.00    +0.000 A 
ATOM     10  C   UNL     1       1.767   3.440  18.407  0.00  0.00    +0.000 A 
ATOM     11  C   UNL     1       2.231   2.176  18.058  0.00  0.00    +0.000 A 
ATOM     12  C   UNL     1       3.386   1.697  18.652  0.00  0.00    +0.000 A 
ATOM     13  C   UNL     1       4.016   2.498  19.591  0.00  0.00    +0.000 A 
ATOM     14  N   UNL     1       3.603   3.743  19.934  0.00  0.00    +0.000 NA
ENDBRANCH   5   9
BRANCH   6  15
ATOM     15  N   UNL     1       3.197   6.524  17.528  0.00  0.00    +0.000 N 
ATOM     16  H   UNL     1       3.264   7.419  17.033  0.00  0.00    +0.000 HD
BRANCH  15  17
ATOM     17  C   UNL     1       4.486   5.823  17.631  0.00  0.00    +0.000 C 
ATOM     18  C   UNL     1       4.569   4.775  16.505  0.00  0.00    +0.000 C 
ATOM     19  C   UNL     1       5.871   3.980  16.585  0.00  0.00    +0.000 C 
ATOM     20  C   UNL     1       7.097   4.889  16.539  0.00  0.00    +0.000 C 
ATOM     21  C   UNL     1       7.013   6.025  17.558  0.00  0.00    +0.000 C 
ATOM     22  C   UNL     1       5.684   6.781  17.489  0.00  0.00    +0.000 C 
BRANCH  20  23
ATOM     23  O   UNL     1       8.271   4.117  16.778  0.00  0.00    +0.000 OA
ATOM     24  H   UNL     1       8.371   4.016  17.738  0.00  0.00    +0.000 HD
ENDBRANCH  20  23
ENDBRANCH  15  17
ENDBRANCH   6  15
BRANCH   1  25
ATOM     25  C   UNL     1       1.232   9.704  22.071  0.00  0.00    +0.000 C 
BRANCH  25  26
ATOM     26  C   UNL     1      -0.153  10.173  22.542  0.00  0.00    +0.000 C 
BRANCH  26  27
ATOM     27  O   UNL     1      -0.444   9.621  23.827  0.00  0.00    +0.000 OA
ATOM     28  H   UNL     1      -0.299  10.332  24.475  0.00  0.00    +0.000 HD
ENDBRANCH  26  27
ENDBRANCH  25  26
ENDBRANCH   1  25
TORSDOF 7
ENDMDL
MODEL 8
REMARK VINA RESULT:      -6.4      2.350      4.979
REMARK  Name = 
REMARK  7 active torsions:
REMARK  status: ('A' for Active; 'I' for Inactive)
REMARK    1  A    between atoms: O_1  and  C_2
REMARK    2  A    between atoms: C_2  and  C_3
REMARK    3  A    between atoms: C_3  and  N_4
REMARK    4  A    between atoms: C_8  and  C_9
REMARK    5  A    between atoms: C_15  and  N_16
REMARK    6  A    between atoms: N_16  and  C_17
REMARK    7  A    between atoms: C_20  and  O_21
REMARK                            x       y       z     vdW  Elec       q    Type
REMARK                         _______ _______ _______ _____ _____    ______ ____
ROOT
ATOM      1  N   UNL     1       1.017   2.981  19.019  0.00  0.00    +0.000 N 
ATOM      2  C   UNL     1       2.166   3.701  18.724  0.00  0.00    +0.000 A 
ATOM      3  N   UNL     1       3.350   3.148  18.981  0.00  0.00    +0.000 NA
ATOM      4  C   UNL     1       4.418   3.941  18.833  0.00  0.00    +0.000 A 
ATOM      5  C   UNL     1       4.389   5.265  18.437  0.00  0.00    +0.000 A 
ATOM      6  C   UNL     1       3.116   5.717  18.078  0.00  0.00    +0.000 A 
ATOM      7  N   UNL     1       2.012   4.951  18.267  0.00  0.00    +0.000 NA
ATOM      8  H   UNL     1       0.289   3.673  19.185  0.00  0.00    +0.000 HD
ENDROOT
BRANCH   5   9
ATOM      9  C   UNL     1       5.655   6.017  18.359  0.00  0.00    +0.000 A 
ATOM     10  C   UNL     1       6.746   5.701  19.182  0.00  0.00    +0.000 A 
ATOM     11  C   UNL     1       7.985   6.285  18.942  0.00  0.00    +0.000 A 
ATOM     12  C   UNL     1       8.107   7.205  17.914  0.00  0.00    +0.000 A 
ATOM     13  C   UNL     1       6.973   7.517  17.183  0.00  0.00    +0.000 A 
ATOM     14  N   UNL     1       5.758   6.947  17.375  0.00  0.00    +0.000 NA
ENDBRANCH   5   9
BRANCH   6  15
ATOM     15  N   UNL     1       2.938   7.034  17.596  0.00  0.00    +0.000 N 
ATOM     16  H   UNL     1       2.322   7.000  16.777  0.00  0.00    +0.000 HD
BRANCH  15  17
ATOM     17  C   UNL     1       2.547   8.062  18.572  0.00  0.00    +0.000 C 
ATOM     18  C   UNL     1       1.499   8.985  17.921  0.00  0.00    +0.000 C 
ATOM     19  C   UNL     1       1.084  10.107  18.872  0.00  0.00    +0.000 C 
ATOM     20  C   UNL     1       0.547   9.562  20.194  0.00  0.00    +0.000 C 
ATOM     21  C   UNL     1       1.494   8.544  20.828  0.00  0.00    +0.000 C 
ATOM     22  C   UNL     1       1.931   7.455  19.846  0.00  0.00    +0.000 C 
BRANCH  20  23
ATOM     23  O   UNL     1       0.328  10.641  21.099  0.00  0.00    +0.000 OA
ATOM     24  H   UNL     1       1.094  10.693  21.691  0.00  0.00    +0.000 HD
ENDBRANCH  20  23
ENDBRANCH  15  17
ENDBRANCH   6  15
BRANCH   1  25
ATOM     25  C   UNL     1       1.165   2.022  20.118  0.00  0.00    +0.000 C 
BRANCH  25  26
ATOM     26  C   UNL     1       1.326   2.713  21.480  0.00  0.00    +0.000 C 
BRANCH  26  27
ATOM     27  O   UNL     1       2.654   2.522  21.969  0.00  0.00    +0.000 OA
ATOM     28  H   UNL     1       2.606   1.820  22.641  0.00  0.00    +0.000 HD
ENDBRANCH  26  27
ENDBRANCH  25  26
ENDBRANCH   1  25
TORSDOF 7
ENDMDL
MODEL 9
REMARK VINA RESULT:      -6.4      1.210      1.800
REMARK  Name = 
REMARK  7 active torsions:
REMARK  status: ('A' for Active; 'I' for Inactive)
REMARK    1  A    between atoms: O_1  and  C_2
REMARK    2  A    between atoms: C_2  and  C_3
REMARK    3  A    between atoms: C_3  and  N_4
REMARK    4  A    between atoms: C_8  and  C_9
REMARK    5  A    between atoms: C_15  and  N_16
REMARK    6  A    between atoms: N_16  and  C_17
REMARK    7  A    between atoms: C_20  and  O_21
REMARK                            x       y       z     vdW  Elec       q    Type
REMARK                         _______ _______ _______ _____ _____    ______ ____
ROOT
ATOM      1  N   UNL     1       5.781   6.243  15.554  0.00  0.00    +0.000 N 
ATOM      2  C   UNL     1       5.088   5.698  16.626  0.00  0.00    +0.000 A 
ATOM      3  N   UNL     1       4.842   4.389  16.628  0.00  0.00    +0.000 NA
ATOM      4  C   UNL     1       4.033   3.941  17.596  0.00  0.00    +0.000 A 
ATOM      5  C   UNL     1       3.447   4.716  18.578  0.00  0.00    +0.000 A 
ATOM      6  C   UNL     1       3.860   6.051  18.562  0.00  0.00    +0.000 A 
ATOM      7  N   UNL     1       4.637   6.541  17.563  0.00  0.00    +0.000 NA
ATOM      8  H   UNL     1       5.489   7.216  15.499  0.00  0.00    +0.000 HD
ENDROOT
BRANCH   5   9
ATOM      9  C   UNL     1       2.546   4.076  19.554  0.00  0.00    +0.000 A 
ATOM     10  C   UNL     1       1.453   3.299  19.141  0.00  0.00    +0.000 A 
ATOM     11  C   UNL     1       0.751   2.542  20.073  0.00  0.00    +0.000 A 
ATOM     12  C   UNL     1       1.122   2.604  21.405  0.00  0.00    +0.000 A 
ATOM     13  C   UNL     1       2.170   3.442  21.751  0.00  0.00    +0.000 A 
ATOM     14  N   UNL     1       2.890   4.172  20.864  0.00  0.00    +0.000 NA
ENDBRANCH   5   9
BRANCH   6  15
ATOM     15  N   UNL     1       3.391   6.954  19.544  0.00  0.00    +0.000 N 
ATOM     16  H   UNL     1       4.152   7.597  19.786  0.00  0.00    +0.000 HD
BRANCH  15  17
ATOM     17  C   UNL     1       2.118   7.639  19.277  0.00  0.00    +0.000 C 
ATOM     18  C   UNL     1       1.638   8.309  20.579  0.00  0.00    +0.000 C 
ATOM     19  C   UNL     1       0.291   9.004  20.379  0.00  0.00    +0.000 C 
ATOM     20  C   UNL     1       0.345  10.034  19.253  0.00  0.00    +0.000 C 
ATOM     21  C   UNL     1       0.929   9.456  17.965  0.00  0.00    +0.000 C 
ATOM     22  C   UNL     1       2.256   8.728  18.196  0.00  0.00    +0.000 C 
BRANCH  20  23
ATOM     23  O   UNL     1      -0.967  10.533  19.002  0.00  0.00    +0.000 OA
ATOM     24  H   UNL     1      -1.595   9.982  19.495  0.00  0.00    +0.000 HD
ENDBRANCH  20  23
ENDBRANCH  15  17
ENDBRANCH   6  15
BRANCH   1  25
ATOM     25  C   UNL     1       5.618   5.517  14.291  0.00  0.00    +0.000 C 
BRANCH  25  26
ATOM     26  C   UNL     1       6.806   4.588  13.994  0.00  0.00    +0.000 C 
BRANCH  26  27
ATOM     27  O   UNL     1       6.370   3.227  13.991  0.00  0.00    +0.000 OA
ATOM     28  H   UNL     1       6.774   2.806  13.213  0.00  0.00    +0.000 HD
ENDBRANCH  26  27
ENDBRANCH  25  26
ENDBRANCH   1  25
TORSDOF 7
ENDMDL
