MODEL 1
REMARK VINA RESULT:      -5.6      0.000      0.000
REMARK  Name = 
REMARK  19 active torsions:
REMARK  status: ('A' for Active; 'I' for Inactive)
REMARK    1  A    between atoms: C_1  and  C_2
REMARK    2  A    between atoms: C_2  and  C_3
REMARK    3  A    between atoms: C_3  and  C_4
REMARK    4  A    between atoms: C_4  and  C_5
REMARK    5  A    between atoms: C_5  and  C_6
REMARK    6  A    between atoms: C_6  and  C_7
REMARK    7  A    between atoms: C_7  and  C_8
REMARK    8  A    between atoms: C_8  and  C_9
REMARK    9  A    between atoms: C_9  and  C_10
REMARK   10  A    between atoms: C_10  and  C_11
REMARK   11  A    between atoms: C_11  and  C_12
REMARK   12  A    between atoms: C_12  and  C_13
REMARK   13  A    between atoms: C_13  and  C_14
REMARK   14  A    between atoms: C_14  and  C_15
REMARK   15  A    between atoms: C_15  and  C_16
REMARK   16  A    between atoms: C_16  and  C_17
REMARK   17  A    between atoms: C_17  and  C_18
REMARK   18  A    between atoms: C_18  and  N_19
REMARK   19  A    between atoms: N_22  and  C_23
REMARK                            x       y       z     vdW  Elec       q    Type
REMARK                         _______ _______ _______ _____ _____    ______ ____
ROOT
ATOM      1  C   UNL     1       7.093   5.778  16.442  0.00  0.00    +0.000 C 
ENDROOT
BRANCH   1   2
ATOM      2  C   UNL     1       5.667   5.325  16.200  0.00  0.00    +0.000 C 
BRANCH   2   3
ATOM      3  C   UNL     1       4.741   6.525  16.191  0.00  0.00    +0.000 C 
BRANCH   3   4
ATOM      4  C   UNL     1       4.340   6.872  17.612  0.00  0.00    +0.000 C 
BRANCH   4   5
ATOM      5  C   UNL     1       2.833   6.805  17.750  0.00  0.00    +0.000 C 
BRANCH   5   6
ATOM      6  C   UNL     1       2.448   5.593  18.575  0.00  0.00    +0.000 C 
BRANCH   6   7
ATOM      7  C   UNL     1       1.768   4.577  17.687  0.00  0.00    +0.000 C 
BRANCH   7   8
ATOM      8  C   UNL     1       2.674   3.382  17.432  0.00  0.00    +0.000 C 
BRANCH   8   9
ATOM      9  C   UNL     1       2.849   2.579  18.715  0.00  0.00    +0.000 C 
BRANCH   9  10
ATOM     10  C   UNL     1       1.505   2.116  19.280  0.00  0.00    +0.000 C 
BRANCH  10  12
ATOM     11  C   UNL     1       2.333   2.659  21.623  0.00  0.00    +0.000 C 
ATOM     12  C   UNL     1       1.211   2.800  20.609  0.00  0.00    +0.000 C 
ENDBRANCH  10  12
ENDBRANCH   9  10
ENDBRANCH   8   9
ENDBRANCH   7   8
ENDBRANCH   6   7
ENDBRANCH   5   6
ENDBRANCH   4   5
ENDBRANCH   3   4
ENDBRANCH   2   3
ENDBRANCH   1   2
BRANCH   1  13
ATOM     13  C   UNL     1       7.453   5.574  17.902  0.00  0.00    +0.000 C 
BRANCH  13  14
ATOM     14  C   UNL     1       7.997   6.864  18.486  0.00  0.00    +0.000 C 
BRANCH  14  15
ATOM     15  C   UNL     1       8.148   7.906  17.392  0.00  0.00    +0.000 C 
BRANCH  15  16
ATOM     16  C   UNL     1       7.841   9.288  17.945  0.00  0.00    +0.000 C 
BRANCH  16  17
ATOM     17  C   UNL     1       9.011   9.793  18.771  0.00  0.00    +0.000 C 
BRANCH  17  18
ATOM     18  C   UNL     1       9.653  11.003  18.112  0.00  0.00    +0.000 C 
BRANCH  18  19
ATOM     19  N   UNL     1       9.415  12.194  18.925  0.00  0.00    +0.000 N 
ATOM     20  C   UNL     1       8.678  13.298  18.525  0.00  0.00    +0.000 A 
ATOM     21  C   UNL     1       8.606  14.124  19.613  0.00  0.00    +0.000 A 
ATOM     22  N   UNL     1       9.314  13.506  20.631  0.00  0.00    +0.000 N 
ATOM     23  C   UNL     1       9.473  14.011  21.981  0.00  0.00    +0.000 C 
ATOM     24  C   UNL     1       9.813  12.355  20.188  0.00  0.00    +0.000 A 
ENDBRANCH  18  19
ENDBRANCH  17  18
ENDBRANCH  16  17
ENDBRANCH  15  16
ENDBRANCH  14  15
ENDBRANCH  13  14
ENDBRANCH   1  13
TORSDOF 17
ENDMDL
MODEL 2
REMARK VINA RESULT:      -5.5      5.203      8.648
REMARK  Name = 
REMARK  19 active torsions:
REMARK  status: ('A' for Active; 'I' for Inactive)
REMARK    1  A    between atoms: C_1  and  C_2
REMARK    2  A    between atoms: C_2  and  C_3
REMARK    3  A    between atoms: C_3  and  C_4
REMARK    4  A    between atoms: C_4  and  C_5
REMARK    5  A    between atoms: C_5  and  C_6
REMARK    6  A    between atoms: C_6  and  C_7
REMARK    7  A    between atoms: C_7  and  C_8
REMARK    8  A    between atoms: C_8  and  C_9
REMARK    9  A    between atoms: C_9  and  C_10
REMARK   10  A    between atoms: C_10  and  C_11
REMARK   11  A    between atoms: C_11  and  C_12
REMARK   12  A    between atoms: C_12  and  C_13
REMARK   13  A    between atoms: C_13  and  C_14
REMARK   14  A    between atoms: C_14  and  C_15
REMARK   15  A    between atoms: C_15  and  C_16
REMARK   16  A    between atoms: C_16  and  C_17
REMARK   17  A    between atoms: C_17  and  C_18
REMARK   18  A    between atoms: C_18  and  N_19
REMARK   19  A    between atoms: N_22  and  C_23
REMARK                            x       y       z     vdW  Elec       q    Type
REMARK                         _______ _______ _______ _____ _____    ______ ____
ROOT
ATOM      1  C   UNL     1       1.669   5.744  19.568  0.00  0.00    +0.000 C 
ENDROOT
BRANCH   1   2
ATOM      2  C   UNL     1       2.327   5.060  20.750  0.00  0.00    +0.000 C 
BRANCH   2   3
ATOM      3  C   UNL     1       1.506   3.856  21.169  0.00  0.00    +0.000 C 
BRANCH   3   4
ATOM      4  C   UNL     1       0.942   3.169  19.941  0.00  0.00    +0.000 C 
BRANCH   4   5
ATOM      5  C   UNL     1       1.903   2.101  19.464  0.00  0.00    +0.000 C 
BRANCH   5   6
ATOM      6  C   UNL     1       2.190   2.291  17.988  0.00  0.00    +0.000 C 
BRANCH   6   7
ATOM      7  C   UNL     1       3.684   2.344  17.769  0.00  0.00    +0.000 C 
BRANCH   7   8
ATOM      8  C   UNL     1       4.103   3.681  17.176  0.00  0.00    +0.000 C 
BRANCH   8   9
ATOM      9  C   UNL     1       5.210   4.301  18.020  0.00  0.00    +0.000 C 
BRANCH   9  10
ATOM     10  C   UNL     1       5.719   5.609  17.412  0.00  0.00    +0.000 C 
BRANCH  10  12
ATOM     11  C   UNL     1       7.572   7.333  17.671  0.00  0.00    +0.000 C 
ATOM     12  C   UNL     1       7.157   5.881  17.836  0.00  0.00    +0.000 C 
ENDBRANCH  10  12
ENDBRANCH   9  10
ENDBRANCH   8   9
ENDBRANCH   7   8
ENDBRANCH   6   7
ENDBRANCH   5   6
ENDBRANCH   4   5
ENDBRANCH   3   4
ENDBRANCH   2   3
ENDBRANCH   1   2
BRANCH   1  13
ATOM     13  C   UNL     1       2.622   6.766  18.975  0.00  0.00    +0.000 C 
BRANCH  13  14
ATOM     14  C   UNL     1       1.865   7.710  18.061  0.00  0.00    +0.000 C 
BRANCH  14  15
ATOM     15  C   UNL     1       2.287   9.143  18.330  0.00  0.00    +0.000 C 
BRANCH  15  16
ATOM     16  C   UNL     1       1.096   9.951  18.820  0.00  0.00    +0.000 C 
BRANCH  16  17
ATOM     17  C   UNL     1      -0.083   9.769  17.881  0.00  0.00    +0.000 C 
BRANCH  17  18
ATOM     18  C   UNL     1      -1.361  10.298  18.512  0.00  0.00    +0.000 C 
BRANCH  18  19
ATOM     19  N   UNL     1      -2.377  10.497  17.481  0.00  0.00    +0.000 N 
ATOM     20  C   UNL     1      -3.462  11.354  17.584  0.00  0.00    +0.000 A 
ATOM     21  C   UNL     1      -4.089  11.326  16.369  0.00  0.00    +0.000 A 
ATOM     22  N   UNL     1      -3.378  10.443  15.573  0.00  0.00    +0.000 N 
ATOM     23  C   UNL     1      -3.667  10.128  14.187  0.00  0.00    +0.000 C 
ATOM     24  C   UNL     1      -2.363   9.937  16.270  0.00  0.00    +0.000 A 
ENDBRANCH  18  19
ENDBRANCH  17  18
ENDBRANCH  16  17
ENDBRANCH  15  16
ENDBRANCH  14  15
ENDBRANCH  13  14
ENDBRANCH   1  13
TORSDOF 17
ENDMDL
MODEL 3
REMARK VINA RESULT:      -5.5      1.388      2.476
REMARK  Name = 
REMARK  19 active torsions:
REMARK  status: ('A' for Active; 'I' for Inactive)
REMARK    1  A    between atoms: C_1  and  C_2
REMARK    2  A    between atoms: C_2  and  C_3
REMARK    3  A    between atoms: C_3  and  C_4
REMARK    4  A    between atoms: C_4  and  C_5
REMARK    5  A    between atoms: C_5  and  C_6
REMARK    6  A    between atoms: C_6  and  C_7
REMARK    7  A    between atoms: C_7  and  C_8
REMARK    8  A    between atoms: C_8  and  C_9
REMARK    9  A    between atoms: C_9  and  C_10
REMARK   10  A    between atoms: C_10  and  C_11
REMARK   11  A    between atoms: C_11  and  C_12
REMARK   12  A    between atoms: C_12  and  C_13
REMARK   13  A    between atoms: C_13  and  C_14
REMARK   14  A    between atoms: C_14  and  C_15
REMARK   15  A    between atoms: C_15  and  C_16
REMARK   16  A    between atoms: C_16  and  C_17
REMARK   17  A    between atoms: C_17  and  C_18
REMARK   18  A    between atoms: C_18  and  N_19
REMARK   19  A    between atoms: N_22  and  C_23
REMARK                            x       y       z     vdW  Elec       q    Type
REMARK                         _______ _______ _______ _____ _____    ______ ____
ROOT
ATOM      1  C   UNL     1       7.974   6.528  18.763  0.00  0.00    +0.000 C 
ENDROOT
BRANCH   1   2
ATOM      2  C   UNL     1       7.162   5.359  19.285  0.00  0.00    +0.000 C 
BRANCH   2   3
ATOM      3  C   UNL     1       6.362   4.743  18.155  0.00  0.00    +0.000 C 
BRANCH   3   4
ATOM      4  C   UNL     1       5.174   3.991  18.720  0.00  0.00    +0.000 C 
BRANCH   4   5
ATOM      5  C   UNL     1       4.007   4.079  17.758  0.00  0.00    +0.000 C 
BRANCH   5   6
ATOM      6  C   UNL     1       3.675   5.533  17.487  0.00  0.00    +0.000 C 
BRANCH   6   7
ATOM      7  C   UNL     1       2.383   5.892  18.185  0.00  0.00    +0.000 C 
BRANCH   7   8
ATOM      8  C   UNL     1       2.650   6.448  19.576  0.00  0.00    +0.000 C 
BRANCH   8   9
ATOM      9  C   UNL     1       1.690   5.820  20.580  0.00  0.00    +0.000 C 
BRANCH   9  10
ATOM     10  C   UNL     1       2.163   4.432  21.020  0.00  0.00    +0.000 C 
BRANCH  10  12
ATOM     11  C   UNL     1       1.535   2.399  19.627  0.00  0.00    +0.000 C 
ATOM     12  C   UNL     1       1.109   3.377  20.709  0.00  0.00    +0.000 C 
ENDBRANCH  10  12
ENDBRANCH   9  10
ENDBRANCH   8   9
ENDBRANCH   7   8
ENDBRANCH   6   7
ENDBRANCH   5   6
ENDBRANCH   4   5
ENDBRANCH   3   4
ENDBRANCH   2   3
ENDBRANCH   1   2
BRANCH   1  13
ATOM     13  C   UNL     1       7.222   7.207  17.633  0.00  0.00    +0.000 C 
BRANCH  13  14
ATOM     14  C   UNL     1       7.877   8.534  17.299  0.00  0.00    +0.000 C 
BRANCH  14  15
ATOM     15  C   UNL     1       8.582   9.087  18.525  0.00  0.00    +0.000 C 
BRANCH  15  16
ATOM     16  C   UNL     1       8.923  10.553  18.310  0.00  0.00    +0.000 C 
BRANCH  16  17
ATOM     17  C   UNL     1       9.934  11.013  19.346  0.00  0.00    +0.000 C 
BRANCH  17  18
ATOM     18  C   UNL     1      10.174  12.510  19.236  0.00  0.00    +0.000 C 
BRANCH  18  19
ATOM     19  N   UNL     1       9.859  13.157  20.508  0.00  0.00    +0.000 N 
ATOM     20  C   UNL     1      10.482  14.293  21.002  0.00  0.00    +0.000 A 
ATOM     21  C   UNL     1       9.817  14.626  22.149  0.00  0.00    +0.000 A 
ATOM     22  N   UNL     1       8.824  13.676  22.325  0.00  0.00    +0.000 N 
ATOM     23  C   UNL     1       7.851  13.655  23.400  0.00  0.00    +0.000 C 
ATOM     24  C   UNL     1       8.882  12.786  21.337  0.00  0.00    +0.000 A 
ENDBRANCH  18  19
ENDBRANCH  17  18
ENDBRANCH  16  17
ENDBRANCH  15  16
ENDBRANCH  14  15
ENDBRANCH  13  14
ENDBRANCH   1  13
TORSDOF 17
ENDMDL
MODEL 4
REMARK VINA RESULT:      -5.5      5.055      7.463
REMARK  Name = 
REMARK  19 active torsions:
REMARK  status: ('A' for Active; 'I' for Inactive)
REMARK    1  A    between atoms: C_1  and  C_2
REMARK    2  A    between atoms: C_2  and  C_3
REMARK    3  A    between atoms: C_3  and  C_4
REMARK    4  A    between atoms: C_4  and  C_5
REMARK    5  A    between atoms: C_5  and  C_6
REMARK    6  A    between atoms: C_6  and  C_7
REMARK    7  A    between atoms: C_7  and  C_8
REMARK    8  A    between atoms: C_8  and  C_9
REMARK    9  A    between atoms: C_9  and  C_10
REMARK   10  A    between atoms: C_10  and  C_11
REMARK   11  A    between atoms: C_11  and  C_12
REMARK   12  A    between atoms: C_12  and  C_13
REMARK   13  A    between atoms: C_13  and  C_14
REMARK   14  A    between atoms: C_14  and  C_15
REMARK   15  A    between atoms: C_15  and  C_16
REMARK   16  A    between atoms: C_16  and  C_17
REMARK   17  A    between atoms: C_17  and  C_18
REMARK   18  A    between atoms: C_18  and  N_19
REMARK   19  A    between atoms: N_22  and  C_23
REMARK                            x       y       z     vdW  Elec       q    Type
REMARK                         _______ _______ _______ _____ _____    ______ ____
ROOT
ATOM      1  C   UNL     1       2.599   6.135  19.833  0.00  0.00    +0.000 C 
ENDROOT
BRANCH   1   2
ATOM      2  C   UNL     1       1.498   5.295  20.449  0.00  0.00    +0.000 C 
BRANCH   2   3
ATOM      3  C   UNL     1       2.105   4.142  21.224  0.00  0.00    +0.000 C 
BRANCH   3   4
ATOM      4  C   UNL     1       2.096   2.891  20.368  0.00  0.00    +0.000 C 
BRANCH   4   5
ATOM      5  C   UNL     1       3.516   2.508  20.007  0.00  0.00    +0.000 C 
BRANCH   5   6
ATOM      6  C   UNL     1       3.582   2.103  18.547  0.00  0.00    +0.000 C 
BRANCH   6   7
ATOM      7  C   UNL     1       2.687   3.009  17.734  0.00  0.00    +0.000 C 
BRANCH   7   8
ATOM      8  C   UNL     1       3.448   3.627  16.570  0.00  0.00    +0.000 C 
BRANCH   8   9
ATOM      9  C   UNL     1       4.871   3.962  16.998  0.00  0.00    +0.000 C 
BRANCH   9  10
ATOM     10  C   UNL     1       5.230   5.415  16.679  0.00  0.00    +0.000 C 
BRANCH  10  12
ATOM     11  C   UNL     1       6.081   5.160  19.063  0.00  0.00    +0.000 C 
ATOM     12  C   UNL     1       5.990   6.052  17.836  0.00  0.00    +0.000 C 
ENDBRANCH  10  12
ENDBRANCH   9  10
ENDBRANCH   8   9
ENDBRANCH   7   8
ENDBRANCH   6   7
ENDBRANCH   5   6
ENDBRANCH   4   5
ENDBRANCH   3   4
ENDBRANCH   2   3
ENDBRANCH   1   2
BRANCH   1  13
ATOM     13  C   UNL     1       2.208   6.531  18.421  0.00  0.00    +0.000 C 
BRANCH  13  14
ATOM     14  C   UNL     1       2.751   7.911  18.102  0.00  0.00    +0.000 C 
BRANCH  14  15
ATOM     15  C   UNL     1       1.618   8.831  17.683  0.00  0.00    +0.000 C 
BRANCH  15  16
ATOM     16  C   UNL     1       1.465   9.958  18.691  0.00  0.00    +0.000 C 
BRANCH  16  17
ATOM     17  C   UNL     1       0.019  10.062  19.146  0.00  0.00    +0.000 C 
BRANCH  17  18
ATOM     18  C   UNL     1      -0.122   9.627  20.596  0.00  0.00    +0.000 C 
BRANCH  18  19
ATOM     19  N   UNL     1      -0.745  10.696  21.374  0.00  0.00    +0.000 N 
ATOM     20  C   UNL     1      -0.794  10.750  22.758  0.00  0.00    +0.000 A 
ATOM     21  C   UNL     1      -1.356  11.956  23.074  0.00  0.00    +0.000 A 
ATOM     22  N   UNL     1      -1.647  12.587  21.876  0.00  0.00    +0.000 N 
ATOM     23  C   UNL     1      -2.225  13.910  21.732  0.00  0.00    +0.000 C 
ATOM     24  C   UNL     1      -1.292  11.800  20.863  0.00  0.00    +0.000 A 
ENDBRANCH  18  19
ENDBRANCH  17  18
ENDBRANCH  16  17
ENDBRANCH  15  16
ENDBRANCH  14  15
ENDBRANCH  13  14
ENDBRANCH   1  13
TORSDOF 17
ENDMDL
MODEL 5
REMARK VINA RESULT:      -5.5      5.223      8.293
REMARK  Name = 
REMARK  19 active torsions:
REMARK  status: ('A' for Active; 'I' for Inactive)
REMARK    1  A    between atoms: C_1  and  C_2
REMARK    2  A    between atoms: C_2  and  C_3
REMARK    3  A    between atoms: C_3  and  C_4
REMARK    4  A    between atoms: C_4  and  C_5
REMARK    5  A    between atoms: C_5  and  C_6
REMARK    6  A    between atoms: C_6  and  C_7
REMARK    7  A    between atoms: C_7  and  C_8
REMARK    8  A    between atoms: C_8  and  C_9
REMARK    9  A    between atoms: C_9  and  C_10
REMARK   10  A    between atoms: C_10  and  C_11
REMARK   11  A    between atoms: C_11  and  C_12
REMARK   12  A    between atoms: C_12  and  C_13
REMARK   13  A    between atoms: C_13  and  C_14
REMARK   14  A    between atoms: C_14  and  C_15
REMARK   15  A    between atoms: C_15  and  C_16
REMARK   16  A    between atoms: C_16  and  C_17
REMARK   17  A    between atoms: C_17  and  C_18
REMARK   18  A    between atoms: C_18  and  N_19
REMARK   19  A    between atoms: N_22  and  C_23
REMARK                            x       y       z     vdW  Elec       q    Type
REMARK                         _______ _______ _______ _____ _____    ______ ____
ROOT
ATOM      1  C   UNL     1       1.436   5.436  19.999  0.00  0.00    +0.000 C 
ENDROOT
BRANCH   1   2
ATOM      2  C   UNL     1       2.277   5.806  18.793  0.00  0.00    +0.000 C 
BRANCH   2   3
ATOM      3  C   UNL     1       2.721   7.251  18.900  0.00  0.00    +0.000 C 
BRANCH   3   4
ATOM      4  C   UNL     1       2.267   8.017  17.673  0.00  0.00    +0.000 C 
BRANCH   4   5
ATOM      5  C   UNL     1       1.644   9.333  18.092  0.00  0.00    +0.000 C 
BRANCH   5   6
ATOM      6  C   UNL     1       1.164   9.239  19.527  0.00  0.00    +0.000 C 
BRANCH   6   7
ATOM      7  C   UNL     1       0.001  10.181  19.730  0.00  0.00    +0.000 C 
BRANCH   7   8
ATOM      8  C   UNL     1      -0.087  11.193  18.597  0.00  0.00    +0.000 C 
BRANCH   8   9
ATOM      9  C   UNL     1      -1.516  11.265  18.074  0.00  0.00    +0.000 C 
BRANCH   9  10
ATOM     10  C   UNL     1      -2.115   9.872  17.872  0.00  0.00    +0.000 C 
BRANCH  10  12
ATOM     11  C   UNL     1      -2.718  10.634  15.521  0.00  0.00    +0.000 C 
ATOM     12  C   UNL     1      -3.164   9.888  16.767  0.00  0.00    +0.000 C 
ENDBRANCH  10  12
ENDBRANCH   9  10
ENDBRANCH   8   9
ENDBRANCH   7   8
ENDBRANCH   6   7
ENDBRANCH   5   6
ENDBRANCH   4   5
ENDBRANCH   3   4
ENDBRANCH   2   3
ENDBRANCH   1   2
BRANCH   1  13
ATOM     13  C   UNL     1       1.091   3.959  19.947  0.00  0.00    +0.000 C 
BRANCH  13  14
ATOM     14  C   UNL     1       1.508   3.285  21.240  0.00  0.00    +0.000 C 
BRANCH  14  15
ATOM     15  C   UNL     1       2.881   2.658  21.080  0.00  0.00    +0.000 C 
BRANCH  15  16
ATOM     16  C   UNL     1       3.057   2.150  19.658  0.00  0.00    +0.000 C 
BRANCH  16  17
ATOM     17  C   UNL     1       4.489   2.362  19.199  0.00  0.00    +0.000 C 
BRANCH  17  18
ATOM     18  C   UNL     1       4.840   3.841  19.194  0.00  0.00    +0.000 C 
BRANCH  18  19
ATOM     19  N   UNL     1       5.491   4.190  17.933  0.00  0.00    +0.000 N 
ATOM     20  C   UNL     1       6.798   4.637  17.806  0.00  0.00    +0.000 A 
ATOM     21  C   UNL     1       7.040   4.736  16.464  0.00  0.00    +0.000 A 
ATOM     22  N   UNL     1       5.871   4.365  15.819  0.00  0.00    +0.000 N 
ATOM     23  C   UNL     1       5.682   4.288  14.383  0.00  0.00    +0.000 C 
ATOM     24  C   UNL     1       4.943   4.062  16.723  0.00  0.00    +0.000 A 
ENDBRANCH  18  19
ENDBRANCH  17  18
ENDBRANCH  16  17
ENDBRANCH  15  16
ENDBRANCH  14  15
ENDBRANCH  13  14
ENDBRANCH   1  13
TORSDOF 17
ENDMDL
MODEL 6
REMARK VINA RESULT:      -5.4      4.974      7.400
REMARK  Name = 
REMARK  19 active torsions:
REMARK  status: ('A' for Active; 'I' for Inactive)
REMARK    1  A    between atoms: C_1  and  C_2
REMARK    2  A    between atoms: C_2  and  C_3
REMARK    3  A    between atoms: C_3  and  C_4
REMARK    4  A    between atoms: C_4  and  C_5
REMARK    5  A    between atoms: C_5  and  C_6
REMARK    6  A    between atoms: C_6  and  C_7
REMARK    7  A    between atoms: C_7  and  C_8
REMARK    8  A    between atoms: C_8  and  C_9
REMARK    9  A    between atoms: C_9  and  C_10
REMARK   10  A    between atoms: C_10  and  C_11
REMARK   11  A    between atoms: C_11  and  C_12
REMARK   12  A    between atoms: C_12  and  C_13
REMARK   13  A    between atoms: C_13  and  C_14
REMARK   14  A    between atoms: C_14  and  C_15
REMARK   15  A    between atoms: C_15  and  C_16
REMARK   16  A    between atoms: C_16  and  C_17
REMARK   17  A    between atoms: C_17  and  C_18
REMARK   18  A    between atoms: C_18  and  N_19
REMARK   19  A    between atoms: N_22  and  C_23
REMARK                            x       y       z     vdW  Elec       q    Type
REMARK                         _______ _______ _______ _____ _____    ______ ____
ROOT
ATOM      1  C   UNL     1       2.037   5.017  20.819  0.00  0.00    +0.000 C 
ENDROOT
BRANCH   1   2
ATOM      2  C   UNL     1       0.894   4.175  20.290  0.00  0.00    +0.000 C 
BRANCH   2   3
ATOM      3  C   UNL     1       1.323   2.724  20.201  0.00  0.00    +0.000 C 
BRANCH   3   4
ATOM      4  C   UNL     1       1.821   2.423  18.801  0.00  0.00    +0.000 C 
BRANCH   4   5
ATOM      5  C   UNL     1       3.289   2.052  18.848  0.00  0.00    +0.000 C 
BRANCH   5   6
ATOM      6  C   UNL     1       4.079   2.968  17.935  0.00  0.00    +0.000 C 
BRANCH   6   7
ATOM      7  C   UNL     1       4.969   3.861  18.767  0.00  0.00    +0.000 C 
BRANCH   7   8
ATOM      8  C   UNL     1       6.147   4.371  17.951  0.00  0.00    +0.000 C 
BRANCH   8   9
ATOM      9  C   UNL     1       5.886   5.803  17.499  0.00  0.00    +0.000 C 
BRANCH   9  10
ATOM     10  C   UNL     1       5.108   5.847  16.182  0.00  0.00    +0.000 C 
BRANCH  10  12
ATOM     11  C   UNL     1       5.736   4.139  14.405  0.00  0.00    +0.000 C 
ATOM     12  C   UNL     1       6.014   5.507  15.006  0.00  0.00    +0.000 C 
ENDBRANCH  10  12
ENDBRANCH   9  10
ENDBRANCH   8   9
ENDBRANCH   7   8
ENDBRANCH   6   7
ENDBRANCH   5   6
ENDBRANCH   4   5
ENDBRANCH   3   4
ENDBRANCH   2   3
ENDBRANCH   1   2
BRANCH   1  13
ATOM     13  C   UNL     1       2.105   6.325  20.052  0.00  0.00    +0.000 C 
BRANCH  13  14
ATOM     14  C   UNL     1       2.377   6.050  18.585  0.00  0.00    +0.000 C 
BRANCH  14  15
ATOM     15  C   UNL     1       1.814   7.174  17.733  0.00  0.00    +0.000 C 
BRANCH  15  16
ATOM     16  C   UNL     1       2.572   8.463  18.008  0.00  0.00    +0.000 C 
BRANCH  16  17
ATOM     17  C   UNL     1       1.614   9.641  18.020  0.00  0.00    +0.000 C 
BRANCH  17  18
ATOM     18  C   UNL     1       1.003   9.824  19.400  0.00  0.00    +0.000 C 
BRANCH  18  19
ATOM     19  N   UNL     1       0.139  11.003  19.405  0.00  0.00    +0.000 N 
ATOM     20  C   UNL     1       0.396  12.184  18.725  0.00  0.00    +0.000 A 
ATOM     21  C   UNL     1      -0.705  12.975  18.902  0.00  0.00    +0.000 A 
ATOM     22  N   UNL     1      -1.587  12.260  19.696  0.00  0.00    +0.000 N 
ATOM     23  C   UNL     1      -2.905  12.701  20.110  0.00  0.00    +0.000 C 
ATOM     24  C   UNL     1      -1.049  11.083  20.007  0.00  0.00    +0.000 A 
ENDBRANCH  18  19
ENDBRANCH  17  18
ENDBRANCH  16  17
ENDBRANCH  15  16
ENDBRANCH  14  15
ENDBRANCH  13  14
ENDBRANCH   1  13
TORSDOF 17
ENDMDL
MODEL 7
REMARK VINA RESULT:      -5.4      4.672      7.129
REMARK  Name = 
REMARK  19 active torsions:
REMARK  status: ('A' for Active; 'I' for Inactive)
REMARK    1  A    between atoms: C_1  and  C_2
REMARK    2  A    between atoms: C_2  and  C_3
REMARK    3  A    between atoms: C_3  and  C_4
REMARK    4  A    between atoms: C_4  and  C_5
REMARK    5  A    between atoms: C_5  and  C_6
REMARK    6  A    between atoms: C_6  and  C_7
REMARK    7  A    between atoms: C_7  and  C_8
REMARK    8  A    between atoms: C_8  and  C_9
REMARK    9  A    between atoms: C_9  and  C_10
REMARK   10  A    between atoms: C_10  and  C_11
REMARK   11  A    between atoms: C_11  and  C_12
REMARK   12  A    between atoms: C_12  and  C_13
REMARK   13  A    between atoms: C_13  and  C_14
REMARK   14  A    between atoms: C_14  and  C_15
REMARK   15  A    between atoms: C_15  and  C_16
REMARK   16  A    between atoms: C_16  and  C_17
REMARK   17  A    between atoms: C_17  and  C_18
REMARK   18  A    between atoms: C_18  and  N_19
REMARK   19  A    between atoms: N_22  and  C_23
REMARK                            x       y       z     vdW  Elec       q    Type
REMARK                         _______ _______ _______ _____ _____    ______ ____
ROOT
ATOM      1  C   UNL     1       1.676   3.178  20.201  0.00  0.00    +0.000 C 
ENDROOT
BRANCH   1   2
ATOM      2  C   UNL     1       1.252   3.310  18.751  0.00  0.00    +0.000 C 
BRANCH   2   3
ATOM      3  C   UNL     1       2.017   2.316  17.900  0.00  0.00    +0.000 C 
BRANCH   3   4
ATOM      4  C   UNL     1       3.437   2.187  18.415  0.00  0.00    +0.000 C 
BRANCH   4   5
ATOM      5  C   UNL     1       4.241   3.404  18.008  0.00  0.00    +0.000 C 
BRANCH   5   6
ATOM      6  C   UNL     1       5.121   3.846  19.160  0.00  0.00    +0.000 C 
BRANCH   6   7
ATOM      7  C   UNL     1       5.469   5.308  18.995  0.00  0.00    +0.000 C 
BRANCH   7   8
ATOM      8  C   UNL     1       6.942   5.555  19.285  0.00  0.00    +0.000 C 
BRANCH   8   9
ATOM      9  C   UNL     1       7.758   5.388  18.009  0.00  0.00    +0.000 C 
BRANCH   9  10
ATOM     10  C   UNL     1       6.962   5.804  16.771  0.00  0.00    +0.000 C 
BRANCH  10  12
ATOM     11  C   UNL     1       5.676   4.623  14.919  0.00  0.00    +0.000 C 
ATOM     12  C   UNL     1       6.961   4.692  15.729  0.00  0.00    +0.000 C 
ENDBRANCH  10  12
ENDBRANCH   9  10
ENDBRANCH   8   9
ENDBRANCH   7   8
ENDBRANCH   6   7
ENDBRANCH   5   6
ENDBRANCH   4   5
ENDBRANCH   3   4
ENDBRANCH   2   3
ENDBRANCH   1   2
BRANCH   1  13
ATOM     13  C   UNL     1       1.682   4.547  20.857  0.00  0.00    +0.000 C 
BRANCH  13  14
ATOM     14  C   UNL     1       1.359   5.614  19.829  0.00  0.00    +0.000 C 
BRANCH  14  15
ATOM     15  C   UNL     1       2.424   6.697  19.852  0.00  0.00    +0.000 C 
BRANCH  15  16
ATOM     16  C   UNL     1       2.690   7.192  18.440  0.00  0.00    +0.000 C 
BRANCH  16  17
ATOM     17  C   UNL     1       1.577   8.125  17.993  0.00  0.00    +0.000 C 
BRANCH  17  18
ATOM     18  C   UNL     1       2.046   9.571  18.013  0.00  0.00    +0.000 C 
BRANCH  18  19
ATOM     19  N   UNL     1       0.961  10.436  18.471  0.00  0.00    +0.000 N 
ATOM     20  C   UNL     1      -0.387  10.222  18.229  0.00  0.00    +0.000 A 
ATOM     21  C   UNL     1      -1.059  11.190  18.922  0.00  0.00    +0.000 A 
ATOM     22  N   UNL     1      -0.101  11.971  19.548  0.00  0.00    +0.000 N 
ATOM     23  C   UNL     1      -0.365  13.098  20.422  0.00  0.00    +0.000 C 
ATOM     24  C   UNL     1       1.111  11.513  19.244  0.00  0.00    +0.000 A 
ENDBRANCH  18  19
ENDBRANCH  17  18
ENDBRANCH  16  17
ENDBRANCH  15  16
ENDBRANCH  14  15
ENDBRANCH  13  14
ENDBRANCH   1  13
TORSDOF 17
ENDMDL
MODEL 8
REMARK VINA RESULT:      -5.3      1.368      2.289
REMARK  Name = 
REMARK  19 active torsions:
REMARK  status: ('A' for Active; 'I' for Inactive)
REMARK    1  A    between atoms: C_1  and  C_2
REMARK    2  A    between atoms: C_2  and  C_3
REMARK    3  A    between atoms: C_3  and  C_4
REMARK    4  A    between atoms: C_4  and  C_5
REMARK    5  A    between atoms: C_5  and  C_6
REMARK    6  A    between atoms: C_6  and  C_7
REMARK    7  A    between atoms: C_7  and  C_8
REMARK    8  A    between atoms: C_8  and  C_9
REMARK    9  A    between atoms: C_9  and  C_10
REMARK   10  A    between atoms: C_10  and  C_11
REMARK   11  A    between atoms: C_11  and  C_12
REMARK   12  A    between atoms: C_12  and  C_13
REMARK   13  A    between atoms: C_13  and  C_14
REMARK   14  A    between atoms: C_14  and  C_15
REMARK   15  A    between atoms: C_15  and  C_16
REMARK   16  A    between atoms: C_16  and  C_17
REMARK   17  A    between atoms: C_17  and  C_18
REMARK   18  A    between atoms: C_18  and  N_19
REMARK   19  A    between atoms: N_22  and  C_23
REMARK                            x       y       z     vdW  Elec       q    Type
REMARK                         _______ _______ _______ _____ _____    ______ ____
ROOT
ATOM      1  C   UNL     1       4.779   4.914  16.556  0.00  0.00    +0.000 C 
ENDROOT
BRANCH   1   2
ATOM      2  C   UNL     1       4.972   4.610  18.029  0.00  0.00    +0.000 C 
BRANCH   2   3
ATOM      3  C   UNL     1       4.494   5.782  18.863  0.00  0.00    +0.000 C 
BRANCH   3   4
ATOM      4  C   UNL     1       3.335   6.467  18.165  0.00  0.00    +0.000 C 
BRANCH   4   5
ATOM      5  C   UNL     1       2.027   6.013  18.779  0.00  0.00    +0.000 C 
BRANCH   5   6
ATOM      6  C   UNL     1       2.063   6.228  20.279  0.00  0.00    +0.000 C 
BRANCH   6   7
ATOM      7  C   UNL     1       1.954   4.895  20.981  0.00  0.00    +0.000 C 
BRANCH   7   8
ATOM      8  C   UNL     1       0.797   4.078  20.425  0.00  0.00    +0.000 C 
BRANCH   8   9
ATOM      9  C   UNL     1       1.241   2.638  20.195  0.00  0.00    +0.000 C 
BRANCH   9  10
ATOM     10  C   UNL     1       0.957   2.182  18.762  0.00  0.00    +0.000 C 
BRANCH  10  12
ATOM     11  C   UNL     1       3.407   1.553  18.488  0.00  0.00    +0.000 C 
ATOM     12  C   UNL     1       2.211   2.285  17.903  0.00  0.00    +0.000 C 
ENDBRANCH  10  12
ENDBRANCH   9  10
ENDBRANCH   8   9
ENDBRANCH   7   8
ENDBRANCH   6   7
ENDBRANCH   5   6
ENDBRANCH   4   5
ENDBRANCH   3   4
ENDBRANCH   2   3
ENDBRANCH   1   2
BRANCH   1  13
ATOM     13  C   UNL     1       5.804   5.942  16.110  0.00  0.00    +0.000 C 
BRANCH  13  14
ATOM     14  C   UNL     1       7.201   5.462  16.456  0.00  0.00    +0.000 C 
BRANCH  14  15
ATOM     15  C   UNL     1       7.745   6.255  17.631  0.00  0.00    +0.000 C 
BRANCH  15  16
ATOM     16  C   UNL     1       7.324   7.711  17.514  0.00  0.00    +0.000 C 
BRANCH  16  17
ATOM     17  C   UNL     1       8.283   8.598  18.290  0.00  0.00    +0.000 C 
BRANCH  17  18
ATOM     18  C   UNL     1       8.485   9.925  17.577  0.00  0.00    +0.000 C 
BRANCH  18  19
ATOM     19  N   UNL     1       9.347  10.791  18.379  0.00  0.00    +0.000 N 
ATOM     20  C   UNL     1      10.376  11.575  17.881  0.00  0.00    +0.000 A 
ATOM     21  C   UNL     1      10.846  12.306  18.937  0.00  0.00    +0.000 A 
ATOM     22  N   UNL     1      10.100  11.934  20.044  0.00  0.00    +0.000 N 
ATOM     23  C   UNL     1      10.233  12.482  21.380  0.00  0.00    +0.000 C 
ATOM     24  C   UNL     1       9.218  11.002  19.690  0.00  0.00    +0.000 A 
ENDBRANCH  18  19
ENDBRANCH  17  18
ENDBRANCH  16  17
ENDBRANCH  15  16
ENDBRANCH  14  15
ENDBRANCH  13  14
ENDBRANCH   1  13
TORSDOF 17
ENDMDL
MODEL 9
REMARK VINA RESULT:      -5.3      5.948      8.488
REMARK  Name = 
REMARK  19 active torsions:
REMARK  status: ('A' for Active; 'I' for Inactive)
REMARK    1  A    between atoms: C_1  and  C_2
REMARK    2  A    between atoms: C_2  and  C_3
REMARK    3  A    between atoms: C_3  and  C_4
REMARK    4  A    between atoms: C_4  and  C_5
REMARK    5  A    between atoms: C_5  and  C_6
REMARK    6  A    between atoms: C_6  and  C_7
REMARK    7  A    between atoms: C_7  and  C_8
REMARK    8  A    between atoms: C_8  and  C_9
REMARK    9  A    between atoms: C_9  and  C_10
REMARK   10  A    between atoms: C_10  and  C_11
REMARK   11  A    between atoms: C_11  and  C_12
REMARK   12  A    between atoms: C_12  and  C_13
REMARK   13  A    between atoms: C_13  and  C_14
REMARK   14  A    between atoms: C_14  and  C_15
REMARK   15  A    between atoms: C_15  and  C_16
REMARK   16  A    between atoms: C_16  and  C_17
REMARK   17  A    between atoms: C_17  and  C_18
REMARK   18  A    between atoms: C_18  and  N_19
REMARK   19  A    between atoms: N_22  and  C_23
REMARK                            x       y       z     vdW  Elec       q    Type
REMARK                         _______ _______ _______ _____ _____    ______ ____
ROOT
ATOM      1  C   UNL     1       2.557   6.926  18.372  0.00  0.00    +0.000 C 
ENDROOT
BRANCH   1   2
ATOM      2  C   UNL     1       3.950   6.461  17.995  0.00  0.00    +0.000 C 
BRANCH   2   3
ATOM      3  C   UNL     1       4.542   5.644  19.126  0.00  0.00    +0.000 C 
BRANCH   3   4
ATOM      4  C   UNL     1       4.694   4.201  18.688  0.00  0.00    +0.000 C 
BRANCH   4   5
ATOM      5  C   UNL     1       4.592   4.109  17.180  0.00  0.00    +0.000 C 
BRANCH   5   6
ATOM      6  C   UNL     1       3.379   3.284  16.797  0.00  0.00    +0.000 C 
BRANCH   6   7
ATOM      7  C   UNL     1       2.758   2.697  18.043  0.00  0.00    +0.000 C 
BRANCH   7   8
ATOM      8  C   UNL     1       1.294   3.093  18.162  0.00  0.00    +0.000 C 
BRANCH   8   9
ATOM      9  C   UNL     1       0.828   2.931  19.604  0.00  0.00    +0.000 C 
BRANCH   9  10
ATOM     10  C   UNL     1       1.018   4.220  20.407  0.00  0.00    +0.000 C 
BRANCH  10  12
ATOM     11  C   UNL     1       2.513   2.618  21.699  0.00  0.00    +0.000 C 
ATOM     12  C   UNL     1       2.146   4.066  21.419  0.00  0.00    +0.000 C 
ENDBRANCH  10  12
ENDBRANCH   9  10
ENDBRANCH   8   9
ENDBRANCH   7   8
ENDBRANCH   6   7
ENDBRANCH   5   6
ENDBRANCH   4   5
ENDBRANCH   3   4
ENDBRANCH   2   3
ENDBRANCH   1   2
BRANCH   1  13
ATOM     13  C   UNL     1       2.135   8.065  17.461  0.00  0.00    +0.000 C 
BRANCH  13  14
ATOM     14  C   UNL     1       2.298   9.390  18.181  0.00  0.00    +0.000 C 
BRANCH  14  15
ATOM     15  C   UNL     1       1.041   9.708  18.972  0.00  0.00    +0.000 C 
BRANCH  15  16
ATOM     16  C   UNL     1      -0.114   9.982  18.023  0.00  0.00    +0.000 C 
BRANCH  16  17
ATOM     17  C   UNL     1      -0.777  11.303  18.372  0.00  0.00    +0.000 C 
BRANCH  17  18
ATOM     18  C   UNL     1      -2.092  11.070  19.100  0.00  0.00    +0.000 C 
BRANCH  18  19
ATOM     19  N   UNL     1      -3.210  11.372  18.209  0.00  0.00    +0.000 N 
ATOM     20  C   UNL     1      -3.236  11.116  16.846  0.00  0.00    +0.000 A 
ATOM     21  C   UNL     1      -4.495  11.440  16.420  0.00  0.00    +0.000 A 
ATOM     22  N   UNL     1      -5.187  11.897  17.530  0.00  0.00    +0.000 N 
ATOM     23  C   UNL     1      -6.574  12.319  17.550  0.00  0.00    +0.000 C 
ATOM     24  C   UNL     1      -4.387  11.870  18.593  0.00  0.00    +0.000 A 
ENDBRANCH  18  19
ENDBRANCH  17  18
ENDBRANCH  16  17
ENDBRANCH  15  16
ENDBRANCH  14  15
ENDBRANCH  13  14
ENDBRANCH   1  13
TORSDOF 17
ENDMDL
