MODEL 1
REMARK VINA RESULT:      -7.5      0.000      0.000
REMARK  Name = 
REMARK  4 active torsions:
REMARK  status: ('A' for Active; 'I' for Inactive)
REMARK    1  A    between atoms: C_1  and  C_2
REMARK    2  A    between atoms: C_5  and  C_6
REMARK    3  A    between atoms: C_6  and  C_7
REMARK    4  A    between atoms: C_7  and  N_8
REMARK                            x       y       z     vdW  Elec       q    Type
REMARK                         _______ _______ _______ _____ _____    ______ ____
ROOT
ATOM      1  N   UNL     1       5.273   4.906  17.049  0.00  0.00    +0.000 N 
ATOM      2  C   UNL     1       6.057   4.575  18.124  0.00  0.00    +0.000 C 
ATOM      3  O   UNL     1       5.754   3.839  19.052  0.00  0.00    +0.000 OA
ATOM      4  C   UNL     1       7.415   5.241  17.936  0.00  0.00    +0.000 C 
ATOM      5  C   UNL     1       7.994   6.034  19.086  0.00  0.00    +0.000 C 
ATOM      6  C   UNL     1       8.212   7.455  18.553  0.00  0.00    +0.000 C 
ATOM      7  C   UNL     1       7.583   7.519  17.164  0.00  0.00    +0.000 C 
ATOM      8  N   UNL     1       7.098   6.187  16.900  0.00  0.00    +0.000 N 
ATOM      9  C   UNL     1       5.825   5.966  16.382  0.00  0.00    +0.000 C 
ATOM     10  O   UNL     1       5.264   6.681  15.569  0.00  0.00    +0.000 OA
ENDROOT
BRANCH   1  11
ATOM     11  C   UNL     1       3.921   4.419  16.827  0.00  0.00    +0.000 C 
BRANCH  11  12
ATOM     12  C   UNL     1       2.857   5.205  17.602  0.00  0.00    +0.000 C 
BRANCH  12  17
ATOM     13  C   UNL     1       1.067   2.317  22.355  0.00  0.00    +0.000 C 
ATOM     14  C   UNL     1       1.505   3.067  21.131  0.00  0.00    +0.000 A 
ATOM     15  C   UNL     1       1.277   2.552  19.849  0.00  0.00    +0.000 A 
ATOM     16  C   UNL     1       1.706   3.247  18.716  0.00  0.00    +0.000 A 
ATOM     17  C   UNL     1       2.379   4.471  18.835  0.00  0.00    +0.000 A 
ATOM     18  C   UNL     1       2.593   4.992  20.118  0.00  0.00    +0.000 A 
ATOM     19  C   UNL     1       2.163   4.295  21.254  0.00  0.00    +0.000 A 
ENDBRANCH  12  17
ENDBRANCH  11  12
ENDBRANCH   1  11
TORSDOF 3
ENDMDL
MODEL 2
REMARK VINA RESULT:      -7.4      1.954      5.918
REMARK  Name = 
REMARK  4 active torsions:
REMARK  status: ('A' for Active; 'I' for Inactive)
REMARK    1  A    between atoms: C_1  and  C_2
REMARK    2  A    between atoms: C_5  and  C_6
REMARK    3  A    between atoms: C_6  and  C_7
REMARK    4  A    between atoms: C_7  and  N_8
REMARK                            x       y       z     vdW  Elec       q    Type
REMARK                         _______ _______ _______ _____ _____    ______ ____
ROOT
ATOM      1  N   UNL     1       3.690   3.354  18.181  0.00  0.00    +0.000 N 
ATOM      2  C   UNL     1       4.122   3.229  19.476  0.00  0.00    +0.000 C 
ATOM      3  O   UNL     1       5.189   2.765  19.849  0.00  0.00    +0.000 OA
ATOM      4  C   UNL     1       3.056   3.829  20.385  0.00  0.00    +0.000 C 
ATOM      5  C   UNL     1       2.579   3.019  21.569  0.00  0.00    +0.000 C 
ATOM      6  C   UNL     1       1.067   2.850  21.384  0.00  0.00    +0.000 C 
ATOM      7  C   UNL     1       0.715   3.400  20.005  0.00  0.00    +0.000 C 
ATOM      8  N   UNL     1       1.952   3.914  19.470  0.00  0.00    +0.000 N 
ATOM      9  C   UNL     1       2.350   3.635  18.165  0.00  0.00    +0.000 C 
ATOM     10  O   UNL     1       1.601   3.534  17.208  0.00  0.00    +0.000 OA
ENDROOT
BRANCH   1  11
ATOM     11  C   UNL     1       4.451   2.951  17.010  0.00  0.00    +0.000 C 
BRANCH  11  12
ATOM     12  C   UNL     1       4.765   4.113  16.060  0.00  0.00    +0.000 C 
BRANCH  12  17
ATOM     13  C   UNL     1       8.368   8.062  18.417  0.00  0.00    +0.000 C 
ATOM     14  C   UNL     1       7.433   7.044  17.832  0.00  0.00    +0.000 A 
ATOM     15  C   UNL     1       7.689   5.674  17.957  0.00  0.00    +0.000 A 
ATOM     16  C   UNL     1       6.824   4.733  17.393  0.00  0.00    +0.000 A 
ATOM     17  C   UNL     1       5.685   5.139  16.685  0.00  0.00    +0.000 A 
ATOM     18  C   UNL     1       5.421   6.510  16.573  0.00  0.00    +0.000 A 
ATOM     19  C   UNL     1       6.289   7.453  17.139  0.00  0.00    +0.000 A 
ENDBRANCH  12  17
ENDBRANCH  11  12
ENDBRANCH   1  11
TORSDOF 3
ENDMDL
MODEL 3
REMARK VINA RESULT:      -7.4      1.791      6.272
REMARK  Name = 
REMARK  4 active torsions:
REMARK  status: ('A' for Active; 'I' for Inactive)
REMARK    1  A    between atoms: C_1  and  C_2
REMARK    2  A    between atoms: C_5  and  C_6
REMARK    3  A    between atoms: C_6  and  C_7
REMARK    4  A    between atoms: C_7  and  N_8
REMARK                            x       y       z     vdW  Elec       q    Type
REMARK                         _______ _______ _______ _____ _____    ______ ____
ROOT
ATOM      1  N   UNL     1       3.330   3.960  17.504  0.00  0.00    +0.000 N 
ATOM      2  C   UNL     1       2.752   4.976  18.219  0.00  0.00    +0.000 C 
ATOM      3  O   UNL     1       3.084   6.153  18.218  0.00  0.00    +0.000 OA
ATOM      4  C   UNL     1       1.568   4.396  18.984  0.00  0.00    +0.000 C 
ATOM      5  C   UNL     1       1.449   4.693  20.462  0.00  0.00    +0.000 C 
ATOM      6  C   UNL     1       1.438   3.333  21.168  0.00  0.00    +0.000 C 
ATOM      7  C   UNL     1       1.739   2.273  20.112  0.00  0.00    +0.000 C 
ATOM      8  N   UNL     1       1.846   2.991  18.867  0.00  0.00    +0.000 N 
ATOM      9  C   UNL     1       2.891   2.753  17.978  0.00  0.00    +0.000 C 
ATOM     10  O   UNL     1       3.401   1.665  17.768  0.00  0.00    +0.000 OA
ENDROOT
BRANCH   1  11
ATOM     11  C   UNL     1       4.457   4.119  16.599  0.00  0.00    +0.000 C 
BRANCH  11  12
ATOM     12  C   UNL     1       5.817   3.976  17.291  0.00  0.00    +0.000 C 
BRANCH  12  17
ATOM     13  C   UNL     1       8.467   9.103  18.193  0.00  0.00    +0.000 C 
ATOM     14  C   UNL     1       7.772   7.790  17.979  0.00  0.00    +0.000 A 
ATOM     15  C   UNL     1       8.118   6.661  18.732  0.00  0.00    +0.000 A 
ATOM     16  C   UNL     1       7.480   5.437  18.513  0.00  0.00    +0.000 A 
ATOM     17  C   UNL     1       6.486   5.310  17.533  0.00  0.00    +0.000 A 
ATOM     18  C   UNL     1       6.131   6.444  16.791  0.00  0.00    +0.000 A 
ATOM     19  C   UNL     1       6.771   7.670  17.010  0.00  0.00    +0.000 A 
ENDBRANCH  12  17
ENDBRANCH  11  12
ENDBRANCH   1  11
TORSDOF 3
ENDMDL
MODEL 4
REMARK VINA RESULT:      -7.4      1.943      5.950
REMARK  Name = 
REMARK  4 active torsions:
REMARK  status: ('A' for Active; 'I' for Inactive)
REMARK    1  A    between atoms: C_1  and  C_2
REMARK    2  A    between atoms: C_5  and  C_6
REMARK    3  A    between atoms: C_6  and  C_7
REMARK    4  A    between atoms: C_7  and  N_8
REMARK                            x       y       z     vdW  Elec       q    Type
REMARK                         _______ _______ _______ _____ _____    ______ ____
ROOT
ATOM      1  N   UNL     1       3.687   3.397  18.194  0.00  0.00    +0.000 N 
ATOM      2  C   UNL     1       4.128   3.229  19.481  0.00  0.00    +0.000 C 
ATOM      3  O   UNL     1       5.199   2.755  19.831  0.00  0.00    +0.000 OA
ATOM      4  C   UNL     1       3.067   3.795  20.417  0.00  0.00    +0.000 C 
ATOM      5  C   UNL     1       2.598   2.943  21.575  0.00  0.00    +0.000 C 
ATOM      6  C   UNL     1       1.085   2.777  21.394  0.00  0.00    +0.000 C 
ATOM      7  C   UNL     1       0.724   3.374  20.037  0.00  0.00    +0.000 C 
ATOM      8  N   UNL     1       1.956   3.908  19.512  0.00  0.00    +0.000 N 
ATOM      9  C   UNL     1       2.347   3.675  18.196  0.00  0.00    +0.000 C 
ATOM     10  O   UNL     1       1.592   3.606  17.241  0.00  0.00    +0.000 OA
ENDROOT
BRANCH   1  11
ATOM     11  C   UNL     1       4.442   3.037  17.004  0.00  0.00    +0.000 C 
BRANCH  11  12
ATOM     12  C   UNL     1       4.719   4.226  16.077  0.00  0.00    +0.000 C 
BRANCH  12  17
ATOM     13  C   UNL     1       8.411   8.072  18.465  0.00  0.00    +0.000 C 
ATOM     14  C   UNL     1       7.473   7.088  17.831  0.00  0.00    +0.000 A 
ATOM     15  C   UNL     1       6.342   7.519  17.126  0.00  0.00    +0.000 A 
ATOM     16  C   UNL     1       5.463   6.595  16.556  0.00  0.00    +0.000 A 
ATOM     17  C   UNL     1       5.688   5.218  16.681  0.00  0.00    +0.000 A 
ATOM     18  C   UNL     1       6.827   4.787  17.373  0.00  0.00    +0.000 A 
ATOM     19  C   UNL     1       7.708   5.714  17.945  0.00  0.00    +0.000 A 
ENDBRANCH  12  17
ENDBRANCH  11  12
ENDBRANCH   1  11
TORSDOF 3
ENDMDL
MODEL 5
REMARK VINA RESULT:      -7.4      1.785      6.252
REMARK  Name = 
REMARK  4 active torsions:
REMARK  status: ('A' for Active; 'I' for Inactive)
REMARK    1  A    between atoms: C_1  and  C_2
REMARK    2  A    between atoms: C_5  and  C_6
REMARK    3  A    between atoms: C_6  and  C_7
REMARK    4  A    between atoms: C_7  and  N_8
REMARK                            x       y       z     vdW  Elec       q    Type
REMARK                         _______ _______ _______ _____ _____    ______ ____
ROOT
ATOM      1  N   UNL     1       3.390   4.092  17.691  0.00  0.00    +0.000 N 
ATOM      2  C   UNL     1       2.901   5.079  18.506  0.00  0.00    +0.000 C 
ATOM      3  O   UNL     1       3.306   6.230  18.585  0.00  0.00    +0.000 OA
ATOM      4  C   UNL     1       1.709   4.511  19.267  0.00  0.00    +0.000 C 
ATOM      5  C   UNL     1       1.658   4.693  20.767  0.00  0.00    +0.000 C 
ATOM      6  C   UNL     1       1.585   3.283  21.363  0.00  0.00    +0.000 C 
ATOM      7  C   UNL     1       1.784   2.296  20.215  0.00  0.00    +0.000 C 
ATOM      8  N   UNL     1       1.895   3.106  19.028  0.00  0.00    +0.000 N 
ATOM      9  C   UNL     1       2.893   2.879  18.084  0.00  0.00    +0.000 C 
ATOM     10  O   UNL     1       3.326   1.783  17.769  0.00  0.00    +0.000 OA
ENDROOT
BRANCH   1  11
ATOM     11  C   UNL     1       4.495   4.256  16.759  0.00  0.00    +0.000 C 
BRANCH  11  12
ATOM     12  C   UNL     1       5.871   4.094  17.413  0.00  0.00    +0.000 C 
BRANCH  12  17
ATOM     13  C   UNL     1       8.519   9.236  18.240  0.00  0.00    +0.000 C 
ATOM     14  C   UNL     1       7.854   7.910  18.010  0.00  0.00    +0.000 A 
ATOM     15  C   UNL     1       6.894   7.750  17.003  0.00  0.00    +0.000 A 
ATOM     16  C   UNL     1       6.265   6.518  16.808  0.00  0.00    +0.000 A 
ATOM     17  C   UNL     1       6.574   5.418  17.619  0.00  0.00    +0.000 A 
ATOM     18  C   UNL     1       7.545   5.575  18.616  0.00  0.00    +0.000 A 
ATOM     19  C   UNL     1       8.175   6.810  18.811  0.00  0.00    +0.000 A 
ENDBRANCH  12  17
ENDBRANCH  11  12
ENDBRANCH   1  11
TORSDOF 3
ENDMDL
MODEL 6
REMARK VINA RESULT:      -7.3      0.216      1.105
REMARK  Name = 
REMARK  4 active torsions:
REMARK  status: ('A' for Active; 'I' for Inactive)
REMARK    1  A    between atoms: C_1  and  C_2
REMARK    2  A    between atoms: C_5  and  C_6
REMARK    3  A    between atoms: C_6  and  C_7
REMARK    4  A    between atoms: C_7  and  N_8
REMARK                            x       y       z     vdW  Elec       q    Type
REMARK                         _______ _______ _______ _____ _____    ______ ____
ROOT
ATOM      1  N   UNL     1       5.418   4.903  17.025  0.00  0.00    +0.000 N 
ATOM      2  C   UNL     1       6.157   4.616  18.143  0.00  0.00    +0.000 C 
ATOM      3  O   UNL     1       5.826   3.898  19.075  0.00  0.00    +0.000 OA
ATOM      4  C   UNL     1       7.509   5.306  18.001  0.00  0.00    +0.000 C 
ATOM      5  C   UNL     1       8.018   6.140  19.155  0.00  0.00    +0.000 C 
ATOM      6  C   UNL     1       8.231   7.551  18.597  0.00  0.00    +0.000 C 
ATOM      7  C   UNL     1       7.667   7.566  17.179  0.00  0.00    +0.000 C 
ATOM      8  N   UNL     1       7.222   6.218  16.928  0.00  0.00    +0.000 N 
ATOM      9  C   UNL     1       5.980   5.958  16.357  0.00  0.00    +0.000 C 
ATOM     10  O   UNL     1       5.443   6.640  15.500  0.00  0.00    +0.000 OA
ENDROOT
BRANCH   1  11
ATOM     11  C   UNL     1       4.088   4.383  16.753  0.00  0.00    +0.000 C 
BRANCH  11  12
ATOM     12  C   UNL     1       2.978   5.127  17.505  0.00  0.00    +0.000 C 
BRANCH  12  17
ATOM     13  C   UNL     1       1.149   2.316  22.288  0.00  0.00    +0.000 C 
ATOM     14  C   UNL     1       1.641   3.035  21.066  0.00  0.00    +0.000 A 
ATOM     15  C   UNL     1       2.016   4.383  21.124  0.00  0.00    +0.000 A 
ATOM     16  C   UNL     1       2.455   5.050  19.978  0.00  0.00    +0.000 A 
ATOM     17  C   UNL     1       2.522   4.389  18.744  0.00  0.00    +0.000 A 
ATOM     18  C   UNL     1       2.161   3.037  18.689  0.00  0.00    +0.000 A 
ATOM     19  C   UNL     1       1.721   2.369  19.839  0.00  0.00    +0.000 A 
ENDBRANCH  12  17
ENDBRANCH  11  12
ENDBRANCH   1  11
TORSDOF 3
ENDMDL
MODEL 7
REMARK VINA RESULT:      -7.3      2.610      5.477
REMARK  Name = 
REMARK  4 active torsions:
REMARK  status: ('A' for Active; 'I' for Inactive)
REMARK    1  A    between atoms: C_1  and  C_2
REMARK    2  A    between atoms: C_5  and  C_6
REMARK    3  A    between atoms: C_6  and  C_7
REMARK    4  A    between atoms: C_7  and  N_8
REMARK                            x       y       z     vdW  Elec       q    Type
REMARK                         _______ _______ _______ _____ _____    ______ ____
ROOT
ATOM      1  N   UNL     1       3.451   3.570  17.986  0.00  0.00    +0.000 N 
ATOM      2  C   UNL     1       2.085   3.462  18.026  0.00  0.00    +0.000 C 
ATOM      3  O   UNL     1       1.285   4.022  17.291  0.00  0.00    +0.000 OA
ATOM      4  C   UNL     1       1.726   2.464  19.121  0.00  0.00    +0.000 C 
ATOM      5  C   UNL     1       0.679   2.857  20.140  0.00  0.00    +0.000 C 
ATOM      6  C   UNL     1       1.365   2.766  21.507  0.00  0.00    +0.000 C 
ATOM      7  C   UNL     1       2.847   2.505  21.254  0.00  0.00    +0.000 C 
ATOM      8  N   UNL     1       2.977   2.388  19.823  0.00  0.00    +0.000 N 
ATOM      9  C   UNL     1       3.990   3.044  19.129  0.00  0.00    +0.000 C 
ATOM     10  O   UNL     1       5.123   3.224  19.543  0.00  0.00    +0.000 OA
ENDROOT
BRANCH   1  11
ATOM     11  C   UNL     1       4.191   4.383  17.035  0.00  0.00    +0.000 C 
BRANCH  11  12
ATOM     12  C   UNL     1       4.795   5.647  17.656  0.00  0.00    +0.000 C 
BRANCH  12  17
ATOM     13  C   UNL     1       0.770   9.468  19.478  0.00  0.00    +0.000 C 
ATOM     14  C   UNL     1       1.787   8.472  19.004  0.00  0.00    +0.000 A 
ATOM     15  C   UNL     1       2.183   7.404  19.818  0.00  0.00    +0.000 A 
ATOM     16  C   UNL     1       3.145   6.491  19.377  0.00  0.00    +0.000 A 
ATOM     17  C   UNL     1       3.740   6.628  18.115  0.00  0.00    +0.000 A 
ATOM     18  C   UNL     1       3.332   7.689  17.296  0.00  0.00    +0.000 A 
ATOM     19  C   UNL     1       2.367   8.603  17.738  0.00  0.00    +0.000 A 
ENDBRANCH  12  17
ENDBRANCH  11  12
ENDBRANCH   1  11
TORSDOF 3
ENDMDL
MODEL 8
REMARK VINA RESULT:      -7.3      2.690      5.446
REMARK  Name = 
REMARK  4 active torsions:
REMARK  status: ('A' for Active; 'I' for Inactive)
REMARK    1  A    between atoms: C_1  and  C_2
REMARK    2  A    between atoms: C_5  and  C_6
REMARK    3  A    between atoms: C_6  and  C_7
REMARK    4  A    between atoms: C_7  and  N_8
REMARK                            x       y       z     vdW  Elec       q    Type
REMARK                         _______ _______ _______ _____ _____    ______ ____
ROOT
ATOM      1  N   UNL     1       3.408   3.832  17.937  0.00  0.00    +0.000 N 
ATOM      2  C   UNL     1       2.050   3.666  18.022  0.00  0.00    +0.000 C 
ATOM      3  O   UNL     1       1.200   4.222  17.342  0.00  0.00    +0.000 OA
ATOM      4  C   UNL     1       1.774   2.608  19.084  0.00  0.00    +0.000 C 
ATOM      5  C   UNL     1       0.752   2.912  20.157  0.00  0.00    +0.000 C 
ATOM      6  C   UNL     1       1.493   2.792  21.493  0.00  0.00    +0.000 C 
ATOM      7  C   UNL     1       2.974   2.605  21.175  0.00  0.00    +0.000 C 
ATOM      8  N   UNL     1       3.054   2.554  19.736  0.00  0.00    +0.000 N 
ATOM      9  C   UNL     1       4.012   3.282  19.035  0.00  0.00    +0.000 C 
ATOM     10  O   UNL     1       5.152   3.491  19.415  0.00  0.00    +0.000 OA
ENDROOT
BRANCH   1  11
ATOM     11  C   UNL     1       4.078   4.716  16.996  0.00  0.00    +0.000 C 
BRANCH  11  12
ATOM     12  C   UNL     1       4.667   5.970  17.653  0.00  0.00    +0.000 C 
BRANCH  12  17
ATOM     13  C   UNL     1       0.490   9.596  19.533  0.00  0.00    +0.000 C 
ATOM     14  C   UNL     1       1.580   8.680  19.056  0.00  0.00    +0.000 A 
ATOM     15  C   UNL     1       2.166   8.852  17.797  0.00  0.00    +0.000 A 
ATOM     16  C   UNL     1       3.166   7.983  17.352  0.00  0.00    +0.000 A 
ATOM     17  C   UNL     1       3.599   6.917  18.152  0.00  0.00    +0.000 A 
ATOM     18  C   UNL     1       3.022   6.755  19.419  0.00  0.00    +0.000 A 
ATOM     19  C   UNL     1       2.020   7.626  19.863  0.00  0.00    +0.000 A 
ENDBRANCH  12  17
ENDBRANCH  11  12
ENDBRANCH   1  11
TORSDOF 3
ENDMDL
MODEL 9
REMARK VINA RESULT:      -7.2      1.942      6.439
REMARK  Name = 
REMARK  4 active torsions:
REMARK  status: ('A' for Active; 'I' for Inactive)
REMARK    1  A    between atoms: C_1  and  C_2
REMARK    2  A    between atoms: C_5  and  C_6
REMARK    3  A    between atoms: C_6  and  C_7
REMARK    4  A    between atoms: C_7  and  N_8
REMARK                            x       y       z     vdW  Elec       q    Type
REMARK                         _______ _______ _______ _____ _____    ______ ____
ROOT
ATOM      1  N   UNL     1       3.568   3.663  17.996  0.00  0.00    +0.000 N 
ATOM      2  C   UNL     1       2.207   3.505  17.975  0.00  0.00    +0.000 C 
ATOM      3  O   UNL     1       1.421   4.030  17.200  0.00  0.00    +0.000 OA
ATOM      4  C   UNL     1       1.835   2.503  19.062  0.00  0.00    +0.000 C 
ATOM      5  C   UNL     1       0.730   2.865  20.029  0.00  0.00    +0.000 C 
ATOM      6  C   UNL     1       1.356   2.809  21.427  0.00  0.00    +0.000 C 
ATOM      7  C   UNL     1       2.857   2.602  21.243  0.00  0.00    +0.000 C 
ATOM      8  N   UNL     1       3.056   2.479  19.820  0.00  0.00    +0.000 N 
ATOM      9  C   UNL     1       4.074   3.167  19.166  0.00  0.00    +0.000 C 
ATOM     10  O   UNL     1       5.180   3.391  19.629  0.00  0.00    +0.000 OA
ENDROOT
BRANCH   1  11
ATOM     11  C   UNL     1       4.321   4.496  17.072  0.00  0.00    +0.000 C 
BRANCH  11  12
ATOM     12  C   UNL     1       5.838   4.308  17.181  0.00  0.00    +0.000 C 
BRANCH  12  17
ATOM     13  C   UNL     1       8.690   9.260  18.393  0.00  0.00    +0.000 C 
ATOM     14  C   UNL     1       7.943   7.992  18.100  0.00  0.00    +0.000 A 
ATOM     15  C   UNL     1       8.230   6.810  18.794  0.00  0.00    +0.000 A 
ATOM     16  C   UNL     1       7.543   5.628  18.501  0.00  0.00    +0.000 A 
ATOM     17  C   UNL     1       6.560   5.597  17.504  0.00  0.00    +0.000 A 
ATOM     18  C   UNL     1       6.263   6.784  16.821  0.00  0.00    +0.000 A 
ATOM     19  C   UNL     1       6.951   7.968  17.114  0.00  0.00    +0.000 A 
ENDBRANCH  12  17
ENDBRANCH  11  12
ENDBRANCH   1  11
TORSDOF 3
ENDMDL
