MODEL 1
REMARK VINA RESULT:      -7.1      0.000      0.000
REMARK  Name = 
REMARK  5 active torsions:
REMARK  status: ('A' for Active; 'I' for Inactive)
REMARK    1  A    between atoms: C_2  and  C_3
REMARK    2  A    between atoms: C_3  and  C_4
REMARK    3  A    between atoms: C_4  and  C_5
REMARK    4  A    between atoms: C_8  and  S_9
REMARK    5  A    between atoms: N_11  and  C_12
REMARK                            x       y       z     vdW  Elec       q    Type
REMARK                         _______ _______ _______ _____ _____    ______ ____
ROOT
ATOM      1  O   UNL     1       6.910   4.093  18.568  0.00  0.00    +0.000 OA
ATOM      2  C   UNL     1       6.527   5.246  18.753  0.00  0.00    +0.000 C 
ATOM      3  N   UNL     1       5.214   5.675  18.796  0.00  0.00    +0.000 N 
ATOM      4  H   UNL     1       5.064   6.677  18.663  0.00  0.00    +0.000 HD
ENDROOT
BRANCH   3   5
ATOM      5  C   UNL     1       4.064   4.859  18.785  0.00  0.00    +0.000 A 
ATOM      6  C   UNL     1       3.337   4.579  17.625  0.00  0.00    +0.000 A 
ATOM      7  C   UNL     1       2.186   3.785  17.680  0.00  0.00    +0.000 A 
ATOM      8  C   UNL     1       1.753   3.257  18.896  0.00  0.00    +0.000 A 
ATOM      9 CL   UNL     1       0.306   2.316  18.896  0.00  0.00    +0.000 Cl
ATOM     10  C   UNL     1       2.492   3.507  20.058  0.00  0.00    +0.000 A 
ATOM     11 CL   UNL     1       2.024   2.880  21.598  0.00  0.00    +0.000 Cl
ATOM     12  C   UNL     1       3.648   4.298  19.998  0.00  0.00    +0.000 A 
ENDBRANCH   3   5
BRANCH   2  13
ATOM     13  C   UNL     1       7.539   6.365  18.898  0.00  0.00    +0.000 C 
BRANCH  13  14
ATOM     14  C   UNL     1       7.689   7.157  17.603  0.00  0.00    +0.000 C 
BRANCH  14  15
ATOM     15  C   UNL     1       6.902   6.573  16.485  0.00  0.00    +0.000 A 
ATOM     16  N   UNL     1       5.719   6.960  16.049  0.00  0.00    +0.000 NA
ATOM     17  N   UNL     1       5.349   6.121  15.021  0.00  0.00    +0.000 NA
ATOM     18  C   UNL     1       6.321   5.259  14.857  0.00  0.00    +0.000 A 
ATOM     19  N   UNL     1       7.317   5.493  15.750  0.00  0.00    +0.000 N 
ATOM     20  H   UNL     1       8.174   4.968  15.846  0.00  0.00    +0.000 HD
BRANCH  18  21
ATOM     21  S   UNL     1       6.419   3.982  13.716  0.00  0.00    +0.000 S 
ATOM     22  H   UNL     1       5.341   4.331  12.997  0.00  0.00    +0.000 HD
ENDBRANCH  18  21
ENDBRANCH  14  15
ENDBRANCH  13  14
ENDBRANCH   2  13
TORSDOF 5
ENDMDL
MODEL 2
REMARK VINA RESULT:      -7.0      3.974      4.547
REMARK  Name = 
REMARK  5 active torsions:
REMARK  status: ('A' for Active; 'I' for Inactive)
REMARK    1  A    between atoms: C_2  and  C_3
REMARK    2  A    between atoms: C_3  and  C_4
REMARK    3  A    between atoms: C_4  and  C_5
REMARK    4  A    between atoms: C_8  and  S_9
REMARK    5  A    between atoms: N_11  and  C_12
REMARK                            x       y       z     vdW  Elec       q    Type
REMARK                         _______ _______ _______ _____ _____    ______ ____
ROOT
ATOM      1  O   UNL     1       1.571   4.755  17.769  0.00  0.00    +0.000 OA
ATOM      2  C   UNL     1       2.648   4.931  18.335  0.00  0.00    +0.000 C 
ATOM      3  N   UNL     1       3.110   6.121  18.863  0.00  0.00    +0.000 N 
ATOM      4  H   UNL     1       4.117   6.179  19.029  0.00  0.00    +0.000 HD
ENDROOT
BRANCH   3   5
ATOM      5  C   UNL     1       2.382   7.322  18.989  0.00  0.00    +0.000 A 
ATOM      6  C   UNL     1       2.158   8.196  17.923  0.00  0.00    +0.000 A 
ATOM      7  C   UNL     1       1.452   9.389  18.115  0.00  0.00    +0.000 A 
ATOM      8  C   UNL     1       0.957   9.717  19.376  0.00  0.00    +0.000 A 
ATOM      9 CL   UNL     1       0.125  11.220  19.548  0.00  0.00    +0.000 Cl
ATOM     10  C   UNL     1       1.150   8.834  20.444  0.00  0.00    +0.000 A 
ATOM     11 CL   UNL     1       0.558   9.167  22.033  0.00  0.00    +0.000 Cl
ATOM     12  C   UNL     1       1.852   7.637  20.246  0.00  0.00    +0.000 A 
ENDBRANCH   3   5
BRANCH   2  13
ATOM     13  C   UNL     1       3.639   3.789  18.446  0.00  0.00    +0.000 C 
BRANCH  13  14
ATOM     14  C   UNL     1       4.994   4.269  18.953  0.00  0.00    +0.000 C 
BRANCH  14  15
ATOM     15  C   UNL     1       6.004   4.373  17.867  0.00  0.00    +0.000 A 
ATOM     16  N   UNL     1       7.316   4.410  17.993  0.00  0.00    +0.000 NA
ATOM     17  N   UNL     1       7.860   4.544  16.735  0.00  0.00    +0.000 NA
ATOM     18  C   UNL     1       6.866   4.572  15.884  0.00  0.00    +0.000 A 
ATOM     19  N   UNL     1       5.680   4.473  16.539  0.00  0.00    +0.000 N 
ATOM     20  H   UNL     1       4.761   4.481  16.122  0.00  0.00    +0.000 HD
BRANCH  18  21
ATOM     21  S   UNL     1       6.939   4.715  14.177  0.00  0.00    +0.000 S 
ATOM     22  H   UNL     1       8.192   4.255  14.035  0.00  0.00    +0.000 HD
ENDBRANCH  18  21
ENDBRANCH  14  15
ENDBRANCH  13  14
ENDBRANCH   2  13
TORSDOF 5
ENDMDL
MODEL 3
REMARK VINA RESULT:      -6.8      3.658      4.146
REMARK  Name = 
REMARK  5 active torsions:
REMARK  status: ('A' for Active; 'I' for Inactive)
REMARK    1  A    between atoms: C_2  and  C_3
REMARK    2  A    between atoms: C_3  and  C_4
REMARK    3  A    between atoms: C_4  and  C_5
REMARK    4  A    between atoms: C_8  and  S_9
REMARK    5  A    between atoms: N_11  and  C_12
REMARK                            x       y       z     vdW  Elec       q    Type
REMARK                         _______ _______ _______ _____ _____    ______ ____
ROOT
ATOM      1  O   UNL     1       7.304   5.204  19.970  0.00  0.00    +0.000 OA
ATOM      2  C   UNL     1       7.175   5.949  19.001  0.00  0.00    +0.000 C 
ATOM      3  N   UNL     1       6.124   5.949  18.104  0.00  0.00    +0.000 N 
ATOM      4  H   UNL     1       6.298   6.409  17.207  0.00  0.00    +0.000 HD
ENDROOT
BRANCH   3   5
ATOM      5  C   UNL     1       4.931   5.204  18.208  0.00  0.00    +0.000 A 
ATOM      6  C   UNL     1       4.627   4.126  17.373  0.00  0.00    +0.000 A 
ATOM      7  C   UNL     1       3.414   3.442  17.505  0.00  0.00    +0.000 A 
ATOM      8  C   UNL     1       2.493   3.825  18.479  0.00  0.00    +0.000 A 
ATOM      9 CL   UNL     1       1.003   2.958  18.563  0.00  0.00    +0.000 Cl
ATOM     10  C   UNL     1       2.801   4.884  19.340  0.00  0.00    +0.000 A 
ATOM     11 CL   UNL     1       1.715   5.410  20.577  0.00  0.00    +0.000 Cl
ATOM     12  C   UNL     1       4.020   5.563  19.209  0.00  0.00    +0.000 A 
ENDBRANCH   3   5
BRANCH   2  13
ATOM     13  C   UNL     1       8.265   6.947  18.664  0.00  0.00    +0.000 C 
BRANCH  13  14
ATOM     14  C   UNL     1       7.734   8.087  17.802  0.00  0.00    +0.000 C 
BRANCH  14  15
ATOM     15  C   UNL     1       8.334   9.399  18.164  0.00  0.00    +0.000 A 
ATOM     16  N   UNL     1       8.285  10.521  17.471  0.00  0.00    +0.000 NA
ATOM     17  N   UNL     1       9.000  11.476  18.160  0.00  0.00    +0.000 NA
ATOM     18  C   UNL     1       9.450  10.911  19.252  0.00  0.00    +0.000 A 
ATOM     19  N   UNL     1       9.066   9.609  19.303  0.00  0.00    +0.000 N 
ATOM     20  H   UNL     1       9.288   8.945  20.031  0.00  0.00    +0.000 HD
BRANCH  18  21
ATOM     21  S   UNL     1      10.397  11.618  20.495  0.00  0.00    +0.000 S 
ATOM     22  H   UNL     1      10.304  10.597  21.361  0.00  0.00    +0.000 HD
ENDBRANCH  18  21
ENDBRANCH  14  15
ENDBRANCH  13  14
ENDBRANCH   2  13
TORSDOF 5
ENDMDL
MODEL 4
REMARK VINA RESULT:      -6.8      4.087      5.003
REMARK  Name = 
REMARK  5 active torsions:
REMARK  status: ('A' for Active; 'I' for Inactive)
REMARK    1  A    between atoms: C_2  and  C_3
REMARK    2  A    between atoms: C_3  and  C_4
REMARK    3  A    between atoms: C_4  and  C_5
REMARK    4  A    between atoms: C_8  and  S_9
REMARK    5  A    between atoms: N_11  and  C_12
REMARK                            x       y       z     vdW  Elec       q    Type
REMARK                         _______ _______ _______ _____ _____    ______ ____
ROOT
ATOM      1  O   UNL     1       1.140   4.384  19.379  0.00  0.00    +0.000 OA
ATOM      2  C   UNL     1       2.220   4.615  19.919  0.00  0.00    +0.000 C 
ATOM      3  N   UNL     1       2.834   5.848  20.025  0.00  0.00    +0.000 N 
ATOM      4  H   UNL     1       3.836   5.836  20.228  0.00  0.00    +0.000 HD
ENDROOT
BRANCH   3   5
ATOM      5  C   UNL     1       2.279   7.096  19.671  0.00  0.00    +0.000 A 
ATOM      6  C   UNL     1       2.394   7.648  18.393  0.00  0.00    +0.000 A 
ATOM      7  C   UNL     1       1.847   8.904  18.108  0.00  0.00    +0.000 A 
ATOM      8  C   UNL     1       1.173   9.618  19.098  0.00  0.00    +0.000 A 
ATOM      9 CL   UNL     1       0.553  11.176  18.686  0.00  0.00    +0.000 Cl
ATOM     10  C   UNL     1       1.027   9.060  20.372  0.00  0.00    +0.000 A 
ATOM     11 CL   UNL     1       0.197   9.880  21.647  0.00  0.00    +0.000 Cl
ATOM     12  C   UNL     1       1.571   7.799  20.652  0.00  0.00    +0.000 A 
ENDBRANCH   3   5
BRANCH   2  13
ATOM     13  C   UNL     1       3.039   3.475  20.491  0.00  0.00    +0.000 C 
BRANCH  13  14
ATOM     14  C   UNL     1       3.771   2.705  19.398  0.00  0.00    +0.000 C 
BRANCH  14  15
ATOM     15  C   UNL     1       4.880   3.489  18.796  0.00  0.00    +0.000 A 
ATOM     16  N   UNL     1       5.769   4.235  19.424  0.00  0.00    +0.000 NA
ATOM     17  N   UNL     1       6.590   4.806  18.477  0.00  0.00    +0.000 NA
ATOM     18  C   UNL     1       6.185   4.382  17.306  0.00  0.00    +0.000 A 
ATOM     19  N   UNL     1       5.115   3.558  17.447  0.00  0.00    +0.000 N 
ATOM     20  H   UNL     1       4.604   3.105  16.703  0.00  0.00    +0.000 HD
BRANCH  18  21
ATOM     21  S   UNL     1       6.836   4.754  15.764  0.00  0.00    +0.000 S 
ATOM     22  H   UNL     1       7.220   6.007  16.055  0.00  0.00    +0.000 HD
ENDBRANCH  18  21
ENDBRANCH  14  15
ENDBRANCH  13  14
ENDBRANCH   2  13
TORSDOF 5
ENDMDL
MODEL 5
REMARK VINA RESULT:      -6.7      3.869      4.245
REMARK  Name = 
REMARK  5 active torsions:
REMARK  status: ('A' for Active; 'I' for Inactive)
REMARK    1  A    between atoms: C_2  and  C_3
REMARK    2  A    between atoms: C_3  and  C_4
REMARK    3  A    between atoms: C_4  and  C_5
REMARK    4  A    between atoms: C_8  and  S_9
REMARK    5  A    between atoms: N_11  and  C_12
REMARK                            x       y       z     vdW  Elec       q    Type
REMARK                         _______ _______ _______ _____ _____    ______ ____
ROOT
ATOM      1  O   UNL     1       4.943   7.022  17.585  0.00  0.00    +0.000 OA
ATOM      2  C   UNL     1       4.162   6.100  17.809  0.00  0.00    +0.000 C 
ATOM      3  N   UNL     1       2.922   6.206  18.412  0.00  0.00    +0.000 N 
ATOM      4  H   UNL     1       2.530   5.341  18.789  0.00  0.00    +0.000 HD
ENDROOT
BRANCH   3   5
ATOM      5  C   UNL     1       2.253   7.401  18.750  0.00  0.00    +0.000 A 
ATOM      6  C   UNL     1       1.888   8.366  17.808  0.00  0.00    +0.000 A 
ATOM      7  C   UNL     1       1.251   9.546  18.207  0.00  0.00    +0.000 A 
ATOM      8  C   UNL     1       0.966   9.770  19.553  0.00  0.00    +0.000 A 
ATOM      9 CL   UNL     1       0.209  11.263  19.978  0.00  0.00    +0.000 Cl
ATOM     10  C   UNL     1       1.301   8.796  20.500  0.00  0.00    +0.000 A 
ATOM     11 CL   UNL     1       0.971   8.999  22.184  0.00  0.00    +0.000 Cl
ATOM     12  C   UNL     1       1.933   7.613  20.096  0.00  0.00    +0.000 A 
ENDBRANCH   3   5
BRANCH   2  13
ATOM     13  C   UNL     1       4.555   4.676  17.471  0.00  0.00    +0.000 C 
BRANCH  13  14
ATOM     14  C   UNL     1       6.068   4.525  17.353  0.00  0.00    +0.000 C 
BRANCH  14  15
ATOM     15  C   UNL     1       6.542   4.645  15.949  0.00  0.00    +0.000 A 
ATOM     16  N   UNL     1       7.403   5.520  15.465  0.00  0.00    +0.000 NA
ATOM     17  N   UNL     1       7.527   5.290  14.113  0.00  0.00    +0.000 NA
ATOM     18  C   UNL     1       6.750   4.279  13.818  0.00  0.00    +0.000 A 
ATOM     19  N   UNL     1       6.106   3.838  14.930  0.00  0.00    +0.000 N 
ATOM     20  H   UNL     1       5.442   3.079  14.979  0.00  0.00    +0.000 HD
BRANCH  18  21
ATOM     21  S   UNL     1       6.504   3.545  12.288  0.00  0.00    +0.000 S 
ATOM     22  H   UNL     1       7.113   4.494  11.560  0.00  0.00    +0.000 HD
ENDBRANCH  18  21
ENDBRANCH  14  15
ENDBRANCH  13  14
ENDBRANCH   2  13
TORSDOF 5
ENDMDL
MODEL 6
REMARK VINA RESULT:      -6.7      3.622      4.124
REMARK  Name = 
REMARK  5 active torsions:
REMARK  status: ('A' for Active; 'I' for Inactive)
REMARK    1  A    between atoms: C_2  and  C_3
REMARK    2  A    between atoms: C_3  and  C_4
REMARK    3  A    between atoms: C_4  and  C_5
REMARK    4  A    between atoms: C_8  and  S_9
REMARK    5  A    between atoms: N_11  and  C_12
REMARK                            x       y       z     vdW  Elec       q    Type
REMARK                         _______ _______ _______ _____ _____    ______ ____
ROOT
ATOM      1  O   UNL     1       7.223   5.247  19.882  0.00  0.00    +0.000 OA
ATOM      2  C   UNL     1       7.105   5.953  18.883  0.00  0.00    +0.000 C 
ATOM      3  N   UNL     1       6.051   5.935  17.989  0.00  0.00    +0.000 N 
ATOM      4  H   UNL     1       6.231   6.353  17.073  0.00  0.00    +0.000 HD
ENDROOT
BRANCH   3   5
ATOM      5  C   UNL     1       4.845   5.215  18.126  0.00  0.00    +0.000 A 
ATOM      6  C   UNL     1       4.488   4.156  17.289  0.00  0.00    +0.000 A 
ATOM      7  C   UNL     1       3.264   3.498  17.455  0.00  0.00    +0.000 A 
ATOM      8  C   UNL     1       2.388   3.889  18.467  0.00  0.00    +0.000 A 
ATOM      9 CL   UNL     1       0.881   3.056  18.593  0.00  0.00    +0.000 Cl
ATOM     10  C   UNL     1       2.751   4.929  19.329  0.00  0.00    +0.000 A 
ATOM     11 CL   UNL     1       1.722   5.463  20.611  0.00  0.00    +0.000 Cl
ATOM     12  C   UNL     1       3.980   5.582  19.163  0.00  0.00    +0.000 A 
ENDBRANCH   3   5
BRANCH   2  13
ATOM     13  C   UNL     1       8.211   6.916  18.502  0.00  0.00    +0.000 C 
BRANCH  13  14
ATOM     14  C   UNL     1       7.658   8.170  17.834  0.00  0.00    +0.000 C 
BRANCH  14  15
ATOM     15  C   UNL     1       8.390   9.399  18.236  0.00  0.00    +0.000 A 
ATOM     16  N   UNL     1       9.211   9.545  19.259  0.00  0.00    +0.000 NA
ATOM     17  N   UNL     1       9.638  10.855  19.277  0.00  0.00    +0.000 NA
ATOM     18  C   UNL     1       9.075  11.460  18.262  0.00  0.00    +0.000 A 
ATOM     19  N   UNL     1       8.280  10.597  17.579  0.00  0.00    +0.000 N 
ATOM     20  H   UNL     1       7.723  10.809  16.764  0.00  0.00    +0.000 HD
BRANCH  18  21
ATOM     21  S   UNL     1       9.244  13.097  17.782  0.00  0.00    +0.000 S 
ATOM     22  H   UNL     1       9.077  12.893  16.466  0.00  0.00    +0.000 HD
ENDBRANCH  18  21
ENDBRANCH  14  15
ENDBRANCH  13  14
ENDBRANCH   2  13
TORSDOF 5
ENDMDL
MODEL 7
REMARK VINA RESULT:      -6.6      3.742      4.148
REMARK  Name = 
REMARK  5 active torsions:
REMARK  status: ('A' for Active; 'I' for Inactive)
REMARK    1  A    between atoms: C_2  and  C_3
REMARK    2  A    between atoms: C_3  and  C_4
REMARK    3  A    between atoms: C_4  and  C_5
REMARK    4  A    between atoms: C_8  and  S_9
REMARK    5  A    between atoms: N_11  and  C_12
REMARK                            x       y       z     vdW  Elec       q    Type
REMARK                         _______ _______ _______ _____ _____    ______ ____
ROOT
ATOM      1  O   UNL     1       1.941   4.504  17.845  0.00  0.00    +0.000 OA
ATOM      2  C   UNL     1       3.080   4.811  18.190  0.00  0.00    +0.000 C 
ATOM      3  N   UNL     1       3.518   6.075  18.535  0.00  0.00    +0.000 N 
ATOM      4  H   UNL     1       4.529   6.224  18.510  0.00  0.00    +0.000 HD
ENDROOT
BRANCH   3   5
ATOM      5  C   UNL     1       2.717   7.225  18.702  0.00  0.00    +0.000 A 
ATOM      6  C   UNL     1       2.494   8.155  17.684  0.00  0.00    +0.000 A 
ATOM      7  C   UNL     1       1.713   9.292  17.916  0.00  0.00    +0.000 A 
ATOM      8  C   UNL     1       1.140   9.507  19.169  0.00  0.00    +0.000 A 
ATOM      9 CL   UNL     1       0.217  10.948  19.395  0.00  0.00    +0.000 Cl
ATOM     10  C   UNL     1       1.333   8.566  20.186  0.00  0.00    +0.000 A 
ATOM     11 CL   UNL     1       0.649   8.760  21.761  0.00  0.00    +0.000 Cl
ATOM     12  C   UNL     1       2.111   7.425  19.948  0.00  0.00    +0.000 A 
ENDBRANCH   3   5
BRANCH   2  13
ATOM     13  C   UNL     1       4.175   3.762  18.205  0.00  0.00    +0.000 C 
BRANCH  13  14
ATOM     14  C   UNL     1       5.553   4.387  18.021  0.00  0.00    +0.000 C 
BRANCH  14  15
ATOM     15  C   UNL     1       5.849   4.704  16.599  0.00  0.00    +0.000 A 
ATOM     16  N   UNL     1       6.098   5.889  16.077  0.00  0.00    +0.000 NA
ATOM     17  N   UNL     1       6.284   5.726  14.722  0.00  0.00    +0.000 NA
ATOM     18  C   UNL     1       6.153   4.449  14.464  0.00  0.00    +0.000 A 
ATOM     19  N   UNL     1       5.876   3.763  15.603  0.00  0.00    +0.000 N 
ATOM     20  H   UNL     1       5.718   2.769  15.682  0.00  0.00    +0.000 HD
BRANCH  18  21
ATOM     21  S   UNL     1       6.288   3.658  12.949  0.00  0.00    +0.000 S 
ATOM     22  H   UNL     1       5.447   2.649  13.224  0.00  0.00    +0.000 HD
ENDBRANCH  18  21
ENDBRANCH  14  15
ENDBRANCH  13  14
ENDBRANCH   2  13
TORSDOF 5
ENDMDL
MODEL 8
REMARK VINA RESULT:      -6.5      2.264      2.815
REMARK  Name = 
REMARK  5 active torsions:
REMARK  status: ('A' for Active; 'I' for Inactive)
REMARK    1  A    between atoms: C_2  and  C_3
REMARK    2  A    between atoms: C_3  and  C_4
REMARK    3  A    between atoms: C_4  and  C_5
REMARK    4  A    between atoms: C_8  and  S_9
REMARK    5  A    between atoms: N_11  and  C_12
REMARK                            x       y       z     vdW  Elec       q    Type
REMARK                         _______ _______ _______ _____ _____    ______ ____
ROOT
ATOM      1  O   UNL     1       4.973   6.623  17.784  0.00  0.00    +0.000 OA
ATOM      2  C   UNL     1       4.808   5.822  16.866  0.00  0.00    +0.000 C 
ATOM      3  N   UNL     1       4.167   4.600  16.952  0.00  0.00    +0.000 N 
ATOM      4  H   UNL     1       4.365   3.935  16.203  0.00  0.00    +0.000 HD
ENDROOT
BRANCH   3   5
ATOM      5  C   UNL     1       3.453   4.103  18.063  0.00  0.00    +0.000 A 
ATOM      6  C   UNL     1       2.112   4.409  18.309  0.00  0.00    +0.000 A 
ATOM      7  C   UNL     1       1.464   3.909  19.443  0.00  0.00    +0.000 A 
ATOM      8  C   UNL     1       2.150   3.093  20.342  0.00  0.00    +0.000 A 
ATOM      9 CL   UNL     1       1.298   2.540  21.738  0.00  0.00    +0.000 Cl
ATOM     10  C   UNL     1       3.484   2.757  20.089  0.00  0.00    +0.000 A 
ATOM     11 CL   UNL     1       4.396   1.744  21.151  0.00  0.00    +0.000 Cl
ATOM     12  C   UNL     1       4.128   3.254  18.947  0.00  0.00    +0.000 A 
ENDBRANCH   3   5
BRANCH   2  13
ATOM     13  C   UNL     1       5.388   6.111  15.496  0.00  0.00    +0.000 C 
BRANCH  13  14
ATOM     14  C   UNL     1       6.720   5.399  15.289  0.00  0.00    +0.000 C 
BRANCH  14  15
ATOM     15  C   UNL     1       6.820   4.759  13.951  0.00  0.00    +0.000 A 
ATOM     16  N   UNL     1       7.553   5.152  12.926  0.00  0.00    +0.000 NA
ATOM     17  N   UNL     1       7.318   4.288  11.880  0.00  0.00    +0.000 NA
ATOM     18  C   UNL     1       6.461   3.392  12.302  0.00  0.00    +0.000 A 
ATOM     19  N   UNL     1       6.113   3.641  13.590  0.00  0.00    +0.000 N 
ATOM     20  H   UNL     1       5.461   3.111  14.150  0.00  0.00    +0.000 HD
BRANCH  18  21
ATOM     21  S   UNL     1       5.808   2.064  11.435  0.00  0.00    +0.000 S 
ATOM     22  H   UNL     1       5.261   2.780  10.441  0.00  0.00    +0.000 HD
ENDBRANCH  18  21
ENDBRANCH  14  15
ENDBRANCH  13  14
ENDBRANCH   2  13
TORSDOF 5
ENDMDL
MODEL 9
REMARK VINA RESULT:      -6.5      4.752      5.530
REMARK  Name = 
REMARK  5 active torsions:
REMARK  status: ('A' for Active; 'I' for Inactive)
REMARK    1  A    between atoms: C_2  and  C_3
REMARK    2  A    between atoms: C_3  and  C_4
REMARK    3  A    between atoms: C_4  and  C_5
REMARK    4  A    between atoms: C_8  and  S_9
REMARK    5  A    between atoms: N_11  and  C_12
REMARK                            x       y       z     vdW  Elec       q    Type
REMARK                         _______ _______ _______ _____ _____    ______ ____
ROOT
ATOM      1  O   UNL     1       8.120   7.004  18.631  0.00  0.00    +0.000 OA
ATOM      2  C   UNL     1       7.653   7.770  17.792  0.00  0.00    +0.000 C 
ATOM      3  N   UNL     1       6.580   7.516  16.959  0.00  0.00    +0.000 N 
ATOM      4  H   UNL     1       6.499   8.113  16.134  0.00  0.00    +0.000 HD
ENDROOT
BRANCH   3   5
ATOM      5  C   UNL     1       5.724   6.396  17.012  0.00  0.00    +0.000 A 
ATOM      6  C   UNL     1       5.972   5.211  16.316  0.00  0.00    +0.000 A 
ATOM      7  C   UNL     1       5.071   4.142  16.383  0.00  0.00    +0.000 A 
ATOM      8  C   UNL     1       3.914   4.247  17.154  0.00  0.00    +0.000 A 
ATOM      9 CL   UNL     1       2.830   2.903  17.165  0.00  0.00    +0.000 Cl
ATOM     10  C   UNL     1       3.672   5.418  17.879  0.00  0.00    +0.000 A 
ATOM     11 CL   UNL     1       2.265   5.618  18.863  0.00  0.00    +0.000 Cl
ATOM     12  C   UNL     1       4.580   6.484  17.814  0.00  0.00    +0.000 A 
ENDBRANCH   3   5
BRANCH   2  13
ATOM     13  C   UNL     1       8.305   9.118  17.552  0.00  0.00    +0.000 C 
BRANCH  13  14
ATOM     14  C   UNL     1       8.918   9.680  18.829  0.00  0.00    +0.000 C 
BRANCH  14  15
ATOM     15  C   UNL     1       9.582  10.992  18.611  0.00  0.00    +0.000 A 
ATOM     16  N   UNL     1      10.878  11.237  18.556  0.00  0.00    +0.000 NA
ATOM     17  N   UNL     1      11.047  12.591  18.372  0.00  0.00    +0.000 NA
ATOM     18  C   UNL     1       9.853  13.126  18.309  0.00  0.00    +0.000 A 
ATOM     19  N   UNL     1       8.899  12.170  18.457  0.00  0.00    +0.000 N 
ATOM     20  H   UNL     1       7.900  12.314  18.460  0.00  0.00    +0.000 HD
BRANCH  18  21
ATOM     21  S   UNL     1       9.445  14.775  18.082  0.00  0.00    +0.000 S 
ATOM     22  H   UNL     1       8.113  14.608  18.080  0.00  0.00    +0.000 HD
ENDBRANCH  18  21
ENDBRANCH  14  15
ENDBRANCH  13  14
ENDBRANCH   2  13
TORSDOF 5
ENDMDL
