MODEL 1
REMARK VINA RESULT:      -8.4      0.000      0.000
REMARK  Name = 
REMARK  14 active torsions:
REMARK  status: ('A' for Active; 'I' for Inactive)
REMARK    1  A    between atoms: C_1  and  C_2
REMARK    2  A    between atoms: C_2  and  C_3
REMARK    3  A    between atoms: C_2  and  C_4
REMARK    4  A    between atoms: C_2  and  C_5
REMARK    5  A    between atoms: C_5  and  N_6
REMARK    6  A    between atoms: C_5  and  C_11
REMARK    7  A    between atoms: N_6  and  C_7
REMARK    8  A    between atoms: C_7  and  C_8
REMARK    9  A    between atoms: C_8  and  O_10
REMARK   10  A    between atoms: N_13  and  C_14
REMARK   11  A    between atoms: C_14  and  C_15
REMARK   12  A    between atoms: N_17  and  C_18
REMARK   13  A    between atoms: C_18  and  C_19
REMARK   14  A    between atoms: C_22  and  C_23
REMARK                            x       y       z     vdW  Elec       q    Type
REMARK                         _______ _______ _______ _____ _____    ______ ____
ROOT
ATOM      1  C   UNL     1       3.187   6.303  18.515  0.00  0.00    +0.000 C 
ATOM      2  C   UNL     1       3.679   5.507  19.769  0.00  0.00    +0.000 C 
ATOM      3  C   UNL     1       3.609   4.089  19.278  0.00  0.00    +0.000 A 
ATOM      4  C   UNL     1       4.286   2.986  19.768  0.00  0.00    +0.000 A 
ATOM      5  C   UNL     1       4.095   1.758  19.133  0.00  0.00    +0.000 A 
ATOM      6  C   UNL     1       3.218   1.643  18.038  0.00  0.00    +0.000 A 
ATOM      7  C   UNL     1       2.531   2.766  17.562  0.00  0.00    +0.000 A 
ATOM      8  C   UNL     1       2.750   3.984  18.179  0.00  0.00    +0.000 A 
ATOM      9  C   UNL     1       2.182   5.328  17.821  0.00  0.00    +0.000 C 
ENDROOT
BRANCH   1  12
ATOM     10  C   UNL     1       1.677   7.668  19.970  0.00  0.00    +0.000 C 
ATOM     11  O   UNL     1       1.340   6.656  20.568  0.00  0.00    +0.000 OA
ATOM     12  N   UNL     1       2.594   7.610  18.939  0.00  0.00    +0.000 N 
ATOM     13  H   UNL     1       3.097   8.454  18.686  0.00  0.00    +0.000 HD
BRANCH  10  14
ATOM     14  C   UNL     1       1.174   9.074  20.439  0.00  0.00    +0.000 C 
BRANCH  14  16
ATOM     15  C   UNL     1       1.089   9.264  17.806  0.00  0.00    +0.000 C 
ATOM     16  C   UNL     1       0.763   9.949  19.155  0.00  0.00    +0.000 C 
ATOM     17  C   UNL     1       1.465  11.330  19.106  0.00  0.00    +0.000 C 
ATOM     18  C   UNL     1      -0.776  10.150  19.141  0.00  0.00    +0.000 C 
ENDBRANCH  14  16
BRANCH  14  19
ATOM     19  N   UNL     1       0.049   8.870  21.417  0.00  0.00    +0.000 NA
ATOM     20  H   UNL     1       0.042   7.867  21.646  0.00  0.00    +0.000 HD
BRANCH  19  21
ATOM     21  C   UNL     1       0.284   9.610  22.690  0.00  0.00    +0.000 C 
BRANCH  21  22
ATOM     22  C   UNL     1      -0.620  10.832  22.802  0.00  0.00    +0.000 C 
ATOM     23  O   UNL     1      -1.698  10.818  23.380  0.00  0.00    +0.000 OA
BRANCH  22  24
ATOM     24  O   UNL     1      -0.065  11.945  22.239  0.00  0.00    +0.000 OA
ATOM     25  H   UNL     1       0.514  12.361  22.912  0.00  0.00    +0.000 HD
ENDBRANCH  22  24
ENDBRANCH  21  22
ENDBRANCH  19  21
ENDBRANCH  14  19
ENDBRANCH  10  14
ENDBRANCH   1  12
BRANCH   1  26
ATOM     26  C   UNL     1       4.480   6.564  17.657  0.00  0.00    +0.000 C 
ATOM     27  O   UNL     1       4.459   7.312  16.663  0.00  0.00    +0.000 OA
ATOM     28  N   UNL     1       5.592   5.800  17.967  0.00  0.00    +0.000 N 
ATOM     29  H   UNL     1       5.392   4.877  18.335  0.00  0.00    +0.000 HD
BRANCH  28  30
ATOM     30  C   UNL     1       6.788   5.884  17.164  0.00  0.00    +0.000 C 
BRANCH  30  31
ATOM     31  C   UNL     1       6.575   5.116  15.889  0.00  0.00    +0.000 A 
ATOM     32  C   UNL     1       7.285   5.423  14.720  0.00  0.00    +0.000 A 
ATOM     33  C   UNL     1       7.015   4.739  13.528  0.00  0.00    +0.000 A 
ATOM     34  C   UNL     1       6.033   3.740  13.494  0.00  0.00    +0.000 A 
ATOM     35  C   UNL     1       5.311   3.447  14.652  0.00  0.00    +0.000 A 
ATOM     36  C   UNL     1       5.580   4.127  15.839  0.00  0.00    +0.000 A 
BRANCH  34  37
ATOM     37  C   UNL     1       5.751   2.999  12.225  0.00  0.00    +0.000 C 
ATOM     38  N   UNL     1       6.543   2.091  11.744  0.00  0.00    +0.000 NA
ATOM     39  N   UNL     1       4.619   3.231  11.506  0.00  0.00    +0.000 N 
ATOM     40  H   UNL     1       7.392   1.993  12.303  0.00  0.00    +0.000 HD
ATOM     41  H   UNL     1       3.780   3.418  12.038  0.00  0.00    +0.000 HD
ATOM     42  H   UNL     1       4.488   2.489  10.824  0.00  0.00    +0.000 HD
ENDBRANCH  34  37
ENDBRANCH  30  31
ENDBRANCH  28  30
ENDBRANCH   1  26
TORSDOF 11
ENDMDL
MODEL 2
REMARK VINA RESULT:      -8.3      2.824      8.211
REMARK  Name = 
REMARK  14 active torsions:
REMARK  status: ('A' for Active; 'I' for Inactive)
REMARK    1  A    between atoms: C_1  and  C_2
REMARK    2  A    between atoms: C_2  and  C_3
REMARK    3  A    between atoms: C_2  and  C_4
REMARK    4  A    between atoms: C_2  and  C_5
REMARK    5  A    between atoms: C_5  and  N_6
REMARK    6  A    between atoms: C_5  and  C_11
REMARK    7  A    between atoms: N_6  and  C_7
REMARK    8  A    between atoms: C_7  and  C_8
REMARK    9  A    between atoms: C_8  and  O_10
REMARK   10  A    between atoms: N_13  and  C_14
REMARK   11  A    between atoms: C_14  and  C_15
REMARK   12  A    between atoms: N_17  and  C_18
REMARK   13  A    between atoms: C_18  and  C_19
REMARK   14  A    between atoms: C_22  and  C_23
REMARK                            x       y       z     vdW  Elec       q    Type
REMARK                         _______ _______ _______ _____ _____    ______ ____
ROOT
ATOM      1  C   UNL     1       3.682   5.286  18.109  0.00  0.00    +0.000 C 
ATOM      2  C   UNL     1       3.017   3.937  17.675  0.00  0.00    +0.000 C 
ATOM      3  C   UNL     1       2.412   3.464  18.965  0.00  0.00    +0.000 A 
ATOM      4  C   UNL     1       1.373   2.567  19.138  0.00  0.00    +0.000 A 
ATOM      5  C   UNL     1       0.945   2.293  20.437  0.00  0.00    +0.000 A 
ATOM      6  C   UNL     1       1.572   2.899  21.543  0.00  0.00    +0.000 A 
ATOM      7  C   UNL     1       2.630   3.795  21.353  0.00  0.00    +0.000 A 
ATOM      8  C   UNL     1       3.027   4.082  20.059  0.00  0.00    +0.000 A 
ATOM      9  C   UNL     1       4.087   5.042  19.599  0.00  0.00    +0.000 C 
ENDROOT
BRANCH   1  12
ATOM     10  C   UNL     1       6.031   4.946  17.315  0.00  0.00    +0.000 C 
ATOM     11  O   UNL     1       6.186   4.071  18.155  0.00  0.00    +0.000 OA
ATOM     12  N   UNL     1       4.825   5.610  17.199  0.00  0.00    +0.000 N 
ATOM     13  H   UNL     1       4.607   6.073  16.323  0.00  0.00    +0.000 HD
BRANCH  10  14
ATOM     14  C   UNL     1       7.152   5.252  16.267  0.00  0.00    +0.000 C 
BRANCH  14  16
ATOM     15  C   UNL     1       6.020   3.516  14.630  0.00  0.00    +0.000 C 
ATOM     16  C   UNL     1       6.601   4.942  14.789  0.00  0.00    +0.000 C 
ATOM     17  C   UNL     1       7.685   5.080  13.690  0.00  0.00    +0.000 C 
ATOM     18  C   UNL     1       5.417   5.895  14.471  0.00  0.00    +0.000 C 
ENDBRANCH  14  16
BRANCH  14  19
ATOM     19  N   UNL     1       7.600   6.676  16.459  0.00  0.00    +0.000 NA
ATOM     20  H   UNL     1       6.840   7.270  16.102  0.00  0.00    +0.000 HD
BRANCH  19  21
ATOM     21  C   UNL     1       7.777   7.009  17.901  0.00  0.00    +0.000 C 
BRANCH  21  22
ATOM     22  C   UNL     1       8.117   8.482  18.098  0.00  0.00    +0.000 C 
ATOM     23  O   UNL     1       8.968   8.874  18.884  0.00  0.00    +0.000 OA
BRANCH  22  24
ATOM     24  O   UNL     1       7.412   9.297  17.260  0.00  0.00    +0.000 OA
ATOM     25  H   UNL     1       7.159   8.767  16.475  0.00  0.00    +0.000 HD
ENDBRANCH  22  24
ENDBRANCH  21  22
ENDBRANCH  19  21
ENDBRANCH  14  19
ENDBRANCH  10  14
ENDBRANCH   1  12
BRANCH   1  26
ATOM     26  C   UNL     1       2.555   6.373  17.949  0.00  0.00    +0.000 C 
ATOM     27  O   UNL     1       1.405   6.066  17.586  0.00  0.00    +0.000 OA
ATOM     28  N   UNL     1       2.948   7.694  18.075  0.00  0.00    +0.000 N 
ATOM     29  H   UNL     1       3.901   7.889  17.790  0.00  0.00    +0.000 HD
BRANCH  28  30
ATOM     30  C   UNL     1       2.013   8.765  17.830  0.00  0.00    +0.000 C 
BRANCH  30  31
ATOM     31  C   UNL     1       1.335   9.127  19.122  0.00  0.00    +0.000 A 
ATOM     32  C   UNL     1       0.531  10.270  19.234  0.00  0.00    +0.000 A 
ATOM     33  C   UNL     1      -0.029  10.622  20.468  0.00  0.00    +0.000 A 
ATOM     34  C   UNL     1       0.206   9.834  21.602  0.00  0.00    +0.000 A 
ATOM     35  C   UNL     1       1.024   8.706  21.497  0.00  0.00    +0.000 A 
ATOM     36  C   UNL     1       1.582   8.355  20.268  0.00  0.00    +0.000 A 
BRANCH  34  37
ATOM     37  C   UNL     1      -0.401  10.200  22.919  0.00  0.00    +0.000 C 
ATOM     38  N   UNL     1      -0.040   9.658  24.041  0.00  0.00    +0.000 NA
ATOM     39  N   UNL     1      -1.370  11.151  23.013  0.00  0.00    +0.000 N 
ATOM     40  H   UNL     1       0.657   8.924  23.901  0.00  0.00    +0.000 HD
ATOM     41  H   UNL     1      -1.278  11.947  22.396  0.00  0.00    +0.000 HD
ATOM     42  H   UNL     1      -1.488  11.426  23.984  0.00  0.00    +0.000 HD
ENDBRANCH  34  37
ENDBRANCH  30  31
ENDBRANCH  28  30
ENDBRANCH   1  26
TORSDOF 11
ENDMDL
MODEL 3
REMARK VINA RESULT:      -8.3      1.007      1.540
REMARK  Name = 
REMARK  14 active torsions:
REMARK  status: ('A' for Active; 'I' for Inactive)
REMARK    1  A    between atoms: C_1  and  C_2
REMARK    2  A    between atoms: C_2  and  C_3
REMARK    3  A    between atoms: C_2  and  C_4
REMARK    4  A    between atoms: C_2  and  C_5
REMARK    5  A    between atoms: C_5  and  N_6
REMARK    6  A    between atoms: C_5  and  C_11
REMARK    7  A    between atoms: N_6  and  C_7
REMARK    8  A    between atoms: C_7  and  C_8
REMARK    9  A    between atoms: C_8  and  O_10
REMARK   10  A    between atoms: N_13  and  C_14
REMARK   11  A    between atoms: C_14  and  C_15
REMARK   12  A    between atoms: N_17  and  C_18
REMARK   13  A    between atoms: C_18  and  C_19
REMARK   14  A    between atoms: C_22  and  C_23
REMARK                            x       y       z     vdW  Elec       q    Type
REMARK                         _______ _______ _______ _____ _____    ______ ____
ROOT
ATOM      1  C   UNL     1       2.918   6.386  19.088  0.00  0.00    +0.000 C 
ATOM      2  C   UNL     1       3.459   5.295  20.072  0.00  0.00    +0.000 C 
ATOM      3  C   UNL     1       3.278   4.041  19.267  0.00  0.00    +0.000 A 
ATOM      4  C   UNL     1       3.930   2.830  19.422  0.00  0.00    +0.000 A 
ATOM      5  C   UNL     1       3.628   1.798  18.533  0.00  0.00    +0.000 A 
ATOM      6  C   UNL     1       2.668   1.979  17.520  0.00  0.00    +0.000 A 
ATOM      7  C   UNL     1       2.008   3.206  17.383  0.00  0.00    +0.000 A 
ATOM      8  C   UNL     1       2.336   4.232  18.251  0.00  0.00    +0.000 A 
ATOM      9  C   UNL     1       1.815   5.641  18.271  0.00  0.00    +0.000 C 
ENDROOT
BRANCH   1  12
ATOM     10  C   UNL     1       1.575   8.489  19.277  0.00  0.00    +0.000 C 
ATOM     11  O   UNL     1       1.192   8.346  18.124  0.00  0.00    +0.000 OA
ATOM     12  N   UNL     1       2.428   7.572  19.859  0.00  0.00    +0.000 N 
ATOM     13  H   UNL     1       2.469   7.519  20.871  0.00  0.00    +0.000 HD
BRANCH  10  14
ATOM     14  C   UNL     1       1.012   9.648  20.165  0.00  0.00    +0.000 C 
BRANCH  14  16
ATOM     15  C   UNL     1      -0.253  11.352  18.593  0.00  0.00    +0.000 C 
ATOM     16  C   UNL     1       1.063  11.026  19.340  0.00  0.00    +0.000 C 
ATOM     17  C   UNL     1       2.177  11.053  18.262  0.00  0.00    +0.000 C 
ATOM     18  C   UNL     1       1.268  12.208  20.325  0.00  0.00    +0.000 C 
ENDBRANCH  14  16
BRANCH  14  19
ATOM     19  N   UNL     1      -0.371   9.266  20.618  0.00  0.00    +0.000 NA
ATOM     20  H   UNL     1      -0.689   8.521  19.983  0.00  0.00    +0.000 HD
BRANCH  19  21
ATOM     21  C   UNL     1      -0.362   8.694  21.995  0.00  0.00    +0.000 C 
BRANCH  21  22
ATOM     22  C   UNL     1      -0.406   9.788  23.056  0.00  0.00    +0.000 C 
ATOM     23  O   UNL     1      -1.279  10.643  23.100  0.00  0.00    +0.000 OA
BRANCH  22  24
ATOM     24  O   UNL     1       0.598   9.666  23.973  0.00  0.00    +0.000 OA
ATOM     25  H   UNL     1       0.939  10.566  24.161  0.00  0.00    +0.000 HD
ENDBRANCH  22  24
ENDBRANCH  21  22
ENDBRANCH  19  21
ENDBRANCH  14  19
ENDBRANCH  10  14
ENDBRANCH   1  12
BRANCH   1  26
ATOM     26  C   UNL     1       4.157   6.802  18.211  0.00  0.00    +0.000 C 
ATOM     27  O   UNL     1       4.088   7.737  17.393  0.00  0.00    +0.000 OA
ATOM     28  N   UNL     1       5.268   5.979  18.280  0.00  0.00    +0.000 N 
ATOM     29  H   UNL     1       5.069   5.002  18.467  0.00  0.00    +0.000 HD
BRANCH  28  30
ATOM     30  C   UNL     1       6.408   6.211  17.427  0.00  0.00    +0.000 C 
BRANCH  30  31
ATOM     31  C   UNL     1       6.204   5.481  16.128  0.00  0.00    +0.000 A 
ATOM     32  C   UNL     1       5.044   4.733  15.882  0.00  0.00    +0.000 A 
ATOM     33  C   UNL     1       4.912   4.005  14.693  0.00  0.00    +0.000 A 
ATOM     34  C   UNL     1       5.938   4.019  13.738  0.00  0.00    +0.000 A 
ATOM     35  C   UNL     1       7.102   4.746  13.992  0.00  0.00    +0.000 A 
ATOM     36  C   UNL     1       7.234   5.471  15.175  0.00  0.00    +0.000 A 
BRANCH  34  37
ATOM     37  C   UNL     1       5.795   3.252  12.461  0.00  0.00    +0.000 C 
ATOM     38  N   UNL     1       4.696   3.221  11.773  0.00  0.00    +0.000 NA
ATOM     39  N   UNL     1       6.834   2.546  11.938  0.00  0.00    +0.000 N 
ATOM     40  H   UNL     1       3.942   3.732  12.237  0.00  0.00    +0.000 HD
ATOM     41  H   UNL     1       7.752   2.959  12.039  0.00  0.00    +0.000 HD
ATOM     42  H   UNL     1       6.627   2.294  10.976  0.00  0.00    +0.000 HD
ENDBRANCH  34  37
ENDBRANCH  30  31
ENDBRANCH  28  30
ENDBRANCH   1  26
TORSDOF 11
ENDMDL
MODEL 4
REMARK VINA RESULT:      -8.1      0.498      1.002
REMARK  Name = 
REMARK  14 active torsions:
REMARK  status: ('A' for Active; 'I' for Inactive)
REMARK    1  A    between atoms: C_1  and  C_2
REMARK    2  A    between atoms: C_2  and  C_3
REMARK    3  A    between atoms: C_2  and  C_4
REMARK    4  A    between atoms: C_2  and  C_5
REMARK    5  A    between atoms: C_5  and  N_6
REMARK    6  A    between atoms: C_5  and  C_11
REMARK    7  A    between atoms: N_6  and  C_7
REMARK    8  A    between atoms: C_7  and  C_8
REMARK    9  A    between atoms: C_8  and  O_10
REMARK   10  A    between atoms: N_13  and  C_14
REMARK   11  A    between atoms: C_14  and  C_15
REMARK   12  A    between atoms: N_17  and  C_18
REMARK   13  A    between atoms: C_18  and  C_19
REMARK   14  A    between atoms: C_22  and  C_23
REMARK                            x       y       z     vdW  Elec       q    Type
REMARK                         _______ _______ _______ _____ _____    ______ ____
ROOT
ATOM      1  C   UNL     1       3.428   6.287  18.331  0.00  0.00    +0.000 C 
ATOM      2  C   UNL     1       3.886   5.563  19.641  0.00  0.00    +0.000 C 
ATOM      3  C   UNL     1       3.756   4.118  19.254  0.00  0.00    +0.000 A 
ATOM      4  C   UNL     1       4.386   3.025  19.823  0.00  0.00    +0.000 A 
ATOM      5  C   UNL     1       4.143   1.764  19.278  0.00  0.00    +0.000 A 
ATOM      6  C   UNL     1       3.263   1.608  18.191  0.00  0.00    +0.000 A 
ATOM      7  C   UNL     1       2.624   2.721  17.633  0.00  0.00    +0.000 A 
ATOM      8  C   UNL     1       2.894   3.971  18.162  0.00  0.00    +0.000 A 
ATOM      9  C   UNL     1       2.383   5.308  17.706  0.00  0.00    +0.000 C 
ENDROOT
BRANCH   1  12
ATOM     10  C   UNL     1       1.948   7.810  19.655  0.00  0.00    +0.000 C 
ATOM     11  O   UNL     1       1.543   6.854  20.300  0.00  0.00    +0.000 OA
ATOM     12  N   UNL     1       2.890   7.645  18.659  0.00  0.00    +0.000 N 
ATOM     13  H   UNL     1       3.443   8.446  18.373  0.00  0.00    +0.000 HD
BRANCH  10  14
ATOM     14  C   UNL     1       1.504   9.265  20.023  0.00  0.00    +0.000 C 
BRANCH  14  16
ATOM     15  C   UNL     1      -0.605  10.353  18.866  0.00  0.00    +0.000 C 
ATOM     16  C   UNL     1       0.891   9.982  18.722  0.00  0.00    +0.000 C 
ATOM     17  C   UNL     1       0.988   9.113  17.442  0.00  0.00    +0.000 C 
ATOM     18  C   UNL     1       1.618  11.333  18.488  0.00  0.00    +0.000 C 
ENDBRANCH  14  16
BRANCH  14  19
ATOM     19  N   UNL     1       0.544   9.187  21.180  0.00  0.00    +0.000 NA
ATOM     20  H   UNL     1       0.863   8.405  21.769  0.00  0.00    +0.000 HD
BRANCH  19  21
ATOM     21  C   UNL     1       0.592  10.417  22.021  0.00  0.00    +0.000 C 
BRANCH  21  22
ATOM     22  C   UNL     1      -0.566  10.461  23.012  0.00  0.00    +0.000 C 
ATOM     23  O   UNL     1      -1.119  11.499  23.349  0.00  0.00    +0.000 OA
BRANCH  22  24
ATOM     24  O   UNL     1      -0.945   9.218  23.429  0.00  0.00    +0.000 OA
ATOM     25  H   UNL     1      -1.079   9.258  24.399  0.00  0.00    +0.000 HD
ENDBRANCH  22  24
ENDBRANCH  21  22
ENDBRANCH  19  21
ENDBRANCH  14  19
ENDBRANCH  10  14
ENDBRANCH   1  12
BRANCH   1  26
ATOM     26  C   UNL     1       4.731   6.431  17.462  0.00  0.00    +0.000 C 
ATOM     27  O   UNL     1       4.720   7.028  16.370  0.00  0.00    +0.000 OA
ATOM     28  N   UNL     1       5.843   5.728  17.892  0.00  0.00    +0.000 N 
ATOM     29  H   UNL     1       5.642   4.866  18.387  0.00  0.00    +0.000 HD
BRANCH  28  30
ATOM     30  C   UNL     1       7.049   5.703  17.100  0.00  0.00    +0.000 C 
BRANCH  30  31
ATOM     31  C   UNL     1       6.776   4.969  15.817  0.00  0.00    +0.000 A 
ATOM     32  C   UNL     1       7.355   5.371  14.605  0.00  0.00    +0.000 A 
ATOM     33  C   UNL     1       7.028   4.713  13.413  0.00  0.00    +0.000 A 
ATOM     34  C   UNL     1       6.119   3.645  13.421  0.00  0.00    +0.000 A 
ATOM     35  C   UNL     1       5.526   3.258  14.625  0.00  0.00    +0.000 A 
ATOM     36  C   UNL     1       5.852   3.912  15.811  0.00  0.00    +0.000 A 
BRANCH  34  37
ATOM     37  C   UNL     1       5.776   2.933  12.151  0.00  0.00    +0.000 C 
ATOM     38  N   UNL     1       6.530   2.016  11.628  0.00  0.00    +0.000 NA
ATOM     39  N   UNL     1       4.626   3.202  11.476  0.00  0.00    +0.000 N 
ATOM     40  H   UNL     1       7.396   1.889  12.155  0.00  0.00    +0.000 HD
ATOM     41  H   UNL     1       3.810   3.399  12.040  0.00  0.00    +0.000 HD
ATOM     42  H   UNL     1       4.455   2.475  10.788  0.00  0.00    +0.000 HD
ENDBRANCH  34  37
ENDBRANCH  30  31
ENDBRANCH  28  30
ENDBRANCH   1  26
TORSDOF 11
ENDMDL
MODEL 5
REMARK VINA RESULT:      -8.1      2.799      8.269
REMARK  Name = 
REMARK  14 active torsions:
REMARK  status: ('A' for Active; 'I' for Inactive)
REMARK    1  A    between atoms: C_1  and  C_2
REMARK    2  A    between atoms: C_2  and  C_3
REMARK    3  A    between atoms: C_2  and  C_4
REMARK    4  A    between atoms: C_2  and  C_5
REMARK    5  A    between atoms: C_5  and  N_6
REMARK    6  A    between atoms: C_5  and  C_11
REMARK    7  A    between atoms: N_6  and  C_7
REMARK    8  A    between atoms: C_7  and  C_8
REMARK    9  A    between atoms: C_8  and  O_10
REMARK   10  A    between atoms: N_13  and  C_14
REMARK   11  A    between atoms: C_14  and  C_15
REMARK   12  A    between atoms: N_17  and  C_18
REMARK   13  A    between atoms: C_18  and  C_19
REMARK   14  A    between atoms: C_22  and  C_23
REMARK                            x       y       z     vdW  Elec       q    Type
REMARK                         _______ _______ _______ _____ _____    ______ ____
ROOT
ATOM      1  C   UNL     1       3.665   4.889  18.238  0.00  0.00    +0.000 C 
ATOM      2  C   UNL     1       2.892   3.599  17.808  0.00  0.00    +0.000 C 
ATOM      3  C   UNL     1       2.165   3.242  19.073  0.00  0.00    +0.000 A 
ATOM      4  C   UNL     1       1.029   2.463  19.210  0.00  0.00    +0.000 A 
ATOM      5  C   UNL     1       0.499   2.287  20.489  0.00  0.00    +0.000 A 
ATOM      6  C   UNL     1       1.117   2.870  21.610  0.00  0.00    +0.000 A 
ATOM      7  C   UNL     1       2.272   3.646  21.457  0.00  0.00    +0.000 A 
ATOM      8  C   UNL     1       2.774   3.839  20.182  0.00  0.00    +0.000 A 
ATOM      9  C   UNL     1       3.953   4.667  19.757  0.00  0.00    +0.000 C 
ENDROOT
BRANCH   1  12
ATOM     10  C   UNL     1       5.535   3.961  16.857  0.00  0.00    +0.000 C 
ATOM     11  O   UNL     1       5.115   2.829  17.052  0.00  0.00    +0.000 OA
ATOM     12  N   UNL     1       4.888   5.058  17.392  0.00  0.00    +0.000 N 
ATOM     13  H   UNL     1       5.039   5.967  16.967  0.00  0.00    +0.000 HD
BRANCH  10  14
ATOM     14  C   UNL     1       6.743   4.207  15.894  0.00  0.00    +0.000 C 
BRANCH  14  16
ATOM     15  C   UNL     1       7.350   5.297  13.566  0.00  0.00    +0.000 C 
ATOM     16  C   UNL     1       6.216   4.894  14.540  0.00  0.00    +0.000 C 
ATOM     17  C   UNL     1       5.397   6.187  14.789  0.00  0.00    +0.000 C 
ATOM     18  C   UNL     1       5.350   3.877  13.750  0.00  0.00    +0.000 C 
ENDBRANCH  14  16
BRANCH  14  19
ATOM     19  N   UNL     1       7.772   5.025  16.627  0.00  0.00    +0.000 NA
ATOM     20  H   UNL     1       7.446   6.000  16.592  0.00  0.00    +0.000 HD
BRANCH  19  21
ATOM     21  C   UNL     1       7.857   4.643  18.066  0.00  0.00    +0.000 C 
BRANCH  21  22
ATOM     22  C   UNL     1       7.950   5.870  18.966  0.00  0.00    +0.000 C 
ATOM     23  O   UNL     1       7.988   7.014  18.536  0.00  0.00    +0.000 OA
BRANCH  22  24
ATOM     24  O   UNL     1       7.926   5.548  20.292  0.00  0.00    +0.000 OA
ATOM     25  H   UNL     1       8.418   4.707  20.402  0.00  0.00    +0.000 HD
ENDBRANCH  22  24
ENDBRANCH  21  22
ENDBRANCH  19  21
ENDBRANCH  14  19
ENDBRANCH  10  14
ENDBRANCH   1  12
BRANCH   1  26
ATOM     26  C   UNL     1       2.669   6.077  17.969  0.00  0.00    +0.000 C 
ATOM     27  O   UNL     1       1.533   5.878  17.500  0.00  0.00    +0.000 OA
ATOM     28  N   UNL     1       3.174   7.356  18.127  0.00  0.00    +0.000 N 
ATOM     29  H   UNL     1       4.164   7.455  17.933  0.00  0.00    +0.000 HD
BRANCH  28  30
ATOM     30  C   UNL     1       2.374   8.509  17.792  0.00  0.00    +0.000 C 
BRANCH  30  31
ATOM     31  C   UNL     1       1.715   9.026  19.041  0.00  0.00    +0.000 A 
ATOM     32  C   UNL     1       1.658   8.258  20.213  0.00  0.00    +0.000 A 
ATOM     33  C   UNL     1       0.976   8.736  21.338  0.00  0.00    +0.000 A 
ATOM     34  C   UNL     1       0.345   9.988  21.304  0.00  0.00    +0.000 A 
ATOM     35  C   UNL     1       0.384  10.744  20.131  0.00  0.00    +0.000 A 
ATOM     36  C   UNL     1       1.063  10.269  19.010  0.00  0.00    +0.000 A 
BRANCH  34  37
ATOM     37  C   UNL     1      -0.374  10.506  22.509  0.00  0.00    +0.000 C 
ATOM     38  N   UNL     1      -0.500  11.771  22.768  0.00  0.00    +0.000 NA
ATOM     39  N   UNL     1      -0.958   9.663  23.403  0.00  0.00    +0.000 N 
ATOM     40  H   UNL     1      -0.006  12.350  22.086  0.00  0.00    +0.000 HD
ATOM     41  H   UNL     1      -1.395   8.836  23.020  0.00  0.00    +0.000 HD
ATOM     42  H   UNL     1      -1.584  10.186  24.009  0.00  0.00    +0.000 HD
ENDBRANCH  34  37
ENDBRANCH  30  31
ENDBRANCH  28  30
ENDBRANCH   1  26
TORSDOF 11
ENDMDL
MODEL 6
REMARK VINA RESULT:      -8.1      2.810      8.237
REMARK  Name = 
REMARK  14 active torsions:
REMARK  status: ('A' for Active; 'I' for Inactive)
REMARK    1  A    between atoms: C_1  and  C_2
REMARK    2  A    between atoms: C_2  and  C_3
REMARK    3  A    between atoms: C_2  and  C_4
REMARK    4  A    between atoms: C_2  and  C_5
REMARK    5  A    between atoms: C_5  and  N_6
REMARK    6  A    between atoms: C_5  and  C_11
REMARK    7  A    between atoms: N_6  and  C_7
REMARK    8  A    between atoms: C_7  and  C_8
REMARK    9  A    between atoms: C_8  and  O_10
REMARK   10  A    between atoms: N_13  and  C_14
REMARK   11  A    between atoms: C_14  and  C_15
REMARK   12  A    between atoms: N_17  and  C_18
REMARK   13  A    between atoms: C_18  and  C_19
REMARK   14  A    between atoms: C_22  and  C_23
REMARK                            x       y       z     vdW  Elec       q    Type
REMARK                         _______ _______ _______ _____ _____    ______ ____
ROOT
ATOM      1  C   UNL     1       3.709   5.188  18.026  0.00  0.00    +0.000 C 
ATOM      2  C   UNL     1       2.990   3.840  17.688  0.00  0.00    +0.000 C 
ATOM      3  C   UNL     1       2.433   3.446  19.025  0.00  0.00    +0.000 A 
ATOM      4  C   UNL     1       1.380   2.588  19.289  0.00  0.00    +0.000 A 
ATOM      5  C   UNL     1       1.006   2.389  20.618  0.00  0.00    +0.000 A 
ATOM      6  C   UNL     1       1.699   3.028  21.663  0.00  0.00    +0.000 A 
ATOM      7  C   UNL     1       2.770   3.884  21.382  0.00  0.00    +0.000 A 
ATOM      8  C   UNL     1       3.114   4.097  20.059  0.00  0.00    +0.000 A 
ATOM      9  C   UNL     1       4.177   5.004  19.505  0.00  0.00    +0.000 C 
ENDROOT
BRANCH   1  12
ATOM     10  C   UNL     1       6.078   4.914  17.265  0.00  0.00    +0.000 C 
ATOM     11  O   UNL     1       6.313   4.229  18.250  0.00  0.00    +0.000 OA
ATOM     12  N   UNL     1       4.817   5.435  17.050  0.00  0.00    +0.000 N 
ATOM     13  H   UNL     1       4.556   5.706  16.107  0.00  0.00    +0.000 HD
BRANCH  10  14
ATOM     14  C   UNL     1       7.165   5.117  16.157  0.00  0.00    +0.000 C 
BRANCH  14  16
ATOM     15  C   UNL     1       5.924   3.393  14.588  0.00  0.00    +0.000 C 
ATOM     16  C   UNL     1       6.521   4.816  14.716  0.00  0.00    +0.000 C 
ATOM     17  C   UNL     1       7.536   4.953  13.552  0.00  0.00    +0.000 C 
ATOM     18  C   UNL     1       5.325   5.776  14.475  0.00  0.00    +0.000 C 
ENDBRANCH  14  16
BRANCH  14  19
ATOM     19  N   UNL     1       7.721   6.508  16.292  0.00  0.00    +0.000 NA
ATOM     20  H   UNL     1       7.476   7.004  15.424  0.00  0.00    +0.000 HD
BRANCH  19  21
ATOM     21  C   UNL     1       7.084   7.251  17.417  0.00  0.00    +0.000 C 
BRANCH  21  22
ATOM     22  C   UNL     1       8.125   7.801  18.386  0.00  0.00    +0.000 C 
ATOM     23  O   UNL     1       8.496   8.966  18.380  0.00  0.00    +0.000 OA
BRANCH  22  24
ATOM     24  O   UNL     1       8.545   6.865  19.286  0.00  0.00    +0.000 OA
ATOM     25  H   UNL     1       9.217   7.288  19.862  0.00  0.00    +0.000 HD
ENDBRANCH  22  24
ENDBRANCH  21  22
ENDBRANCH  19  21
ENDBRANCH  14  19
ENDBRANCH  10  14
ENDBRANCH   1  12
BRANCH   1  26
ATOM     26  C   UNL     1       2.605   6.297  17.863  0.00  0.00    +0.000 C 
ATOM     27  O   UNL     1       1.447   6.013  17.507  0.00  0.00    +0.000 OA
ATOM     28  N   UNL     1       3.026   7.611  17.980  0.00  0.00    +0.000 N 
ATOM     29  H   UNL     1       3.983   7.784  17.690  0.00  0.00    +0.000 HD
BRANCH  28  30
ATOM     30  C   UNL     1       2.113   8.700  17.733  0.00  0.00    +0.000 C 
BRANCH  30  31
ATOM     31  C   UNL     1       1.491   9.121  19.035  0.00  0.00    +0.000 A 
ATOM     32  C   UNL     1       1.634   8.353  20.199  0.00  0.00    +0.000 A 
ATOM     33  C   UNL     1       0.984   8.732  21.380  0.00  0.00    +0.000 A 
ATOM     34  C   UNL     1       0.185   9.883  21.410  0.00  0.00    +0.000 A 
ATOM     35  C   UNL     1       0.025  10.638  20.245  0.00  0.00    +0.000 A 
ATOM     36  C   UNL     1       0.672  10.261  19.070  0.00  0.00    +0.000 A 
BRANCH  34  37
ATOM     37  C   UNL     1      -0.501  10.297  22.673  0.00  0.00    +0.000 C 
ATOM     38  N   UNL     1      -1.132  11.423  22.799  0.00  0.00    +0.000 NA
ATOM     39  N   UNL     1      -0.512   9.492  23.770  0.00  0.00    +0.000 N 
ATOM     40  H   UNL     1      -1.052  12.000  21.960  0.00  0.00    +0.000 HD
ATOM     41  H   UNL     1      -0.590   8.499  23.596  0.00  0.00    +0.000 HD
ATOM     42  H   UNL     1      -1.206   9.825  24.432  0.00  0.00    +0.000 HD
ENDBRANCH  34  37
ENDBRANCH  30  31
ENDBRANCH  28  30
ENDBRANCH   1  26
TORSDOF 11
ENDMDL
MODEL 7
REMARK VINA RESULT:      -8.0      2.811      8.272
REMARK  Name = 
REMARK  14 active torsions:
REMARK  status: ('A' for Active; 'I' for Inactive)
REMARK    1  A    between atoms: C_1  and  C_2
REMARK    2  A    between atoms: C_2  and  C_3
REMARK    3  A    between atoms: C_2  and  C_4
REMARK    4  A    between atoms: C_2  and  C_5
REMARK    5  A    between atoms: C_5  and  N_6
REMARK    6  A    between atoms: C_5  and  C_11
REMARK    7  A    between atoms: N_6  and  C_7
REMARK    8  A    between atoms: C_7  and  C_8
REMARK    9  A    between atoms: C_8  and  O_10
REMARK   10  A    between atoms: N_13  and  C_14
REMARK   11  A    between atoms: C_14  and  C_15
REMARK   12  A    between atoms: N_17  and  C_18
REMARK   13  A    between atoms: C_18  and  C_19
REMARK   14  A    between atoms: C_22  and  C_23
REMARK                            x       y       z     vdW  Elec       q    Type
REMARK                         _______ _______ _______ _____ _____    ______ ____
ROOT
ATOM      1  C   UNL     1       3.653   5.132  17.999  0.00  0.00    +0.000 C 
ATOM      2  C   UNL     1       2.926   3.814  17.572  0.00  0.00    +0.000 C 
ATOM      3  C   UNL     1       2.348   3.346  18.876  0.00  0.00    +0.000 A 
ATOM      4  C   UNL     1       1.283   2.485  19.075  0.00  0.00    +0.000 A 
ATOM      5  C   UNL     1       0.890   2.211  20.384  0.00  0.00    +0.000 A 
ATOM      6  C   UNL     1       1.573   2.780  21.475  0.00  0.00    +0.000 A 
ATOM      7  C   UNL     1       2.656   3.641  21.259  0.00  0.00    +0.000 A 
ATOM      8  C   UNL     1       3.020   3.929  19.956  0.00  0.00    +0.000 A 
ATOM      9  C   UNL     1       4.098   4.857  19.471  0.00  0.00    +0.000 C 
ENDROOT
BRANCH   1  12
ATOM     10  C   UNL     1       6.005   4.814  17.205  0.00  0.00    +0.000 C 
ATOM     11  O   UNL     1       6.199   4.010  18.106  0.00  0.00    +0.000 OA
ATOM     12  N   UNL     1       4.777   5.426  17.054  0.00  0.00    +0.000 N 
ATOM     13  H   UNL     1       4.534   5.815  16.149  0.00  0.00    +0.000 HD
BRANCH  10  14
ATOM     14  C   UNL     1       7.106   5.080  16.125  0.00  0.00    +0.000 C 
BRANCH  14  16
ATOM     15  C   UNL     1       5.329   5.839  14.324  0.00  0.00    +0.000 C 
ATOM     16  C   UNL     1       6.481   4.860  14.661  0.00  0.00    +0.000 C 
ATOM     17  C   UNL     1       5.900   3.439  14.450  0.00  0.00    +0.000 C 
ATOM     18  C   UNL     1       7.569   5.139  13.589  0.00  0.00    +0.000 C 
ENDBRANCH  14  16
BRANCH  14  19
ATOM     19  N   UNL     1       7.659   6.461  16.345  0.00  0.00    +0.000 NA
ATOM     20  H   UNL     1       7.334   7.034  15.554  0.00  0.00    +0.000 HD
BRANCH  19  21
ATOM     21  C   UNL     1       7.116   7.082  17.587  0.00  0.00    +0.000 C 
BRANCH  21  22
ATOM     22  C   UNL     1       8.137   7.055  18.719  0.00  0.00    +0.000 C 
ATOM     23  O   UNL     1       8.400   6.047  19.360  0.00  0.00    +0.000 OA
BRANCH  22  24
ATOM     24  O   UNL     1       8.759   8.258  18.891  0.00  0.00    +0.000 OA
ATOM     25  H   UNL     1       9.003   8.595  18.003  0.00  0.00    +0.000 HD
ENDBRANCH  22  24
ENDBRANCH  21  22
ENDBRANCH  19  21
ENDBRANCH  14  19
ENDBRANCH  10  14
ENDBRANCH   1  12
BRANCH   1  26
ATOM     26  C   UNL     1       2.562   6.260  17.888  0.00  0.00    +0.000 C 
ATOM     27  O   UNL     1       1.396   6.003  17.533  0.00  0.00    +0.000 OA
ATOM     28  N   UNL     1       3.000   7.563  18.047  0.00  0.00    +0.000 N 
ATOM     29  H   UNL     1       3.956   7.735  17.754  0.00  0.00    +0.000 HD
BRANCH  28  30
ATOM     30  C   UNL     1       2.098   8.671  17.849  0.00  0.00    +0.000 C 
BRANCH  30  31
ATOM     31  C   UNL     1       1.511   9.067  19.175  0.00  0.00    +0.000 A 
ATOM     32  C   UNL     1       1.595   8.228  20.295  0.00  0.00    +0.000 A 
ATOM     33  C   UNL     1       0.977   8.590  21.498  0.00  0.00    +0.000 A 
ATOM     34  C   UNL     1       0.269   9.796  21.594  0.00  0.00    +0.000 A 
ATOM     35  C   UNL     1       0.167  10.623  20.473  0.00  0.00    +0.000 A 
ATOM     36  C   UNL     1       0.782  10.263  19.276  0.00  0.00    +0.000 A 
BRANCH  34  37
ATOM     37  C   UNL     1      -0.382  10.191  22.882  0.00  0.00    +0.000 C 
ATOM     38  N   UNL     1      -0.000   9.740  24.036  0.00  0.00    +0.000 NA
ATOM     39  N   UNL     1      -1.418  11.073  22.910  0.00  0.00    +0.000 N 
ATOM     40  H   UNL     1       0.750   9.052  23.946  0.00  0.00    +0.000 HD
ATOM     41  H   UNL     1      -1.374  11.838  22.249  0.00  0.00    +0.000 HD
ATOM     42  H   UNL     1      -1.570  11.393  23.862  0.00  0.00    +0.000 HD
ENDBRANCH  34  37
ENDBRANCH  30  31
ENDBRANCH  28  30
ENDBRANCH   1  26
TORSDOF 11
ENDMDL
MODEL 8
REMARK VINA RESULT:      -7.9      3.982      8.605
REMARK  Name = 
REMARK  14 active torsions:
REMARK  status: ('A' for Active; 'I' for Inactive)
REMARK    1  A    between atoms: C_1  and  C_2
REMARK    2  A    between atoms: C_2  and  C_3
REMARK    3  A    between atoms: C_2  and  C_4
REMARK    4  A    between atoms: C_2  and  C_5
REMARK    5  A    between atoms: C_5  and  N_6
REMARK    6  A    between atoms: C_5  and  C_11
REMARK    7  A    between atoms: N_6  and  C_7
REMARK    8  A    between atoms: C_7  and  C_8
REMARK    9  A    between atoms: C_8  and  O_10
REMARK   10  A    between atoms: N_13  and  C_14
REMARK   11  A    between atoms: C_14  and  C_15
REMARK   12  A    between atoms: N_17  and  C_18
REMARK   13  A    between atoms: C_18  and  C_19
REMARK   14  A    between atoms: C_22  and  C_23
REMARK                            x       y       z     vdW  Elec       q    Type
REMARK                         _______ _______ _______ _____ _____    ______ ____
ROOT
ATOM      1  C   UNL     1      -0.723  13.188  19.543  0.00  0.00    +0.000 C 
ATOM      2  C   UNL     1       0.332  13.222  18.388  0.00  0.00    +0.000 C 
ATOM      3  C   UNL     1       1.327  14.217  18.911  0.00  0.00    +0.000 A 
ATOM      4  C   UNL     1       2.655  14.364  18.548  0.00  0.00    +0.000 A 
ATOM      5  C   UNL     1       3.412  15.343  19.192  0.00  0.00    +0.000 A 
ATOM      6  C   UNL     1       2.832  16.173  20.169  0.00  0.00    +0.000 A 
ATOM      7  C   UNL     1       1.485  16.021  20.518  0.00  0.00    +0.000 A 
ATOM      8  C   UNL     1       0.750  15.028  19.894  0.00  0.00    +0.000 A 
ATOM      9  C   UNL     1      -0.680  14.634  20.134  0.00  0.00    +0.000 C 
ENDROOT
BRANCH   1  12
ATOM     10  C   UNL     1      -3.076  12.396  19.856  0.00  0.00    +0.000 C 
ATOM     11  O   UNL     1      -2.914  12.399  21.068  0.00  0.00    +0.000 OA
ATOM     12  N   UNL     1      -2.058  12.776  19.004  0.00  0.00    +0.000 N 
ATOM     13  H   UNL     1      -2.295  13.080  18.066  0.00  0.00    +0.000 HD
BRANCH  10  14
ATOM     14  C   UNL     1      -4.480  12.079  19.241  0.00  0.00    +0.000 C 
BRANCH  14  16
ATOM     15  C   UNL     1      -5.021  14.394  20.391  0.00  0.00    +0.000 C 
ATOM     16  C   UNL     1      -5.585  13.034  19.912  0.00  0.00    +0.000 C 
ATOM     17  C   UNL     1      -6.269  12.401  21.151  0.00  0.00    +0.000 C 
ATOM     18  C   UNL     1      -6.662  13.396  18.854  0.00  0.00    +0.000 C 
ENDBRANCH  14  16
BRANCH  14  19
ATOM     19  N   UNL     1      -4.383  12.224  17.746  0.00  0.00    +0.000 NA
ATOM     20  H   UNL     1      -3.531  12.771  17.562  0.00  0.00    +0.000 HD
BRANCH  19  21
ATOM     21  C   UNL     1      -4.210  10.904  17.074  0.00  0.00    +0.000 C 
BRANCH  21  22
ATOM     22  C   UNL     1      -3.057  10.931  16.077  0.00  0.00    +0.000 C 
ATOM     23  O   UNL     1      -3.219  11.012  14.867  0.00  0.00    +0.000 OA
BRANCH  22  24
ATOM     24  O   UNL     1      -1.837  10.913  16.689  0.00  0.00    +0.000 OA
ATOM     25  H   UNL     1      -1.708  10.017  17.067  0.00  0.00    +0.000 HD
ENDBRANCH  22  24
ENDBRANCH  21  22
ENDBRANCH  19  21
ENDBRANCH  14  19
ENDBRANCH  10  14
ENDBRANCH   1  12
BRANCH   1  26
ATOM     26  C   UNL     1      -0.200  12.097  20.549  0.00  0.00    +0.000 C 
ATOM     27  O   UNL     1       0.363  12.413  21.613  0.00  0.00    +0.000 OA
ATOM     28  N   UNL     1      -0.254  10.783  20.119  0.00  0.00    +0.000 N 
ATOM     29  H   UNL     1      -0.159  10.653  19.118  0.00  0.00    +0.000 HD
BRANCH  28  30
ATOM     30  C   UNL     1       0.308   9.724  20.922  0.00  0.00    +0.000 C 
BRANCH  30  31
ATOM     31  C   UNL     1       1.200   8.876  20.057  0.00  0.00    +0.000 A 
ATOM     32  C   UNL     1       1.482   9.226  18.729  0.00  0.00    +0.000 A 
ATOM     33  C   UNL     1       2.258   8.382  17.926  0.00  0.00    +0.000 A 
ATOM     34  C   UNL     1       2.761   7.180  18.442  0.00  0.00    +0.000 A 
ATOM     35  C   UNL     1       2.462   6.820  19.758  0.00  0.00    +0.000 A 
ATOM     36  C   UNL     1       1.691   7.661  20.559  0.00  0.00    +0.000 A 
BRANCH  34  37
ATOM     37  C   UNL     1       3.600   6.281  17.590  0.00  0.00    +0.000 C 
ATOM     38  N   UNL     1       3.433   4.996  17.538  0.00  0.00    +0.000 NA
ATOM     39  N   UNL     1       4.590   6.776  16.798  0.00  0.00    +0.000 N 
ATOM     40  H   UNL     1       2.707   4.680  18.184  0.00  0.00    +0.000 HD
ATOM     41  H   UNL     1       4.406   7.667  16.355  0.00  0.00    +0.000 HD
ATOM     42  H   UNL     1       4.884   6.066  16.134  0.00  0.00    +0.000 HD
ENDBRANCH  34  37
ENDBRANCH  30  31
ENDBRANCH  28  30
ENDBRANCH   1  26
TORSDOF 11
ENDMDL
MODEL 9
REMARK VINA RESULT:      -7.8      0.690      1.105
REMARK  Name = 
REMARK  14 active torsions:
REMARK  status: ('A' for Active; 'I' for Inactive)
REMARK    1  A    between atoms: C_1  and  C_2
REMARK    2  A    between atoms: C_2  and  C_3
REMARK    3  A    between atoms: C_2  and  C_4
REMARK    4  A    between atoms: C_2  and  C_5
REMARK    5  A    between atoms: C_5  and  N_6
REMARK    6  A    between atoms: C_5  and  C_11
REMARK    7  A    between atoms: N_6  and  C_7
REMARK    8  A    between atoms: C_7  and  C_8
REMARK    9  A    between atoms: C_8  and  O_10
REMARK   10  A    between atoms: N_13  and  C_14
REMARK   11  A    between atoms: C_14  and  C_15
REMARK   12  A    between atoms: N_17  and  C_18
REMARK   13  A    between atoms: C_18  and  C_19
REMARK   14  A    between atoms: C_22  and  C_23
REMARK                            x       y       z     vdW  Elec       q    Type
REMARK                         _______ _______ _______ _____ _____    ______ ____
ROOT
ATOM      1  C   UNL     1       3.447   6.338  18.285  0.00  0.00    +0.000 C 
ATOM      2  C   UNL     1       3.905   5.584  19.577  0.00  0.00    +0.000 C 
ATOM      3  C   UNL     1       3.755   4.148  19.164  0.00  0.00    +0.000 A 
ATOM      4  C   UNL     1       4.376   3.037  19.707  0.00  0.00    +0.000 A 
ATOM      5  C   UNL     1       4.114   1.790  19.140  0.00  0.00    +0.000 A 
ATOM      6  C   UNL     1       3.224   1.665  18.058  0.00  0.00    +0.000 A 
ATOM      7  C   UNL     1       2.594   2.796  17.525  0.00  0.00    +0.000 A 
ATOM      8  C   UNL     1       2.883   4.032  18.076  0.00  0.00    +0.000 A 
ATOM      9  C   UNL     1       2.385   5.384  17.649  0.00  0.00    +0.000 C 
ENDROOT
BRANCH   1  12
ATOM     10  C   UNL     1       1.904   7.843  19.557  0.00  0.00    +0.000 C 
ATOM     11  O   UNL     1       1.409   6.869  20.106  0.00  0.00    +0.000 OA
ATOM     12  N   UNL     1       2.928   7.696  18.642  0.00  0.00    +0.000 N 
ATOM     13  H   UNL     1       3.531   8.489  18.454  0.00  0.00    +0.000 HD
BRANCH  10  14
ATOM     14  C   UNL     1       1.478   9.291  19.969  0.00  0.00    +0.000 C 
BRANCH  14  16
ATOM     15  C   UNL     1       2.110  10.983  18.042  0.00  0.00    +0.000 C 
ATOM     16  C   UNL     1       1.001  10.099  18.664  0.00  0.00    +0.000 C 
ATOM     17  C   UNL     1      -0.193  11.050  18.935  0.00  0.00    +0.000 C 
ATOM     18  C   UNL     1       0.618   9.092  17.547  0.00  0.00    +0.000 C 
ENDBRANCH  14  16
BRANCH  14  19
ATOM     19  N   UNL     1       0.421   9.186  21.035  0.00  0.00    +0.000 NA
ATOM     20  H   UNL     1       0.003   8.251  20.938  0.00  0.00    +0.000 HD
BRANCH  19  21
ATOM     21  C   UNL     1       1.008   9.265  22.404  0.00  0.00    +0.000 C 
BRANCH  21  22
ATOM     22  C   UNL     1      -0.038   9.663  23.439  0.00  0.00    +0.000 C 
ATOM     23  O   UNL     1      -1.093  10.211  23.149  0.00  0.00    +0.000 OA
BRANCH  22  24
ATOM     24  O   UNL     1       0.310   9.287  24.704  0.00  0.00    +0.000 OA
ATOM     25  H   UNL     1       0.489   8.324  24.689  0.00  0.00    +0.000 HD
ENDBRANCH  22  24
ENDBRANCH  21  22
ENDBRANCH  19  21
ENDBRANCH  14  19
ENDBRANCH  10  14
ENDBRANCH   1  12
BRANCH   1  26
ATOM     26  C   UNL     1       4.746   6.483  17.408  0.00  0.00    +0.000 C 
ATOM     27  O   UNL     1       4.726   7.071  16.311  0.00  0.00    +0.000 OA
ATOM     28  N   UNL     1       5.863   5.791  17.840  0.00  0.00    +0.000 N 
ATOM     29  H   UNL     1       5.670   4.931  18.343  0.00  0.00    +0.000 HD
BRANCH  28  30
ATOM     30  C   UNL     1       7.066   5.767  17.044  0.00  0.00    +0.000 C 
BRANCH  30  31
ATOM     31  C   UNL     1       6.795   5.014  15.771  0.00  0.00    +0.000 A 
ATOM     32  C   UNL     1       7.377   5.397  14.554  0.00  0.00    +0.000 A 
ATOM     33  C   UNL     1       7.050   4.722  13.372  0.00  0.00    +0.000 A 
ATOM     34  C   UNL     1       6.140   3.656  13.394  0.00  0.00    +0.000 A 
ATOM     35  C   UNL     1       5.544   3.288  14.602  0.00  0.00    +0.000 A 
ATOM     36  C   UNL     1       5.869   3.959  15.779  0.00  0.00    +0.000 A 
BRANCH  34  37
ATOM     37  C   UNL     1       5.798   2.925  12.134  0.00  0.00    +0.000 C 
ATOM     38  N   UNL     1       4.690   3.110  11.487  0.00  0.00    +0.000 NA
ATOM     39  N   UNL     1       6.656   2.023  11.583  0.00  0.00    +0.000 N 
ATOM     40  H   UNL     1       4.072   3.764  11.971  0.00  0.00    +0.000 HD
ATOM     41  H   UNL     1       7.640   2.245  11.645  0.00  0.00    +0.000 HD
ATOM     42  H   UNL     1       6.366   1.811  10.633  0.00  0.00    +0.000 HD
ENDBRANCH  34  37
ENDBRANCH  30  31
ENDBRANCH  28  30
ENDBRANCH   1  26
TORSDOF 11
ENDMDL
