MODEL 1
REMARK VINA RESULT:      -7.4      0.000      0.000
REMARK  Name = 
REMARK  8 active torsions:
REMARK  status: ('A' for Active; 'I' for Inactive)
REMARK    1  A    between atoms: C_1  and  C_2
REMARK    2  A    between atoms: N_4  and  C_5
REMARK    3  A    between atoms: N_7  and  N_8
REMARK    4  A    between atoms: N_11  and  C_12
REMARK    5  A    between atoms: C_20  and  C_21
REMARK    6  A    between atoms: C_21  and  O_22
REMARK    7  A    between atoms: C_23  and  O_24
REMARK    8  A    between atoms: C_25  and  O_26
REMARK                            x       y       z     vdW  Elec       q    Type
REMARK                         _______ _______ _______ _____ _____    ______ ____
ROOT
ATOM      1  C   UNL     1      -1.067  11.326  19.628  0.00  0.00    +0.000 C 
ATOM      2  C   UNL     1      -0.330  10.377  18.687  0.00  0.00    +0.000 C 
ATOM      3  N   UNL     1       0.957  10.294  18.796  0.00  0.00    +0.000 NA
ATOM      4  O   UNL     1      -1.010   9.665  17.772  0.00  0.00    +0.000 OA
ATOM      5  C   UNL     1      -2.346  10.075  17.377  0.00  0.00    +0.000 C 
ATOM      6  C   UNL     1      -2.549  11.579  17.595  0.00  0.00    +0.000 C 
ATOM      7  C   UNL     1      -2.404  11.856  19.094  0.00  0.00    +0.000 C 
ENDROOT
BRANCH   3   8
ATOM      8  N   UNL     1       1.634   9.403  18.003  0.00  0.00    +0.000 N 
ATOM      9  C   UNL     1       2.008   8.199  18.603  0.00  0.00    +0.000 C 
ATOM     10  O   UNL     1       1.849   8.009  19.802  0.00  0.00    +0.000 OA
ATOM     11  N   UNL     1       2.600   7.309  17.725  0.00  0.00    +0.000 N 
ATOM     12  H   UNL     1       1.493   9.481  17.001  0.00  0.00    +0.000 HD
ATOM     13  H   UNL     1       2.958   7.691  16.863  0.00  0.00    +0.000 HD
BRANCH  11  14
ATOM     14  C   UNL     1       3.048   6.013  18.091  0.00  0.00    +0.000 A 
ATOM     15  C   UNL     1       2.206   4.889  18.093  0.00  0.00    +0.000 A 
ATOM     16  C   UNL     1       2.651   3.648  18.560  0.00  0.00    +0.000 A 
ATOM     17  C   UNL     1       3.955   3.515  19.009  0.00  0.00    +0.000 A 
ATOM     18 CL   UNL     1       4.492   2.001  19.634  0.00  0.00    +0.000 Cl
ATOM     19  C   UNL     1       4.829   4.599  18.959  0.00  0.00    +0.000 A 
ATOM     20  C   UNL     1       4.379   5.844  18.491  0.00  0.00    +0.000 A 
ENDBRANCH  11  14
ENDBRANCH   3   8
BRANCH   1  24
ATOM     21  C   UNL     1      -0.597  10.380  23.290  0.00  0.00    +0.000 C 
ATOM     22  C   UNL     1      -0.412  11.170  22.025  0.00  0.00    +0.000 C 
ATOM     23  O   UNL     1       0.375  12.106  21.943  0.00  0.00    +0.000 OA
ATOM     24  N   UNL     1      -1.153  10.716  20.961  0.00  0.00    +0.000 N 
ATOM     25  H   UNL     1      -1.956  10.124  21.144  0.00  0.00    +0.000 HD
ENDBRANCH   1  24
BRANCH   6  26
ATOM     26  O   UNL     1      -3.821  12.018  17.116  0.00  0.00    +0.000 OA
ATOM     27  H   UNL     1      -4.227  12.593  17.791  0.00  0.00    +0.000 HD
ENDBRANCH   6  26
BRANCH   7  28
ATOM     28  O   UNL     1      -2.541  13.261  19.377  0.00  0.00    +0.000 OA
ATOM     29  H   UNL     1      -2.155  13.454  20.249  0.00  0.00    +0.000 HD
ENDBRANCH   7  28
BRANCH   5  30
ATOM     30  C   UNL     1      -2.532   9.695  15.901  0.00  0.00    +0.000 C 
BRANCH  30  31
ATOM     31  O   UNL     1      -2.438  10.848  15.060  0.00  0.00    +0.000 OA
ATOM     32  H   UNL     1      -3.076  10.732  14.334  0.00  0.00    +0.000 HD
ENDBRANCH  30  31
ENDBRANCH   5  30
TORSDOF 7
ENDMDL
MODEL 2
REMARK VINA RESULT:      -7.4      5.992      9.394
REMARK  Name = 
REMARK  8 active torsions:
REMARK  status: ('A' for Active; 'I' for Inactive)
REMARK    1  A    between atoms: C_1  and  C_2
REMARK    2  A    between atoms: N_4  and  C_5
REMARK    3  A    between atoms: N_7  and  N_8
REMARK    4  A    between atoms: N_11  and  C_12
REMARK    5  A    between atoms: C_20  and  C_21
REMARK    6  A    between atoms: C_21  and  O_22
REMARK    7  A    between atoms: C_23  and  O_24
REMARK    8  A    between atoms: C_25  and  O_26
REMARK                            x       y       z     vdW  Elec       q    Type
REMARK                         _______ _______ _______ _____ _____    ______ ____
ROOT
ATOM      1  C   UNL     1       5.239   4.744  17.082  0.00  0.00    +0.000 C 
ATOM      2  C   UNL     1       5.382   6.256  17.234  0.00  0.00    +0.000 C 
ATOM      3  N   UNL     1       6.566   6.767  17.121  0.00  0.00    +0.000 NA
ATOM      4  O   UNL     1       4.304   7.017  17.490  0.00  0.00    +0.000 OA
ATOM      5  C   UNL     1       3.099   6.414  18.031  0.00  0.00    +0.000 C 
ATOM      6  C   UNL     1       3.422   5.127  18.798  0.00  0.00    +0.000 C 
ATOM      7  C   UNL     1       4.032   4.132  17.806  0.00  0.00    +0.000 C 
ENDROOT
BRANCH   3   8
ATOM      8  N   UNL     1       6.710   8.128  17.194  0.00  0.00    +0.000 N 
ATOM      9  C   UNL     1       7.850   8.597  17.851  0.00  0.00    +0.000 C 
ATOM     10  O   UNL     1       8.607   7.831  18.437  0.00  0.00    +0.000 OA
ATOM     11  N   UNL     1       7.984   9.972  17.806  0.00  0.00    +0.000 N 
ATOM     12  H   UNL     1       6.238   8.679  16.486  0.00  0.00    +0.000 HD
ATOM     13  H   UNL     1       7.156  10.502  17.581  0.00  0.00    +0.000 HD
BRANCH  11  14
ATOM     14  C   UNL     1       9.068  10.684  18.384  0.00  0.00    +0.000 A 
ATOM     15  C   UNL     1       9.316  10.700  19.766  0.00  0.00    +0.000 A 
ATOM     16  C   UNL     1      10.328  11.495  20.313  0.00  0.00    +0.000 A 
ATOM     17  C   UNL     1      11.118  12.267  19.477  0.00  0.00    +0.000 A 
ATOM     18 CL   UNL     1      12.331  13.289  20.151  0.00  0.00    +0.000 Cl
ATOM     19  C   UNL     1      10.932  12.221  18.097  0.00  0.00    +0.000 A 
ATOM     20  C   UNL     1       9.915  11.422  17.550  0.00  0.00    +0.000 A 
ENDBRANCH  11  14
ENDBRANCH   3   8
BRANCH   1  24
ATOM     21  C   UNL     1       6.413   3.888  13.559  0.00  0.00    +0.000 C 
ATOM     22  C   UNL     1       6.528   4.184  15.028  0.00  0.00    +0.000 C 
ATOM     23  O   UNL     1       7.610   4.283  15.596  0.00  0.00    +0.000 OA
ATOM     24  N   UNL     1       5.327   4.390  15.660  0.00  0.00    +0.000 N 
ATOM     25  H   UNL     1       4.479   4.050  15.218  0.00  0.00    +0.000 HD
ENDBRANCH   1  24
BRANCH   6  26
ATOM     26  O   UNL     1       2.262   4.576  19.424  0.00  0.00    +0.000 OA
ATOM     27  H   UNL     1       1.501   5.155  19.235  0.00  0.00    +0.000 HD
ENDBRANCH   6  26
BRANCH   7  28
ATOM     28  O   UNL     1       4.403   2.906  18.463  0.00  0.00    +0.000 OA
ATOM     29  H   UNL     1       3.626   2.535  18.916  0.00  0.00    +0.000 HD
ENDBRANCH   7  28
BRANCH   5  30
ATOM     30  C   UNL     1       2.426   7.452  18.940  0.00  0.00    +0.000 C 
BRANCH  30  31
ATOM     31  O   UNL     1       2.494   7.052  20.311  0.00  0.00    +0.000 OA
ATOM     32  H   UNL     1       1.595   6.801  20.586  0.00  0.00    +0.000 HD
ENDBRANCH  30  31
ENDBRANCH   5  30
TORSDOF 7
ENDMDL
MODEL 3
REMARK VINA RESULT:      -7.4      4.340      9.024
REMARK  Name = 
REMARK  8 active torsions:
REMARK  status: ('A' for Active; 'I' for Inactive)
REMARK    1  A    between atoms: C_1  and  C_2
REMARK    2  A    between atoms: N_4  and  C_5
REMARK    3  A    between atoms: N_7  and  N_8
REMARK    4  A    between atoms: N_11  and  C_12
REMARK    5  A    between atoms: C_20  and  C_21
REMARK    6  A    between atoms: C_21  and  O_22
REMARK    7  A    between atoms: C_23  and  O_24
REMARK    8  A    between atoms: C_25  and  O_26
REMARK                            x       y       z     vdW  Elec       q    Type
REMARK                         _______ _______ _______ _____ _____    ______ ____
ROOT
ATOM      1  C   UNL     1       3.904   4.373  17.602  0.00  0.00    +0.000 C 
ATOM      2  C   UNL     1       3.996   5.341  18.779  0.00  0.00    +0.000 C 
ATOM      3  N   UNL     1       2.946   6.038  19.075  0.00  0.00    +0.000 NA
ATOM      4  O   UNL     1       5.143   5.462  19.469  0.00  0.00    +0.000 OA
ATOM      5  C   UNL     1       6.396   5.021  18.880  0.00  0.00    +0.000 C 
ATOM      6  C   UNL     1       6.327   5.048  17.349  0.00  0.00    +0.000 C 
ATOM      7  C   UNL     1       5.239   4.061  16.914  0.00  0.00    +0.000 C 
ENDROOT
BRANCH   3   8
ATOM      8  N   UNL     1       2.987   6.868  20.165  0.00  0.00    +0.000 N 
ATOM      9  C   UNL     1       1.932   7.774  20.293  0.00  0.00    +0.000 C 
ATOM     10  O   UNL     1       1.090   7.900  19.413  0.00  0.00    +0.000 OA
ATOM     11  N   UNL     1       1.984   8.514  21.460  0.00  0.00    +0.000 N 
ATOM     12  H   UNL     1       3.517   6.547  20.968  0.00  0.00    +0.000 HD
ATOM     13  H   UNL     1       2.871   8.549  21.938  0.00  0.00    +0.000 HD
BRANCH  11  14
ATOM     14  C   UNL     1       1.015   9.485  21.828  0.00  0.00    +0.000 A 
ATOM     15  C   UNL     1       0.142   9.316  22.914  0.00  0.00    +0.000 A 
ATOM     16  C   UNL     1      -0.870  10.242  23.185  0.00  0.00    +0.000 A 
ATOM     17  C   UNL     1      -1.003  11.363  22.381  0.00  0.00    +0.000 A 
ATOM     18 CL   UNL     1      -2.281  12.480  22.679  0.00  0.00    +0.000 Cl
ATOM     19  C   UNL     1      -0.110  11.586  21.336  0.00  0.00    +0.000 A 
ATOM     20  C   UNL     1       0.904  10.653  21.065  0.00  0.00    +0.000 A 
ENDBRANCH  11  14
ENDBRANCH   3   8
BRANCH   1  24
ATOM     21  C   UNL     1       1.188   1.828  18.423  0.00  0.00    +0.000 C 
ATOM     22  C   UNL     1       1.782   3.104  17.896  0.00  0.00    +0.000 C 
ATOM     23  O   UNL     1       1.094   4.015  17.450  0.00  0.00    +0.000 OA
ATOM     24  N   UNL     1       3.148   3.183  18.013  0.00  0.00    +0.000 N 
ATOM     25  H   UNL     1       3.677   2.326  18.142  0.00  0.00    +0.000 HD
ENDBRANCH   1  24
BRANCH   6  26
ATOM     26  O   UNL     1       7.583   4.716  16.755  0.00  0.00    +0.000 OA
ATOM     27  H   UNL     1       8.236   5.396  17.004  0.00  0.00    +0.000 HD
ENDBRANCH   6  26
BRANCH   7  28
ATOM     28  O   UNL     1       5.084   4.059  15.483  0.00  0.00    +0.000 OA
ATOM     29  H   UNL     1       4.139   4.130  15.261  0.00  0.00    +0.000 HD
ENDBRANCH   7  28
BRANCH   5  30
ATOM     30  C   UNL     1       7.506   5.942  19.406  0.00  0.00    +0.000 C 
BRANCH  30  31
ATOM     31  O   UNL     1       8.031   5.455  20.644  0.00  0.00    +0.000 OA
ATOM     32  H   UNL     1       8.798   6.008  20.873  0.00  0.00    +0.000 HD
ENDBRANCH  30  31
ENDBRANCH   5  30
TORSDOF 7
ENDMDL
MODEL 4
REMARK VINA RESULT:      -7.3      0.558      1.091
REMARK  Name = 
REMARK  8 active torsions:
REMARK  status: ('A' for Active; 'I' for Inactive)
REMARK    1  A    between atoms: C_1  and  C_2
REMARK    2  A    between atoms: N_4  and  C_5
REMARK    3  A    between atoms: N_7  and  N_8
REMARK    4  A    between atoms: N_11  and  C_12
REMARK    5  A    between atoms: C_20  and  C_21
REMARK    6  A    between atoms: C_21  and  O_22
REMARK    7  A    between atoms: C_23  and  O_24
REMARK    8  A    between atoms: C_25  and  O_26
REMARK                            x       y       z     vdW  Elec       q    Type
REMARK                         _______ _______ _______ _____ _____    ______ ____
ROOT
ATOM      1  C   UNL     1      -0.788  11.260  19.626  0.00  0.00    +0.000 C 
ATOM      2  C   UNL     1      -0.142  10.278  18.652  0.00  0.00    +0.000 C 
ATOM      3  N   UNL     1       1.143  10.134  18.700  0.00  0.00    +0.000 NA
ATOM      4  O   UNL     1      -0.897   9.602  17.770  0.00  0.00    +0.000 OA
ATOM      5  C   UNL     1      -2.228  10.077  17.437  0.00  0.00    +0.000 C 
ATOM      6  C   UNL     1      -2.349  11.588  17.664  0.00  0.00    +0.000 C 
ATOM      7  C   UNL     1      -2.122  11.855  19.155  0.00  0.00    +0.000 C 
ENDROOT
BRANCH   3   8
ATOM      8  N   UNL     1       1.739   9.214  17.877  0.00  0.00    +0.000 N 
ATOM      9  C   UNL     1       2.006   7.962  18.437  0.00  0.00    +0.000 C 
ATOM     10  O   UNL     1       1.832   7.748  19.630  0.00  0.00    +0.000 OA
ATOM     11  N   UNL     1       2.518   7.053  17.529  0.00  0.00    +0.000 N 
ATOM     12  H   UNL     1       1.605   9.335  16.879  0.00  0.00    +0.000 HD
ATOM     13  H   UNL     1       2.908   7.430  16.678  0.00  0.00    +0.000 HD
BRANCH  11  14
ATOM     14  C   UNL     1       2.851   5.711  17.851  0.00  0.00    +0.000 A 
ATOM     15  C   UNL     1       4.162   5.303  18.145  0.00  0.00    +0.000 A 
ATOM     16  C   UNL     1       4.474   3.955  18.355  0.00  0.00    +0.000 A 
ATOM     17  C   UNL     1       3.468   3.005  18.295  0.00  0.00    +0.000 A 
ATOM     18 CL   UNL     1       3.856   1.338  18.500  0.00  0.00    +0.000 Cl
ATOM     19  C   UNL     1       2.150   3.391  18.067  0.00  0.00    +0.000 A 
ATOM     20  C   UNL     1       1.840   4.745  17.856  0.00  0.00    +0.000 A 
ENDBRANCH  11  14
ENDBRANCH   3   8
BRANCH   1  24
ATOM     21  C   UNL     1      -0.783  10.591  23.378  0.00  0.00    +0.000 C 
ATOM     22  C   UNL     1      -0.770  11.399  22.112  0.00  0.00    +0.000 C 
ATOM     23  O   UNL     1      -0.652  12.620  22.112  0.00  0.00    +0.000 OA
ATOM     24  N   UNL     1      -0.841  10.652  20.961  0.00  0.00    +0.000 N 
ATOM     25  H   UNL     1      -1.189   9.701  21.019  0.00  0.00    +0.000 HD
ENDBRANCH   1  24
BRANCH   6  26
ATOM     26  O   UNL     1      -3.620  12.089  17.245  0.00  0.00    +0.000 OA
ATOM     27  H   UNL     1      -3.635  12.125  16.271  0.00  0.00    +0.000 HD
ENDBRANCH   6  26
BRANCH   7  28
ATOM     28  O   UNL     1      -2.178  13.264  19.444  0.00  0.00    +0.000 OA
ATOM     29  H   UNL     1      -1.274  13.621  19.487  0.00  0.00    +0.000 HD
ENDBRANCH   7  28
BRANCH   5  30
ATOM     30  C   UNL     1      -2.501   9.709  15.971  0.00  0.00    +0.000 C 
BRANCH  30  31
ATOM     31  O   UNL     1      -2.364  10.852  15.124  0.00  0.00    +0.000 OA
ATOM     32  H   UNL     1      -2.996  11.524  15.436  0.00  0.00    +0.000 HD
ENDBRANCH  30  31
ENDBRANCH   5  30
TORSDOF 7
ENDMDL
MODEL 5
REMARK VINA RESULT:      -7.1      4.194      8.634
REMARK  Name = 
REMARK  8 active torsions:
REMARK  status: ('A' for Active; 'I' for Inactive)
REMARK    1  A    between atoms: C_1  and  C_2
REMARK    2  A    between atoms: N_4  and  C_5
REMARK    3  A    between atoms: N_7  and  N_8
REMARK    4  A    between atoms: N_11  and  C_12
REMARK    5  A    between atoms: C_20  and  C_21
REMARK    6  A    between atoms: C_21  and  O_22
REMARK    7  A    between atoms: C_23  and  O_24
REMARK    8  A    between atoms: C_25  and  O_26
REMARK                            x       y       z     vdW  Elec       q    Type
REMARK                         _______ _______ _______ _____ _____    ______ ____
ROOT
ATOM      1  C   UNL     1       4.513   4.836  17.782  0.00  0.00    +0.000 C 
ATOM      2  C   UNL     1       3.305   5.762  17.890  0.00  0.00    +0.000 C 
ATOM      3  N   UNL     1       3.467   7.009  17.583  0.00  0.00    +0.000 NA
ATOM      4  O   UNL     1       2.118   5.284  18.303  0.00  0.00    +0.000 OA
ATOM      5  C   UNL     1       2.053   4.033  19.037  0.00  0.00    +0.000 C 
ATOM      6  C   UNL     1       3.375   3.747  19.760  0.00  0.00    +0.000 C 
ATOM      7  C   UNL     1       4.467   3.604  18.696  0.00  0.00    +0.000 C 
ENDROOT
BRANCH   3   8
ATOM      8  N   UNL     1       2.383   7.847  17.615  0.00  0.00    +0.000 N 
ATOM      9  C   UNL     1       1.998   8.317  18.873  0.00  0.00    +0.000 C 
ATOM     10  O   UNL     1       2.525   7.899  19.896  0.00  0.00    +0.000 OA
ATOM     11  N   UNL     1       0.961   9.230  18.824  0.00  0.00    +0.000 N 
ATOM     12  H   UNL     1       2.174   8.361  16.766  0.00  0.00    +0.000 HD
ATOM     13  H   UNL     1       0.412   9.250  17.978  0.00  0.00    +0.000 HD
BRANCH  11  14
ATOM     14  C   UNL     1       0.407   9.863  19.967  0.00  0.00    +0.000 A 
ATOM     15  C   UNL     1       0.141   9.177  21.163  0.00  0.00    +0.000 A 
ATOM     16  C   UNL     1      -0.502   9.805  22.234  0.00  0.00    +0.000 A 
ATOM     17  C   UNL     1      -0.866  11.138  22.126  0.00  0.00    +0.000 A 
ATOM     18 CL   UNL     1      -1.706  11.901  23.422  0.00  0.00    +0.000 Cl
ATOM     19  C   UNL     1      -0.558  11.858  20.974  0.00  0.00    +0.000 A 
ATOM     20  C   UNL     1       0.087  11.224  19.899  0.00  0.00    +0.000 A 
ENDBRANCH  11  14
ENDBRANCH   3   8
BRANCH   1  24
ATOM     21  C   UNL     1       6.072   4.054  14.393  0.00  0.00    +0.000 C 
ATOM     22  C   UNL     1       6.020   4.301  15.875  0.00  0.00    +0.000 C 
ATOM     23  O   UNL     1       7.030   4.349  16.568  0.00  0.00    +0.000 OA
ATOM     24  N   UNL     1       4.759   4.524  16.368  0.00  0.00    +0.000 N 
ATOM     25  H   UNL     1       3.960   4.224  15.819  0.00  0.00    +0.000 HD
ENDBRANCH   1  24
BRANCH   6  26
ATOM     26  O   UNL     1       3.295   2.572  20.569  0.00  0.00    +0.000 OA
ATOM     27  H   UNL     1       2.356   2.383  20.752  0.00  0.00    +0.000 HD
ENDBRANCH   6  26
BRANCH   7  28
ATOM     28  O   UNL     1       5.753   3.375  19.302  0.00  0.00    +0.000 OA
ATOM     29  H   UNL     1       5.726   2.547  19.812  0.00  0.00    +0.000 HD
ENDBRANCH   7  28
BRANCH   5  30
ATOM     30  C   UNL     1       0.885   4.133  20.027  0.00  0.00    +0.000 C 
BRANCH  30  31
ATOM     31  O   UNL     1       0.402   2.835  20.381  0.00  0.00    +0.000 OA
ATOM     32  H   UNL     1      -0.545   2.922  20.587  0.00  0.00    +0.000 HD
ENDBRANCH  30  31
ENDBRANCH   5  30
TORSDOF 7
ENDMDL
MODEL 6
REMARK VINA RESULT:      -7.0      4.294      9.038
REMARK  Name = 
REMARK  8 active torsions:
REMARK  status: ('A' for Active; 'I' for Inactive)
REMARK    1  A    between atoms: C_1  and  C_2
REMARK    2  A    between atoms: N_4  and  C_5
REMARK    3  A    between atoms: N_7  and  N_8
REMARK    4  A    between atoms: N_11  and  C_12
REMARK    5  A    between atoms: C_20  and  C_21
REMARK    6  A    between atoms: C_21  and  O_22
REMARK    7  A    between atoms: C_23  and  O_24
REMARK    8  A    between atoms: C_25  and  O_26
REMARK                            x       y       z     vdW  Elec       q    Type
REMARK                         _______ _______ _______ _____ _____    ______ ____
ROOT
ATOM      1  C   UNL     1       4.392   5.390  18.655  0.00  0.00    +0.000 C 
ATOM      2  C   UNL     1       3.126   5.606  19.479  0.00  0.00    +0.000 C 
ATOM      3  N   UNL     1       2.878   6.801  19.909  0.00  0.00    +0.000 NA
ATOM      4  O   UNL     1       2.311   4.572  19.752  0.00  0.00    +0.000 OA
ATOM      5  C   UNL     1       2.802   3.210  19.646  0.00  0.00    +0.000 C 
ATOM      6  C   UNL     1       4.323   3.155  19.834  0.00  0.00    +0.000 C 
ATOM      7  C   UNL     1       4.962   3.967  18.703  0.00  0.00    +0.000 C 
ENDROOT
BRANCH   3   8
ATOM      8  N   UNL     1       1.717   7.030  20.600  0.00  0.00    +0.000 N 
ATOM      9  C   UNL     1       1.347   8.366  20.766  0.00  0.00    +0.000 C 
ATOM     10  O   UNL     1       2.088   9.279  20.423  0.00  0.00    +0.000 OA
ATOM     11  N   UNL     1       0.121   8.524  21.387  0.00  0.00    +0.000 N 
ATOM     12  H   UNL     1       1.033   6.281  20.610  0.00  0.00    +0.000 HD
ATOM     13  H   UNL     1      -0.235   7.731  21.898  0.00  0.00    +0.000 HD
BRANCH  11  14
ATOM     14  C   UNL     1      -0.479   9.783  21.650  0.00  0.00    +0.000 A 
ATOM     15  C   UNL     1      -0.803  10.215  22.946  0.00  0.00    +0.000 A 
ATOM     16  C   UNL     1      -1.489  11.414  23.163  0.00  0.00    +0.000 A 
ATOM     17  C   UNL     1      -1.838  12.206  22.081  0.00  0.00    +0.000 A 
ATOM     18 CL   UNL     1      -2.730  13.658  22.338  0.00  0.00    +0.000 Cl
ATOM     19  C   UNL     1      -1.474  11.831  20.790  0.00  0.00    +0.000 A 
ATOM     20  C   UNL     1      -0.786  10.625  20.576  0.00  0.00    +0.000 A 
ENDBRANCH  11  14
ENDBRANCH   3   8
BRANCH   1  24
ATOM     21  C   UNL     1       4.774   6.934  15.191  0.00  0.00    +0.000 C 
ATOM     22  C   UNL     1       5.203   6.403  16.529  0.00  0.00    +0.000 C 
ATOM     23  O   UNL     1       6.364   6.460  16.918  0.00  0.00    +0.000 OA
ATOM     24  N   UNL     1       4.178   5.905  17.296  0.00  0.00    +0.000 N 
ATOM     25  H   UNL     1       3.309   5.649  16.841  0.00  0.00    +0.000 HD
ENDBRANCH   1  24
BRANCH   6  26
ATOM     26  O   UNL     1       4.810   1.812  19.834  0.00  0.00    +0.000 OA
ATOM     27  H   UNL     1       4.061   1.208  19.674  0.00  0.00    +0.000 HD
ENDBRANCH   6  26
BRANCH   7  28
ATOM     28  O   UNL     1       6.395   3.998  18.833  0.00  0.00    +0.000 OA
ATOM     29  H   UNL     1       6.676   3.317  19.469  0.00  0.00    +0.000 HD
ENDBRANCH   7  28
BRANCH   5  30
ATOM     30  C   UNL     1       2.078   2.370  20.708  0.00  0.00    +0.000 C 
BRANCH  30  31
ATOM     31  O   UNL     1       2.723   2.487  21.979  0.00  0.00    +0.000 OA
ATOM     32  H   UNL     1       3.120   3.374  22.024  0.00  0.00    +0.000 HD
ENDBRANCH  30  31
ENDBRANCH   5  30
TORSDOF 7
ENDMDL
MODEL 7
REMARK VINA RESULT:      -7.0      4.107      8.641
REMARK  Name = 
REMARK  8 active torsions:
REMARK  status: ('A' for Active; 'I' for Inactive)
REMARK    1  A    between atoms: C_1  and  C_2
REMARK    2  A    between atoms: N_4  and  C_5
REMARK    3  A    between atoms: N_7  and  N_8
REMARK    4  A    between atoms: N_11  and  C_12
REMARK    5  A    between atoms: C_20  and  C_21
REMARK    6  A    between atoms: C_21  and  O_22
REMARK    7  A    between atoms: C_23  and  O_24
REMARK    8  A    between atoms: C_25  and  O_26
REMARK                            x       y       z     vdW  Elec       q    Type
REMARK                         _______ _______ _______ _____ _____    ______ ____
ROOT
ATOM      1  C   UNL     1       4.571   4.763  17.916  0.00  0.00    +0.000 C 
ATOM      2  C   UNL     1       3.304   5.613  17.862  0.00  0.00    +0.000 C 
ATOM      3  N   UNL     1       3.435   6.900  17.898  0.00  0.00    +0.000 NA
ATOM      4  O   UNL     1       2.097   5.026  17.791  0.00  0.00    +0.000 OA
ATOM      5  C   UNL     1       1.939   3.636  18.181  0.00  0.00    +0.000 C 
ATOM      6  C   UNL     1       3.022   3.216  19.181  0.00  0.00    +0.000 C 
ATOM      7  C   UNL     1       4.379   3.351  18.483  0.00  0.00    +0.000 C 
ENDROOT
BRANCH   3   8
ATOM      8  N   UNL     1       2.316   7.684  17.790  0.00  0.00    +0.000 N 
ATOM      9  C   UNL     1       1.862   8.282  18.968  0.00  0.00    +0.000 C 
ATOM     10  O   UNL     1       2.365   8.015  20.052  0.00  0.00    +0.000 OA
ATOM     11  N   UNL     1       0.790   9.134  18.773  0.00  0.00    +0.000 N 
ATOM     12  H   UNL     1       2.121   8.083  16.879  0.00  0.00    +0.000 HD
ATOM     13  H   UNL     1       0.275   9.027  17.913  0.00  0.00    +0.000 HD
BRANCH  11  14
ATOM     14  C   UNL     1       0.164   9.872  19.811  0.00  0.00    +0.000 A 
ATOM     15  C   UNL     1      -0.333  11.173  19.627  0.00  0.00    +0.000 A 
ATOM     16  C   UNL     1      -0.848  11.912  20.696  0.00  0.00    +0.000 A 
ATOM     17  C   UNL     1      -0.891  11.347  21.960  0.00  0.00    +0.000 A 
ATOM     18 CL   UNL     1      -1.476  12.273  23.290  0.00  0.00    +0.000 Cl
ATOM     19  C   UNL     1      -0.462  10.036  22.157  0.00  0.00    +0.000 A 
ATOM     20  C   UNL     1       0.055   9.296  21.082  0.00  0.00    +0.000 A 
ENDBRANCH  11  14
ENDBRANCH   3   8
BRANCH   1  24
ATOM     21  C   UNL     1       7.086   4.784  15.053  0.00  0.00    +0.000 C 
ATOM     22  C   UNL     1       6.593   4.663  16.467  0.00  0.00    +0.000 C 
ATOM     23  O   UNL     1       7.352   4.510  17.417  0.00  0.00    +0.000 OA
ATOM     24  N   UNL     1       5.233   4.798  16.606  0.00  0.00    +0.000 N 
ATOM     25  H   UNL     1       4.645   4.666  15.791  0.00  0.00    +0.000 HD
ENDBRANCH   1  24
BRANCH   6  26
ATOM     26  O   UNL     1       2.822   1.883  19.652  0.00  0.00    +0.000 OA
ATOM     27  H   UNL     1       3.447   1.712  20.381  0.00  0.00    +0.000 HD
ENDBRANCH   6  26
BRANCH   7  28
ATOM     28  O   UNL     1       5.456   3.012  19.376  0.00  0.00    +0.000 OA
ATOM     29  H   UNL     1       5.165   3.139  20.296  0.00  0.00    +0.000 HD
ENDBRANCH   7  28
BRANCH   5  30
ATOM     30  C   UNL     1       0.534   3.476  18.778  0.00  0.00    +0.000 C 
BRANCH  30  31
ATOM     31  O   UNL     1       0.580   3.516  20.207  0.00  0.00    +0.000 OA
ATOM     32  H   UNL     1       1.017   4.347  20.462  0.00  0.00    +0.000 HD
ENDBRANCH  30  31
ENDBRANCH   5  30
TORSDOF 7
ENDMDL
MODEL 8
REMARK VINA RESULT:      -6.9      4.567      8.741
REMARK  Name = 
REMARK  8 active torsions:
REMARK  status: ('A' for Active; 'I' for Inactive)
REMARK    1  A    between atoms: C_1  and  C_2
REMARK    2  A    between atoms: N_4  and  C_5
REMARK    3  A    between atoms: N_7  and  N_8
REMARK    4  A    between atoms: N_11  and  C_12
REMARK    5  A    between atoms: C_20  and  C_21
REMARK    6  A    between atoms: C_21  and  O_22
REMARK    7  A    between atoms: C_23  and  O_24
REMARK    8  A    between atoms: C_25  and  O_26
REMARK                            x       y       z     vdW  Elec       q    Type
REMARK                         _______ _______ _______ _____ _____    ______ ____
ROOT
ATOM      1  C   UNL     1       4.383   4.788  19.347  0.00  0.00    +0.000 C 
ATOM      2  C   UNL     1       3.028   5.483  19.249  0.00  0.00    +0.000 C 
ATOM      3  N   UNL     1       2.868   6.595  19.893  0.00  0.00    +0.000 NA
ATOM      4  O   UNL     1       2.037   4.937  18.523  0.00  0.00    +0.000 OA
ATOM      5  C   UNL     1       2.078   3.527  18.178  0.00  0.00    +0.000 C 
ATOM      6  C   UNL     1       2.914   2.736  19.190  0.00  0.00    +0.000 C 
ATOM      7  C   UNL     1       4.349   3.270  19.129  0.00  0.00    +0.000 C 
ENDROOT
BRANCH   3   8
ATOM      8  N   UNL     1       1.680   7.267  19.771  0.00  0.00    +0.000 N 
ATOM      9  C   UNL     1       1.439   8.275  20.708  0.00  0.00    +0.000 C 
ATOM     10  O   UNL     1       2.193   8.455  21.657  0.00  0.00    +0.000 OA
ATOM     11  N   UNL     1       0.270   8.975  20.472  0.00  0.00    +0.000 N 
ATOM     12  H   UNL     1       1.249   7.277  18.853  0.00  0.00    +0.000 HD
ATOM     13  H   UNL     1      -0.408   8.538  19.868  0.00  0.00    +0.000 HD
BRANCH  11  14
ATOM     14  C   UNL     1      -0.182  10.057  21.273  0.00  0.00    +0.000 A 
ATOM     15  C   UNL     1      -0.694   9.881  22.569  0.00  0.00    +0.000 A 
ATOM     16  C   UNL     1      -1.228  10.953  23.291  0.00  0.00    +0.000 A 
ATOM     17  C   UNL     1      -1.234  12.220  22.728  0.00  0.00    +0.000 A 
ATOM     18 CL   UNL     1      -1.940  13.534  23.592  0.00  0.00    +0.000 Cl
ATOM     19  C   UNL     1      -0.676  12.431  21.470  0.00  0.00    +0.000 A 
ATOM     20  C   UNL     1      -0.141  11.353  20.747  0.00  0.00    +0.000 A 
ENDBRANCH  11  14
ENDBRANCH   3   8
BRANCH   1  24
ATOM     21  C   UNL     1       7.480   6.466  17.892  0.00  0.00    +0.000 C 
ATOM     22  C   UNL     1       6.661   5.669  18.868  0.00  0.00    +0.000 C 
ATOM     23  O   UNL     1       7.119   5.259  19.928  0.00  0.00    +0.000 OA
ATOM     24  N   UNL     1       5.351   5.494  18.498  0.00  0.00    +0.000 N 
ATOM     25  H   UNL     1       5.098   5.623  17.524  0.00  0.00    +0.000 HD
ENDBRANCH   1  24
BRANCH   6  26
ATOM     26  O   UNL     1       2.882   1.333  18.924  0.00  0.00    +0.000 OA
ATOM     27  H   UNL     1       2.951   1.196  17.961  0.00  0.00    +0.000 HD
ENDBRANCH   6  26
BRANCH   7  28
ATOM     28  O   UNL     1       5.192   2.601  20.085  0.00  0.00    +0.000 OA
ATOM     29  H   UNL     1       4.718   2.519  20.931  0.00  0.00    +0.000 HD
ENDBRANCH   7  28
BRANCH   5  30
ATOM     30  C   UNL     1       0.631   3.017  18.129  0.00  0.00    +0.000 C 
BRANCH  30  31
ATOM     31  O   UNL     1       0.185   2.621  19.429  0.00  0.00    +0.000 OA
ATOM     32  H   UNL     1       0.530   3.269  20.066  0.00  0.00    +0.000 HD
ENDBRANCH  30  31
ENDBRANCH   5  30
TORSDOF 7
ENDMDL
MODEL 9
REMARK VINA RESULT:      -6.9      4.320      9.126
REMARK  Name = 
REMARK  8 active torsions:
REMARK  status: ('A' for Active; 'I' for Inactive)
REMARK    1  A    between atoms: C_1  and  C_2
REMARK    2  A    between atoms: N_4  and  C_5
REMARK    3  A    between atoms: N_7  and  N_8
REMARK    4  A    between atoms: N_11  and  C_12
REMARK    5  A    between atoms: C_20  and  C_21
REMARK    6  A    between atoms: C_21  and  O_22
REMARK    7  A    between atoms: C_23  and  O_24
REMARK    8  A    between atoms: C_25  and  O_26
REMARK                            x       y       z     vdW  Elec       q    Type
REMARK                         _______ _______ _______ _____ _____    ______ ____
ROOT
ATOM      1  C   UNL     1       3.938   4.711  17.273  0.00  0.00    +0.000 C 
ATOM      2  C   UNL     1       3.952   5.544  18.552  0.00  0.00    +0.000 C 
ATOM      3  N   UNL     1       2.897   6.238  18.835  0.00  0.00    +0.000 NA
ATOM      4  O   UNL     1       5.039   5.553  19.342  0.00  0.00    +0.000 OA
ATOM      5  C   UNL     1       6.327   5.139  18.814  0.00  0.00    +0.000 C 
ATOM      6  C   UNL     1       6.389   5.331  17.295  0.00  0.00    +0.000 C 
ATOM      7  C   UNL     1       5.319   4.432  16.667  0.00  0.00    +0.000 C 
ENDROOT
BRANCH   3   8
ATOM      8  N   UNL     1       2.864   6.946  20.008  0.00  0.00    +0.000 N 
ATOM      9  C   UNL     1       1.873   7.924  20.115  0.00  0.00    +0.000 C 
ATOM     10  O   UNL     1       1.159   8.214  19.162  0.00  0.00    +0.000 OA
ATOM     11  N   UNL     1       1.834   8.533  21.356  0.00  0.00    +0.000 N 
ATOM     12  H   UNL     1       3.264   6.499  20.826  0.00  0.00    +0.000 HD
ATOM     13  H   UNL     1       2.655   8.440  21.934  0.00  0.00    +0.000 HD
BRANCH  11  14
ATOM     14  C   UNL     1       0.904   9.544  21.715  0.00  0.00    +0.000 A 
ATOM     15  C   UNL     1       0.869  10.802  21.093  0.00  0.00    +0.000 A 
ATOM     16  C   UNL     1       0.011  11.811  21.541  0.00  0.00    +0.000 A 
ATOM     17  C   UNL     1      -0.839  11.562  22.606  0.00  0.00    +0.000 A 
ATOM     18 CL   UNL     1      -1.860  12.819  23.196  0.00  0.00    +0.000 Cl
ATOM     19  C   UNL     1      -0.869  10.302  23.200  0.00  0.00    +0.000 A 
ATOM     20  C   UNL     1      -0.005   9.291  22.749  0.00  0.00    +0.000 A 
ENDBRANCH  11  14
ENDBRANCH   3   8
BRANCH   1  24
ATOM     21  C   UNL     1       2.497   1.400  18.492  0.00  0.00    +0.000 C 
ATOM     22  C   UNL     1       3.414   2.590  18.467  0.00  0.00    +0.000 C 
ATOM     23  O   UNL     1       4.369   2.700  19.227  0.00  0.00    +0.000 OA
ATOM     24  N   UNL     1       3.123   3.508  17.488  0.00  0.00    +0.000 N 
ATOM     25  H   UNL     1       2.198   3.500  17.072  0.00  0.00    +0.000 HD
ENDBRANCH   1  24
BRANCH   6  26
ATOM     26  O   UNL     1       7.682   5.024  16.773  0.00  0.00    +0.000 OA
ATOM     27  H   UNL     1       8.039   5.818  16.334  0.00  0.00    +0.000 HD
ENDBRANCH   6  26
BRANCH   7  28
ATOM     28  O   UNL     1       5.286   4.587  15.236  0.00  0.00    +0.000 OA
ATOM     29  H   UNL     1       5.396   5.528  15.011  0.00  0.00    +0.000 HD
ENDBRANCH   7  28
BRANCH   5  30
ATOM     30  C   UNL     1       7.409   5.962  19.526  0.00  0.00    +0.000 C 
BRANCH  30  31
ATOM     31  O   UNL     1       7.987   5.222  20.605  0.00  0.00    +0.000 OA
ATOM     32  H   UNL     1       8.555   5.834  21.106  0.00  0.00    +0.000 HD
ENDBRANCH  30  31
ENDBRANCH   5  30
TORSDOF 7
ENDMDL
