MODEL 1
REMARK VINA RESULT:      -7.2      0.000      0.000
REMARK  Name = 
REMARK  2 active torsions:
REMARK  status: ('A' for Active; 'I' for Inactive)
REMARK    1  A    between atoms: C_9  and  C_10
REMARK    2  A    between atoms: C_15  and  N_16
REMARK                            x       y       z     vdW  Elec       q    Type
REMARK                         _______ _______ _______ _____ _____    ______ ____
ROOT
ATOM      1  C   UNL     1       2.601   7.426  18.789  0.00  0.00    +0.000 A 
ATOM      2  C   UNL     1       2.442   8.389  17.802  0.00  0.00    +0.000 A 
ATOM      3  C   UNL     1       1.632   9.500  18.044  0.00  0.00    +0.000 A 
ATOM      4  C   UNL     1       0.984   9.677  19.259  0.00  0.00    +0.000 A 
ATOM      5  N   UNL     1       0.257  10.788  19.444  0.00  0.00    +0.000 NA
ATOM      6  C   UNL     1      -0.380  10.981  20.618  0.00  0.00    +0.000 A 
ATOM      7  N   UNL     1      -1.089  12.183  20.790  0.00  0.00    +0.000 N 
ATOM      8  C   UNL     1      -2.242  12.402  21.598  0.00  0.00    +0.000 C 
ATOM      9  C   UNL     1      -2.932  13.085  20.403  0.00  0.00    +0.000 C 
ATOM     10  C   UNL     1      -1.571  12.981  19.698  0.00  0.00    +0.000 C 
ATOM     11  C   UNL     1      -0.301  10.043  21.643  0.00  0.00    +0.000 A 
ATOM     12  C   UNL     1       0.457   8.888  21.460  0.00  0.00    +0.000 A 
ATOM     13  C   UNL     1       1.126   8.687  20.249  0.00  0.00    +0.000 A 
ATOM     14  C   UNL     1       1.941   7.567  20.010  0.00  0.00    +0.000 A 
ENDROOT
BRANCH   9  15
ATOM     15  C   UNL     1      -4.195  12.348  19.795  0.00  0.00    +0.000 A 
ATOM     16  N   UNL     1      -3.924  11.690  18.628  0.00  0.00    +0.000 NA
ATOM     17  C   UNL     1      -4.957  11.099  18.003  0.00  0.00    +0.000 A 
ATOM     18  C   UNL     1      -6.229  11.123  18.525  0.00  0.00    +0.000 A 
ATOM     19  N   UNL     1      -6.525  11.755  19.680  0.00  0.00    +0.000 NA
ATOM     20  C   UNL     1      -5.510  12.383  20.328  0.00  0.00    +0.000 A 
BRANCH  20  21
ATOM     21  N   UNL     1      -5.820  13.165  21.438  0.00  0.00    +0.000 N 
ATOM     22  C   UNL     1      -6.030  14.594  21.191  0.00  0.00    +0.000 C 
ATOM     23  C   UNL     1      -5.651  15.338  22.477  0.00  0.00    +0.000 C 
ATOM     24  C   UNL     1      -6.388  14.790  23.703  0.00  0.00    +0.000 C 
ATOM     25  C   UNL     1      -6.304  13.265  23.789  0.00  0.00    +0.000 C 
ATOM     26  C   UNL     1      -6.715  12.628  22.460  0.00  0.00    +0.000 C 
ENDBRANCH  20  21
ENDBRANCH   9  15
TORSDOF 2
ENDMDL
MODEL 2
REMARK VINA RESULT:      -7.2      3.130      4.825
REMARK  Name = 
REMARK  2 active torsions:
REMARK  status: ('A' for Active; 'I' for Inactive)
REMARK    1  A    between atoms: C_9  and  C_10
REMARK    2  A    between atoms: C_15  and  N_16
REMARK                            x       y       z     vdW  Elec       q    Type
REMARK                         _______ _______ _______ _____ _____    ______ ____
ROOT
ATOM      1  C   UNL     1       1.991   2.310  18.622  0.00  0.00    +0.000 A 
ATOM      2  C   UNL     1       2.240   2.950  17.415  0.00  0.00    +0.000 A 
ATOM      3  C   UNL     1       2.261   4.345  17.364  0.00  0.00    +0.000 A 
ATOM      4  C   UNL     1       2.048   5.118  18.497  0.00  0.00    +0.000 A 
ATOM      5  N   UNL     1       2.125   6.451  18.389  0.00  0.00    +0.000 NA
ATOM      6  C   UNL     1       1.923   7.223  19.478  0.00  0.00    +0.000 A 
ATOM      7  N   UNL     1       2.063   8.614  19.332  0.00  0.00    +0.000 N 
ATOM      8  C   UNL     1       1.398   9.635  20.071  0.00  0.00    +0.000 C 
ATOM      9  C   UNL     1       1.025  10.328  18.747  0.00  0.00    +0.000 C 
ATOM     10  C   UNL     1       1.941   9.295  18.075  0.00  0.00    +0.000 C 
ATOM     11  C   UNL     1       1.629   6.658  20.716  0.00  0.00    +0.000 A 
ATOM     12  C   UNL     1       1.552   5.272  20.837  0.00  0.00    +0.000 A 
ATOM     13  C   UNL     1       1.770   4.468  19.714  0.00  0.00    +0.000 A 
ATOM     14  C   UNL     1       1.749   3.063  19.771  0.00  0.00    +0.000 A 
ENDROOT
BRANCH   9  15
ATOM     15  C   UNL     1      -0.515  10.378  18.379  0.00  0.00    +0.000 A 
ATOM     16  N   UNL     1      -0.832   9.619  17.288  0.00  0.00    +0.000 NA
ATOM     17  C   UNL     1      -2.105   9.662  16.859  0.00  0.00    +0.000 A 
ATOM     18  C   UNL     1      -3.061  10.410  17.506  0.00  0.00    +0.000 A 
ATOM     19  N   UNL     1      -2.781  11.161  18.591  0.00  0.00    +0.000 NA
ATOM     20  C   UNL     1      -1.498  11.159  19.039  0.00  0.00    +0.000 A 
BRANCH  20  21
ATOM     21  N   UNL     1      -1.157  12.040  20.062  0.00  0.00    +0.000 N 
ATOM     22  C   UNL     1      -1.121  13.463  19.713  0.00  0.00    +0.000 C 
ATOM     23  C   UNL     1      -0.105  14.134  20.644  0.00  0.00    +0.000 C 
ATOM     24  C   UNL     1      -0.395  13.849  22.121  0.00  0.00    +0.000 C 
ATOM     25  C   UNL     1      -0.628  12.360  22.384  0.00  0.00    +0.000 C 
ATOM     26  C   UNL     1      -1.666  11.798  21.410  0.00  0.00    +0.000 C 
ENDBRANCH  20  21
ENDBRANCH   9  15
TORSDOF 2
ENDMDL
MODEL 3
REMARK VINA RESULT:      -7.1      4.410      6.499
REMARK  Name = 
REMARK  2 active torsions:
REMARK  status: ('A' for Active; 'I' for Inactive)
REMARK    1  A    between atoms: C_9  and  C_10
REMARK    2  A    between atoms: C_15  and  N_16
REMARK                            x       y       z     vdW  Elec       q    Type
REMARK                         _______ _______ _______ _____ _____    ______ ____
ROOT
ATOM      1  C   UNL     1       3.322   2.162  18.505  0.00  0.00    +0.000 A 
ATOM      2  C   UNL     1       1.981   2.388  18.228  0.00  0.00    +0.000 A 
ATOM      3  C   UNL     1       1.523   3.693  18.041  0.00  0.00    +0.000 A 
ATOM      4  C   UNL     1       2.380   4.783  18.114  0.00  0.00    +0.000 A 
ATOM      5  N   UNL     1       1.886   6.006  17.882  0.00  0.00    +0.000 NA
ATOM      6  C   UNL     1       2.702   7.079  17.946  0.00  0.00    +0.000 A 
ATOM      7  N   UNL     1       2.155   8.339  17.644  0.00  0.00    +0.000 N 
ATOM      8  C   UNL     1       2.564   9.606  18.152  0.00  0.00    +0.000 C 
ATOM      9  C   UNL     1       1.096   9.927  18.490  0.00  0.00    +0.000 C 
ATOM     10  C   UNL     1       0.753   8.635  17.733  0.00  0.00    +0.000 C 
ATOM     11  C   UNL     1       4.052   6.940  18.257  0.00  0.00    +0.000 A 
ATOM     12  C   UNL     1       4.574   5.670  18.496  0.00  0.00    +0.000 A 
ATOM     13  C   UNL     1       3.734   4.555  18.421  0.00  0.00    +0.000 A 
ATOM     14  C   UNL     1       4.201   3.241  18.608  0.00  0.00    +0.000 A 
ENDROOT
BRANCH   9  15
ATOM     15  C   UNL     1       0.733  10.062  20.026  0.00  0.00    +0.000 A 
ATOM     16  N   UNL     1       0.388   8.873  20.605  0.00  0.00    +0.000 NA
ATOM     17  C   UNL     1      -0.007   8.907  21.889  0.00  0.00    +0.000 A 
ATOM     18  C   UNL     1      -0.036  10.080  22.606  0.00  0.00    +0.000 A 
ATOM     19  N   UNL     1       0.308  11.268  22.066  0.00  0.00    +0.000 NA
ATOM     20  C   UNL     1       0.691  11.274  20.762  0.00  0.00    +0.000 A 
BRANCH  20  21
ATOM     21  N   UNL     1       0.905  12.504  20.146  0.00  0.00    +0.000 N 
ATOM     22  C   UNL     1      -0.262  13.380  20.014  0.00  0.00    +0.000 C 
ATOM     23  C   UNL     1      -0.037  14.258  18.778  0.00  0.00    +0.000 C 
ATOM     24  C   UNL     1       1.307  14.993  18.826  0.00  0.00    +0.000 C 
ATOM     25  C   UNL     1       2.463  14.052  19.173  0.00  0.00    +0.000 C 
ATOM     26  C   UNL     1       2.137  13.237  20.426  0.00  0.00    +0.000 C 
ENDBRANCH  20  21
ENDBRANCH   9  15
TORSDOF 2
ENDMDL
MODEL 4
REMARK VINA RESULT:      -6.8      1.887      2.421
REMARK  Name = 
REMARK  2 active torsions:
REMARK  status: ('A' for Active; 'I' for Inactive)
REMARK    1  A    between atoms: C_9  and  C_10
REMARK    2  A    between atoms: C_15  and  N_16
REMARK                            x       y       z     vdW  Elec       q    Type
REMARK                         _______ _______ _______ _____ _____    ______ ____
ROOT
ATOM      1  C   UNL     1       2.692   5.054  19.105  0.00  0.00    +0.000 A 
ATOM      2  C   UNL     1       2.866   5.859  17.988  0.00  0.00    +0.000 A 
ATOM      3  C   UNL     1       2.501   7.206  18.042  0.00  0.00    +0.000 A 
ATOM      4  C   UNL     1       1.975   7.771  19.196  0.00  0.00    +0.000 A 
ATOM      5  N   UNL     1       1.686   9.079  19.196  0.00  0.00    +0.000 NA
ATOM      6  C   UNL     1       1.175   9.650  20.307  0.00  0.00    +0.000 A 
ATOM      7  N   UNL     1       0.935  11.035  20.282  0.00  0.00    +0.000 N 
ATOM      8  C   UNL     1      -0.056  11.757  21.010  0.00  0.00    +0.000 C 
ATOM      9  C   UNL     1      -0.481  12.457  19.706  0.00  0.00    +0.000 C 
ATOM     10  C   UNL     1       0.746  11.784  19.073  0.00  0.00    +0.000 C 
ATOM     11  C   UNL     1       0.935   8.902  21.456  0.00  0.00    +0.000 A 
ATOM     12  C   UNL     1       1.237   7.541  21.465  0.00  0.00    +0.000 A 
ATOM     13  C   UNL     1       1.775   6.947  20.319  0.00  0.00    +0.000 A 
ATOM     14  C   UNL     1       2.143   5.591  20.270  0.00  0.00    +0.000 A 
ENDROOT
BRANCH   9  15
ATOM     15  C   UNL     1      -1.931  12.128  19.162  0.00  0.00    +0.000 A 
ATOM     16  N   UNL     1      -1.924  11.571  17.914  0.00  0.00    +0.000 NA
ATOM     17  C   UNL     1      -3.117  11.328  17.343  0.00  0.00    +0.000 A 
ATOM     18  C   UNL     1      -4.298  11.596  17.994  0.00  0.00    +0.000 A 
ATOM     19  N   UNL     1      -4.337  12.137  19.230  0.00  0.00    +0.000 NA
ATOM     20  C   UNL     1      -3.150  12.417  19.828  0.00  0.00    +0.000 A 
BRANCH  20  21
ATOM     21  N   UNL     1      -3.169  13.110  21.036  0.00  0.00    +0.000 N 
ATOM     22  C   UNL     1      -3.263  14.570  20.949  0.00  0.00    +0.000 C 
ATOM     23  C   UNL     1      -2.580  15.146  22.194  0.00  0.00    +0.000 C 
ATOM     24  C   UNL     1      -3.139  14.549  23.490  0.00  0.00    +0.000 C 
ATOM     25  C   UNL     1      -3.206  13.021  23.436  0.00  0.00    +0.000 C 
ATOM     26  C   UNL     1      -3.917  12.559  22.162  0.00  0.00    +0.000 C 
ENDBRANCH  20  21
ENDBRANCH   9  15
TORSDOF 2
ENDMDL
MODEL 5
REMARK VINA RESULT:      -6.8      2.024      3.450
REMARK  Name = 
REMARK  2 active torsions:
REMARK  status: ('A' for Active; 'I' for Inactive)
REMARK    1  A    between atoms: C_9  and  C_10
REMARK    2  A    between atoms: C_15  and  N_16
REMARK                            x       y       z     vdW  Elec       q    Type
REMARK                         _______ _______ _______ _____ _____    ______ ____
ROOT
ATOM      1  C   UNL     1       3.684   4.195  17.985  0.00  0.00    +0.000 A 
ATOM      2  C   UNL     1       4.086   5.321  17.279  0.00  0.00    +0.000 A 
ATOM      3  C   UNL     1       3.609   6.579  17.653  0.00  0.00    +0.000 A 
ATOM      4  C   UNL     1       2.745   6.739  18.727  0.00  0.00    +0.000 A 
ATOM      5  N   UNL     1       2.358   7.978  19.061  0.00  0.00    +0.000 NA
ATOM      6  C   UNL     1       1.519   8.158  20.103  0.00  0.00    +0.000 A 
ATOM      7  N   UNL     1       1.180   9.477  20.452  0.00  0.00    +0.000 N 
ATOM      8  C   UNL     1      -0.028   9.930  21.058  0.00  0.00    +0.000 C 
ATOM      9  C   UNL     1      -0.140  11.024  19.981  0.00  0.00    +0.000 C 
ATOM     10  C   UNL     1       1.265  10.583  19.543  0.00  0.00    +0.000 C 
ATOM     11  C   UNL     1       1.040   7.076  20.836  0.00  0.00    +0.000 A 
ATOM     12  C   UNL     1       1.441   5.785  20.498  0.00  0.00    +0.000 A 
ATOM     13  C   UNL     1       2.317   5.595  19.425  0.00  0.00    +0.000 A 
ATOM     14  C   UNL     1       2.796   4.326  19.053  0.00  0.00    +0.000 A 
ENDROOT
BRANCH   9  15
ATOM     15  C   UNL     1      -1.355  10.908  18.972  0.00  0.00    +0.000 A 
ATOM     16  N   UNL     1      -1.068  10.155  17.868  0.00  0.00    +0.000 NA
ATOM     17  C   UNL     1      -2.019  10.064  16.923  0.00  0.00    +0.000 A 
ATOM     18  C   UNL     1      -3.244  10.674  17.067  0.00  0.00    +0.000 A 
ATOM     19  N   UNL     1      -3.560  11.415  18.150  0.00  0.00    +0.000 NA
ATOM     20  C   UNL     1      -2.614  11.547  19.116  0.00  0.00    +0.000 A 
BRANCH  20  21
ATOM     21  N   UNL     1      -2.864  12.426  20.166  0.00  0.00    +0.000 N 
ATOM     22  C   UNL     1      -2.037  13.635  20.216  0.00  0.00    +0.000 C 
ATOM     23  C   UNL     1      -1.936  14.058  21.686  0.00  0.00    +0.000 C 
ATOM     24  C   UNL     1      -3.312  14.202  22.344  0.00  0.00    +0.000 C 
ATOM     25  C   UNL     1      -4.205  12.987  22.079  0.00  0.00    +0.000 C 
ATOM     26  C   UNL     1      -4.243  12.664  20.584  0.00  0.00    +0.000 C 
ENDBRANCH  20  21
ENDBRANCH   9  15
TORSDOF 2
ENDMDL
MODEL 6
REMARK VINA RESULT:      -6.7      3.103      4.692
REMARK  Name = 
REMARK  2 active torsions:
REMARK  status: ('A' for Active; 'I' for Inactive)
REMARK    1  A    between atoms: C_9  and  C_10
REMARK    2  A    between atoms: C_15  and  N_16
REMARK                            x       y       z     vdW  Elec       q    Type
REMARK                         _______ _______ _______ _____ _____    ______ ____
ROOT
ATOM      1  C   UNL     1       3.274  16.708  17.675  0.00  0.00    +0.000 A 
ATOM      2  C   UNL     1       2.071  17.229  18.132  0.00  0.00    +0.000 A 
ATOM      3  C   UNL     1       1.088  16.369  18.627  0.00  0.00    +0.000 A 
ATOM      4  C   UNL     1       1.285  14.996  18.684  0.00  0.00    +0.000 A 
ATOM      5  N   UNL     1       0.320  14.230  19.210  0.00  0.00    +0.000 NA
ATOM      6  C   UNL     1       0.490  12.892  19.278  0.00  0.00    +0.000 A 
ATOM      7  N   UNL     1      -0.525  12.131  19.884  0.00  0.00    +0.000 N 
ATOM      8  C   UNL     1      -0.881  10.781  19.602  0.00  0.00    +0.000 C 
ATOM      9  C   UNL     1      -2.356  11.209  19.493  0.00  0.00    +0.000 C 
ATOM     10  C   UNL     1      -1.883  12.577  20.006  0.00  0.00    +0.000 C 
ATOM     11  C   UNL     1       1.652  12.290  18.804  0.00  0.00    +0.000 A 
ATOM     12  C   UNL     1       2.663  13.081  18.260  0.00  0.00    +0.000 A 
ATOM     13  C   UNL     1       2.494  14.467  18.196  0.00  0.00    +0.000 A 
ATOM     14  C   UNL     1       3.488  15.329  17.699  0.00  0.00    +0.000 A 
ENDROOT
BRANCH   9  15
ATOM     15  C   UNL     1      -3.028  11.089  18.064  0.00  0.00    +0.000 A 
ATOM     16  N   UNL     1      -2.118  10.966  17.050  0.00  0.00    +0.000 NA
ATOM     17  C   UNL     1      -2.598  10.933  15.795  0.00  0.00    +0.000 A 
ATOM     18  C   UNL     1      -3.948  10.990  15.535  0.00  0.00    +0.000 A 
ATOM     19  N   UNL     1      -4.870  11.102  16.514  0.00  0.00    +0.000 NA
ATOM     20  C   UNL     1      -4.419  11.160  17.794  0.00  0.00    +0.000 A 
BRANCH  20  21
ATOM     21  N   UNL     1      -5.339  11.425  18.805  0.00  0.00    +0.000 N 
ATOM     22  C   UNL     1      -5.444  12.819  19.243  0.00  0.00    +0.000 C 
ATOM     23  C   UNL     1      -5.893  12.804  20.708  0.00  0.00    +0.000 C 
ATOM     24  C   UNL     1      -7.165  11.976  20.917  0.00  0.00    +0.000 C 
ATOM     25  C   UNL     1      -7.069  10.600  20.254  0.00  0.00    +0.000 C 
ATOM     26  C   UNL     1      -6.626  10.735  18.796  0.00  0.00    +0.000 C 
ENDBRANCH  20  21
ENDBRANCH   9  15
TORSDOF 2
ENDMDL
MODEL 7
REMARK VINA RESULT:      -6.7      0.870      1.305
REMARK  Name = 
REMARK  2 active torsions:
REMARK  status: ('A' for Active; 'I' for Inactive)
REMARK    1  A    between atoms: C_9  and  C_10
REMARK    2  A    between atoms: C_15  and  N_16
REMARK                            x       y       z     vdW  Elec       q    Type
REMARK                         _______ _______ _______ _____ _____    ______ ____
ROOT
ATOM      1  C   UNL     1       2.862   6.841  18.602  0.00  0.00    +0.000 A 
ATOM      2  C   UNL     1       2.791   7.835  17.636  0.00  0.00    +0.000 A 
ATOM      3  C   UNL     1       2.097   9.016  17.908  0.00  0.00    +0.000 A 
ATOM      4  C   UNL     1       1.479   9.231  19.133  0.00  0.00    +0.000 A 
ATOM      5  N   UNL     1       0.867  10.403  19.346  0.00  0.00    +0.000 NA
ATOM      6  C   UNL     1       0.261  10.634  20.530  0.00  0.00    +0.000 A 
ATOM      7  N   UNL     1      -0.325  11.897  20.732  0.00  0.00    +0.000 N 
ATOM      8  C   UNL     1      -1.444  12.211  21.556  0.00  0.00    +0.000 C 
ATOM      9  C   UNL     1      -2.071  12.984  20.381  0.00  0.00    +0.000 C 
ATOM     10  C   UNL     1      -0.733  12.761  19.662  0.00  0.00    +0.000 C 
ATOM     11  C   UNL     1       0.254   9.672  21.535  0.00  0.00    +0.000 A 
ATOM     12  C   UNL     1       0.892   8.451  21.322  0.00  0.00    +0.000 A 
ATOM     13  C   UNL     1       1.529   8.211  20.101  0.00  0.00    +0.000 A 
ATOM     14  C   UNL     1       2.228   7.021  19.832  0.00  0.00    +0.000 A 
ENDROOT
BRANCH   9  15
ATOM     15  C   UNL     1      -3.406  12.389  19.770  0.00  0.00    +0.000 A 
ATOM     16  N   UNL     1      -3.198  11.653  18.637  0.00  0.00    +0.000 NA
ATOM     17  C   UNL     1      -4.285  11.171  18.010  0.00  0.00    +0.000 A 
ATOM     18  C   UNL     1      -5.554  11.379  18.498  0.00  0.00    +0.000 A 
ATOM     19  N   UNL     1      -5.790  12.093  19.618  0.00  0.00    +0.000 NA
ATOM     20  C   UNL     1      -4.716  12.614  20.267  0.00  0.00    +0.000 A 
BRANCH  20  21
ATOM     21  N   UNL     1      -4.947  13.475  21.336  0.00  0.00    +0.000 N 
ATOM     22  C   UNL     1      -4.741  12.920  22.677  0.00  0.00    +0.000 C 
ATOM     23  C   UNL     1      -5.667  13.680  23.632  0.00  0.00    +0.000 C 
ATOM     24  C   UNL     1      -5.479  15.198  23.537  0.00  0.00    +0.000 C 
ATOM     25  C   UNL     1      -5.498  15.689  22.087  0.00  0.00    +0.000 C 
ATOM     26  C   UNL     1      -4.531  14.871  21.230  0.00  0.00    +0.000 C 
ENDBRANCH  20  21
ENDBRANCH   9  15
TORSDOF 2
ENDMDL
MODEL 8
REMARK VINA RESULT:      -6.7      3.095      4.910
REMARK  Name = 
REMARK  2 active torsions:
REMARK  status: ('A' for Active; 'I' for Inactive)
REMARK    1  A    between atoms: C_9  and  C_10
REMARK    2  A    between atoms: C_15  and  N_16
REMARK                            x       y       z     vdW  Elec       q    Type
REMARK                         _______ _______ _______ _____ _____    ______ ____
ROOT
ATOM      1  C   UNL     1       2.056   2.358  18.707  0.00  0.00    +0.000 A 
ATOM      2  C   UNL     1       2.246   2.969  17.474  0.00  0.00    +0.000 A 
ATOM      3  C   UNL     1       2.246   4.362  17.385  0.00  0.00    +0.000 A 
ATOM      4  C   UNL     1       2.072   5.163  18.506  0.00  0.00    +0.000 A 
ATOM      5  N   UNL     1       2.127   6.493  18.359  0.00  0.00    +0.000 NA
ATOM      6  C   UNL     1       1.962   7.291  19.436  0.00  0.00    +0.000 A 
ATOM      7  N   UNL     1       2.079   8.680  19.247  0.00  0.00    +0.000 N 
ATOM      8  C   UNL     1       1.433   9.712  19.987  0.00  0.00    +0.000 C 
ATOM      9  C   UNL     1       0.995  10.366  18.663  0.00  0.00    +0.000 C 
ATOM     10  C   UNL     1       1.895   9.325  17.979  0.00  0.00    +0.000 C 
ATOM     11  C   UNL     1       1.729   6.757  20.699  0.00  0.00    +0.000 A 
ATOM     12  C   UNL     1       1.675   5.373  20.860  0.00  0.00    +0.000 A 
ATOM     13  C   UNL     1       1.854   4.543  19.750  0.00  0.00    +0.000 A 
ATOM     14  C   UNL     1       1.854   3.140  19.845  0.00  0.00    +0.000 A 
ENDROOT
BRANCH   9  15
ATOM     15  C   UNL     1      -0.559  10.388  18.360  0.00  0.00    +0.000 A 
ATOM     16  N   UNL     1      -0.907   9.633  17.275  0.00  0.00    +0.000 NA
ATOM     17  C   UNL     1      -2.198   9.654  16.900  0.00  0.00    +0.000 A 
ATOM     18  C   UNL     1      -3.141  10.377  17.594  0.00  0.00    +0.000 A 
ATOM     19  N   UNL     1      -2.830  11.123  18.674  0.00  0.00    +0.000 NA
ATOM     20  C   UNL     1      -1.529  11.143  19.068  0.00  0.00    +0.000 A 
BRANCH  20  21
ATOM     21  N   UNL     1      -1.163  12.020  20.085  0.00  0.00    +0.000 N 
ATOM     22  C   UNL     1      -1.003  11.440  21.422  0.00  0.00    +0.000 C 
ATOM     23  C   UNL     1      -1.312  12.545  22.438  0.00  0.00    +0.000 C 
ATOM     24  C   UNL     1      -0.482  13.809  22.190  0.00  0.00    +0.000 C 
ATOM     25  C   UNL     1      -0.525  14.246  20.724  0.00  0.00    +0.000 C 
ATOM     26  C   UNL     1      -0.190  13.072  19.803  0.00  0.00    +0.000 C 
ENDBRANCH  20  21
ENDBRANCH   9  15
TORSDOF 2
ENDMDL
MODEL 9
REMARK VINA RESULT:      -6.6      4.452      6.520
REMARK  Name = 
REMARK  2 active torsions:
REMARK  status: ('A' for Active; 'I' for Inactive)
REMARK    1  A    between atoms: C_9  and  C_10
REMARK    2  A    between atoms: C_15  and  N_16
REMARK                            x       y       z     vdW  Elec       q    Type
REMARK                         _______ _______ _______ _____ _____    ______ ____
ROOT
ATOM      1  C   UNL     1       3.176   2.022  18.762  0.00  0.00    +0.000 A 
ATOM      2  C   UNL     1       1.852   2.282  18.435  0.00  0.00    +0.000 A 
ATOM      3  C   UNL     1       1.443   3.596  18.199  0.00  0.00    +0.000 A 
ATOM      4  C   UNL     1       2.333   4.659  18.270  0.00  0.00    +0.000 A 
ATOM      5  N   UNL     1       1.886   5.890  17.989  0.00  0.00    +0.000 NA
ATOM      6  C   UNL     1       2.735   6.939  18.051  0.00  0.00    +0.000 A 
ATOM      7  N   UNL     1       2.239   8.206  17.698  0.00  0.00    +0.000 N 
ATOM      8  C   UNL     1       2.672   9.473  18.185  0.00  0.00    +0.000 C 
ATOM      9  C   UNL     1       1.206   9.850  18.466  0.00  0.00    +0.000 C 
ATOM     10  C   UNL     1       0.846   8.549  17.733  0.00  0.00    +0.000 C 
ATOM     11  C   UNL     1       4.069   6.765  18.409  0.00  0.00    +0.000 A 
ATOM     12  C   UNL     1       4.541   5.487  18.699  0.00  0.00    +0.000 A 
ATOM     13  C   UNL     1       3.669   4.397  18.627  0.00  0.00    +0.000 A 
ATOM     14  C   UNL     1       4.086   3.075  18.865  0.00  0.00    +0.000 A 
ENDROOT
BRANCH   9  15
ATOM     15  C   UNL     1       0.799  10.039  19.985  0.00  0.00    +0.000 A 
ATOM     16  N   UNL     1       0.523   8.861  20.620  0.00  0.00    +0.000 NA
ATOM     17  C   UNL     1       0.097   8.934  21.892  0.00  0.00    +0.000 A 
ATOM     18  C   UNL     1      -0.028  10.138  22.546  0.00  0.00    +0.000 A 
ATOM     19  N   UNL     1       0.247  11.317  21.949  0.00  0.00    +0.000 NA
ATOM     20  C   UNL     1       0.659  11.282  20.655  0.00  0.00    +0.000 A 
BRANCH  20  21
ATOM     21  N   UNL     1       0.803  12.490  19.978  0.00  0.00    +0.000 N 
ATOM     22  C   UNL     1       2.167  12.862  19.591  0.00  0.00    +0.000 C 
ATOM     23  C   UNL     1       2.225  14.393  19.543  0.00  0.00    +0.000 C 
ATOM     24  C   UNL     1       1.128  14.988  18.654  0.00  0.00    +0.000 C 
ATOM     25  C   UNL     1      -0.249  14.401  18.972  0.00  0.00    +0.000 C 
ATOM     26  C   UNL     1      -0.194  12.872  18.981  0.00  0.00    +0.000 C 
ENDBRANCH  20  21
ENDBRANCH   9  15
TORSDOF 2
ENDMDL
