MODEL 1
REMARK VINA RESULT:      -7.6      0.000      0.000
REMARK  Name = 
REMARK  5 active torsions:
REMARK  status: ('A' for Active; 'I' for Inactive)
REMARK    1  A    between atoms: C_1  and  N_2
REMARK    2  A    between atoms: C_9  and  O_10
REMARK    3  A    between atoms: C_11  and  C_12
REMARK    4  A    between atoms: C_12  and  S_13
REMARK    5  A    between atoms: N_14  and  C_15
REMARK                            x       y       z     vdW  Elec       q    Type
REMARK                         _______ _______ _______ _____ _____    ______ ____
ROOT
ATOM      1  C   UNL     1       2.487   2.697  20.428  0.00  0.00    +0.000 C 
ATOM      2  N   UNL     1       2.761   3.815  19.486  0.00  0.00    +0.000 N 
ATOM      3  C   UNL     1       2.525   5.193  19.865  0.00  0.00    +0.000 A 
ATOM      4  C   UNL     1       1.516   5.474  20.824  0.00  0.00    +0.000 A 
ATOM      5  C   UNL     1       1.063   6.766  21.067  0.00  0.00    +0.000 A 
ATOM      6  C   UNL     1       1.586   7.822  20.343  0.00  0.00    +0.000 A 
ATOM      7  C   UNL     1       2.580   7.577  19.394  0.00  0.00    +0.000 A 
ATOM      8  C   UNL     1       3.051   6.268  19.113  0.00  0.00    +0.000 A 
ATOM      9  C   UNL     1       4.042   6.066  18.008  0.00  0.00    +0.000 C 
ATOM     10  C   UNL     1       4.559   4.877  17.651  0.00  0.00    +0.000 C 
ATOM     11  S   UNL     1       4.216   3.506  18.619  0.00  0.00    +0.000 S 
ATOM     12  O   UNL     1       5.247   3.380  19.630  0.00  0.00    +0.000 OA
ATOM     13  O   UNL     1       3.893   2.369  17.775  0.00  0.00    +0.000 OA
ENDROOT
BRANCH   9  14
ATOM     14  O   UNL     1       4.454   7.214  17.331  0.00  0.00    +0.000 OA
ATOM     15  H   UNL     1       3.738   7.872  17.349  0.00  0.00    +0.000 HD
ENDBRANCH   9  14
BRANCH  10  16
ATOM     16  C   UNL     1       5.482   4.623  16.505  0.00  0.00    +0.000 C 
ATOM     17  N   UNL     1       5.047   4.583  15.282  0.00  0.00    +0.000 NA
BRANCH  17  18
ATOM     18  C   UNL     1       5.860   4.443  14.143  0.00  0.00    +0.000 A 
ATOM     19  C   UNL     1       7.032   5.177  13.938  0.00  0.00    +0.000 A 
ATOM     20  C   UNL     1       7.781   5.031  12.768  0.00  0.00    +0.000 A 
ATOM     21  C   UNL     1       7.413   4.080  11.820  0.00  0.00    +0.000 A 
ATOM     22  C   UNL     1       6.302   3.273  12.050  0.00  0.00    +0.000 A 
ATOM     23  C   UNL     1       5.528   3.460  13.202  0.00  0.00    +0.000 A 
ENDBRANCH  17  18
BRANCH  16  24
ATOM     24  S   UNL     1       7.181   4.483  16.980  0.00  0.00    +0.000 S 
ATOM     25  H   UNL     1       7.562   3.935  15.813  0.00  0.00    +0.000 HD
ENDBRANCH  16  24
ENDBRANCH  10  16
TORSDOF 4
ENDMDL
MODEL 2
REMARK VINA RESULT:      -7.5      0.210      1.023
REMARK  Name = 
REMARK  5 active torsions:
REMARK  status: ('A' for Active; 'I' for Inactive)
REMARK    1  A    between atoms: C_1  and  N_2
REMARK    2  A    between atoms: C_9  and  O_10
REMARK    3  A    between atoms: C_11  and  C_12
REMARK    4  A    between atoms: C_12  and  S_13
REMARK    5  A    between atoms: N_14  and  C_15
REMARK                            x       y       z     vdW  Elec       q    Type
REMARK                         _______ _______ _______ _____ _____    ______ ____
ROOT
ATOM      1  C   UNL     1       2.732   2.938  20.663  0.00  0.00    +0.000 C 
ATOM      2  N   UNL     1       2.908   3.974  19.610  0.00  0.00    +0.000 N 
ATOM      3  C   UNL     1       2.617   5.369  19.871  0.00  0.00    +0.000 A 
ATOM      4  C   UNL     1       1.637   5.691  20.846  0.00  0.00    +0.000 A 
ATOM      5  C   UNL     1       1.129   6.978  20.990  0.00  0.00    +0.000 A 
ATOM      6  C   UNL     1       1.566   7.983  20.147  0.00  0.00    +0.000 A 
ATOM      7  C   UNL     1       2.530   7.698  19.180  0.00  0.00    +0.000 A 
ATOM      8  C   UNL     1       3.056   6.392  18.998  0.00  0.00    +0.000 A 
ATOM      9  C   UNL     1       4.008   6.134  17.872  0.00  0.00    +0.000 C 
ATOM     10  C   UNL     1       4.570   4.942  17.602  0.00  0.00    +0.000 C 
ATOM     11  S   UNL     1       4.339   3.654  18.707  0.00  0.00    +0.000 S 
ATOM     12  O   UNL     1       5.417   3.672  19.677  0.00  0.00    +0.000 OA
ATOM     13  O   UNL     1       4.040   2.428  17.988  0.00  0.00    +0.000 OA
ENDROOT
BRANCH   9  14
ATOM     14  O   UNL     1       4.332   7.231  17.074  0.00  0.00    +0.000 OA
ATOM     15  H   UNL     1       4.180   7.004  16.140  0.00  0.00    +0.000 HD
ENDBRANCH   9  14
BRANCH  10  16
ATOM     16  C   UNL     1       5.456   4.625  16.443  0.00  0.00    +0.000 C 
ATOM     17  N   UNL     1       4.985   4.541  15.235  0.00  0.00    +0.000 NA
BRANCH  17  18
ATOM     18  C   UNL     1       5.763   4.340  14.081  0.00  0.00    +0.000 A 
ATOM     19  C   UNL     1       5.433   3.421  13.080  0.00  0.00    +0.000 A 
ATOM     20  C   UNL     1       6.264   3.229  11.973  0.00  0.00    +0.000 A 
ATOM     21  C   UNL     1       7.399   4.019  11.809  0.00  0.00    +0.000 A 
ATOM     22  C   UNL     1       7.693   5.004  12.748  0.00  0.00    +0.000 A 
ATOM     23  C   UNL     1       6.883   5.157  13.879  0.00  0.00    +0.000 A 
ENDBRANCH  17  18
BRANCH  16  24
ATOM     24  S   UNL     1       7.165   4.475  16.876  0.00  0.00    +0.000 S 
ATOM     25  H   UNL     1       7.080   5.338  17.903  0.00  0.00    +0.000 HD
ENDBRANCH  16  24
ENDBRANCH  10  16
TORSDOF 4
ENDMDL
MODEL 3
REMARK VINA RESULT:      -7.0      3.436      5.401
REMARK  Name = 
REMARK  5 active torsions:
REMARK  status: ('A' for Active; 'I' for Inactive)
REMARK    1  A    between atoms: C_1  and  N_2
REMARK    2  A    between atoms: C_9  and  O_10
REMARK    3  A    between atoms: C_11  and  C_12
REMARK    4  A    between atoms: C_12  and  S_13
REMARK    5  A    between atoms: N_14  and  C_15
REMARK                            x       y       z     vdW  Elec       q    Type
REMARK                         _______ _______ _______ _____ _____    ______ ____
ROOT
ATOM      1  C   UNL     1       0.438  11.785  18.496  0.00  0.00    +0.000 C 
ATOM      2  N   UNL     1       1.025  10.643  19.249  0.00  0.00    +0.000 N 
ATOM      3  C   UNL     1       0.469  10.214  20.516  0.00  0.00    +0.000 A 
ATOM      4  C   UNL     1      -0.192  11.170  21.331  0.00  0.00    +0.000 A 
ATOM      5  C   UNL     1      -0.541  10.905  22.651  0.00  0.00    +0.000 A 
ATOM      6  C   UNL     1      -0.219   9.683  23.211  0.00  0.00    +0.000 A 
ATOM      7  C   UNL     1       0.430   8.722  22.435  0.00  0.00    +0.000 A 
ATOM      8  C   UNL     1       0.813   8.968  21.091  0.00  0.00    +0.000 A 
ATOM      9  C   UNL     1       1.600   7.932  20.350  0.00  0.00    +0.000 C 
ATOM     10  C   UNL     1       2.017   8.052  19.077  0.00  0.00    +0.000 C 
ATOM     11  S   UNL     1       1.477   9.392  18.157  0.00  0.00    +0.000 S 
ATOM     12  O   UNL     1       0.255   9.022  17.468  0.00  0.00    +0.000 OA
ATOM     13  O   UNL     1       2.583   9.958  17.404  0.00  0.00    +0.000 OA
ENDROOT
BRANCH   9  14
ATOM     14  O   UNL     1       1.892   6.761  21.050  0.00  0.00    +0.000 OA
ATOM     15  H   UNL     1       1.171   6.572  21.675  0.00  0.00    +0.000 HD
ENDBRANCH   9  14
BRANCH  10  16
ATOM     16  C   UNL     1       2.874   7.082  18.332  0.00  0.00    +0.000 C 
ATOM     17  N   UNL     1       4.088   7.382  17.981  0.00  0.00    +0.000 NA
BRANCH  17  18
ATOM     18  C   UNL     1       4.988   6.496  17.363  0.00  0.00    +0.000 A 
ATOM     19  C   UNL     1       5.102   6.357  15.977  0.00  0.00    +0.000 A 
ATOM     20  C   UNL     1       5.983   5.429  15.414  0.00  0.00    +0.000 A 
ATOM     21  C   UNL     1       6.829   4.687  16.233  0.00  0.00    +0.000 A 
ATOM     22  C   UNL     1       6.797   4.880  17.611  0.00  0.00    +0.000 A 
ATOM     23  C   UNL     1       5.877   5.775  18.171  0.00  0.00    +0.000 A 
ENDBRANCH  17  18
BRANCH  16  24
ATOM     24  S   UNL     1       2.106   5.508  18.076  0.00  0.00    +0.000 S 
ATOM     25  H   UNL     1       2.318   5.513  16.749  0.00  0.00    +0.000 HD
ENDBRANCH  16  24
ENDBRANCH  10  16
TORSDOF 4
ENDMDL
MODEL 4
REMARK VINA RESULT:      -6.9      3.424      5.347
REMARK  Name = 
REMARK  5 active torsions:
REMARK  status: ('A' for Active; 'I' for Inactive)
REMARK    1  A    between atoms: C_1  and  N_2
REMARK    2  A    between atoms: C_9  and  O_10
REMARK    3  A    between atoms: C_11  and  C_12
REMARK    4  A    between atoms: C_12  and  S_13
REMARK    5  A    between atoms: N_14  and  C_15
REMARK                            x       y       z     vdW  Elec       q    Type
REMARK                         _______ _______ _______ _____ _____    ______ ____
ROOT
ATOM      1  C   UNL     1       0.415  11.744  18.464  0.00  0.00    +0.000 C 
ATOM      2  N   UNL     1       1.016  10.619  19.230  0.00  0.00    +0.000 N 
ATOM      3  C   UNL     1       0.469  10.200  20.504  0.00  0.00    +0.000 A 
ATOM      4  C   UNL     1      -0.201  11.158  21.309  0.00  0.00    +0.000 A 
ATOM      5  C   UNL     1      -0.543  10.907  22.633  0.00  0.00    +0.000 A 
ATOM      6  C   UNL     1      -0.205   9.695  23.207  0.00  0.00    +0.000 A 
ATOM      7  C   UNL     1       0.453   8.732  22.442  0.00  0.00    +0.000 A 
ATOM      8  C   UNL     1       0.828   8.965  21.093  0.00  0.00    +0.000 A 
ATOM      9  C   UNL     1       1.625   7.929  20.363  0.00  0.00    +0.000 C 
ATOM     10  C   UNL     1       2.037   8.038  19.087  0.00  0.00    +0.000 C 
ATOM     11  S   UNL     1       1.479   9.359  18.152  0.00  0.00    +0.000 S 
ATOM     12  O   UNL     1       0.260   8.967  17.472  0.00  0.00    +0.000 OA
ATOM     13  O   UNL     1       2.577   9.929  17.389  0.00  0.00    +0.000 OA
ENDROOT
BRANCH   9  14
ATOM     14  O   UNL     1       1.932   6.770  21.076  0.00  0.00    +0.000 OA
ATOM     15  H   UNL     1       2.850   6.510  20.887  0.00  0.00    +0.000 HD
ENDBRANCH   9  14
BRANCH  10  16
ATOM     16  C   UNL     1       2.903   7.068  18.352  0.00  0.00    +0.000 C 
ATOM     17  N   UNL     1       4.119   7.370  18.010  0.00  0.00    +0.000 NA
BRANCH  17  18
ATOM     18  C   UNL     1       5.026   6.486  17.402  0.00  0.00    +0.000 A 
ATOM     19  C   UNL     1       5.879   5.642  18.120  0.00  0.00    +0.000 A 
ATOM     20  C   UNL     1       6.794   4.813  17.466  0.00  0.00    +0.000 A 
ATOM     21  C   UNL     1       6.809   4.752  16.076  0.00  0.00    +0.000 A 
ATOM     22  C   UNL     1       5.903   5.514  15.344  0.00  0.00    +0.000 A 
ATOM     23  C   UNL     1       5.023   6.380  16.005  0.00  0.00    +0.000 A 
ENDBRANCH  17  18
BRANCH  16  24
ATOM     24  S   UNL     1       2.141   5.491  18.095  0.00  0.00    +0.000 S 
ATOM     25  H   UNL     1       3.273   4.800  18.319  0.00  0.00    +0.000 HD
ENDBRANCH  16  24
ENDBRANCH  10  16
TORSDOF 4
ENDMDL
MODEL 5
REMARK VINA RESULT:      -6.6      1.147      2.907
REMARK  Name = 
REMARK  5 active torsions:
REMARK  status: ('A' for Active; 'I' for Inactive)
REMARK    1  A    between atoms: C_1  and  N_2
REMARK    2  A    between atoms: C_9  and  O_10
REMARK    3  A    between atoms: C_11  and  C_12
REMARK    4  A    between atoms: C_12  and  S_13
REMARK    5  A    between atoms: N_14  and  C_15
REMARK                            x       y       z     vdW  Elec       q    Type
REMARK                         _______ _______ _______ _____ _____    ______ ____
ROOT
ATOM      1  C   UNL     1       2.389   7.131  19.842  0.00  0.00    +0.000 C 
ATOM      2  N   UNL     1       3.089   5.853  19.541  0.00  0.00    +0.000 N 
ATOM      3  C   UNL     1       2.547   4.579  19.969  0.00  0.00    +0.000 A 
ATOM      4  C   UNL     1       1.739   4.538  21.135  0.00  0.00    +0.000 A 
ATOM      5  C   UNL     1       1.379   3.342  21.746  0.00  0.00    +0.000 A 
ATOM      6  C   UNL     1       1.835   2.144  21.226  0.00  0.00    +0.000 A 
ATOM      7  C   UNL     1       2.630   2.152  20.080  0.00  0.00    +0.000 A 
ATOM      8  C   UNL     1       3.027   3.357  19.443  0.00  0.00    +0.000 A 
ATOM      9  C   UNL     1       3.968   3.297  18.280  0.00  0.00    +0.000 C 
ATOM     10  C   UNL     1       4.413   4.368  17.599  0.00  0.00    +0.000 C 
ATOM     11  S   UNL     1       3.739   5.903  17.947  0.00  0.00    +0.000 S 
ATOM     12  O   UNL     1       2.601   6.122  17.075  0.00  0.00    +0.000 OA
ATOM     13  O   UNL     1       4.789   6.904  18.022  0.00  0.00    +0.000 OA
ENDROOT
BRANCH   9  14
ATOM     14  O   UNL     1       4.382   2.025  17.885  0.00  0.00    +0.000 OA
ATOM     15  H   UNL     1       3.740   1.660  17.251  0.00  0.00    +0.000 HD
ENDBRANCH   9  14
BRANCH  10  16
ATOM     16  C   UNL     1       5.414   4.358  16.490  0.00  0.00    +0.000 C 
ATOM     17  N   UNL     1       5.047   4.263  15.248  0.00  0.00    +0.000 NA
BRANCH  17  18
ATOM     18  C   UNL     1       5.915   4.340  14.145  0.00  0.00    +0.000 A 
ATOM     19  C   UNL     1       7.034   5.178  14.102  0.00  0.00    +0.000 A 
ATOM     20  C   UNL     1       7.840   5.248  12.963  0.00  0.00    +0.000 A 
ATOM     21  C   UNL     1       7.587   4.414  11.878  0.00  0.00    +0.000 A 
ATOM     22  C   UNL     1       6.533   3.506  11.939  0.00  0.00    +0.000 A 
ATOM     23  C   UNL     1       5.700   3.476  13.064  0.00  0.00    +0.000 A 
ENDBRANCH  17  18
BRANCH  16  24
ATOM     24  S   UNL     1       7.082   4.574  17.039  0.00  0.00    +0.000 S 
ATOM     25  H   UNL     1       7.081   5.902  16.828  0.00  0.00    +0.000 HD
ENDBRANCH  16  24
ENDBRANCH  10  16
TORSDOF 4
ENDMDL
MODEL 6
REMARK VINA RESULT:      -6.5      0.932      1.068
REMARK  Name = 
REMARK  5 active torsions:
REMARK  status: ('A' for Active; 'I' for Inactive)
REMARK    1  A    between atoms: C_1  and  N_2
REMARK    2  A    between atoms: C_9  and  O_10
REMARK    3  A    between atoms: C_11  and  C_12
REMARK    4  A    between atoms: C_12  and  S_13
REMARK    5  A    between atoms: N_14  and  C_15
REMARK                            x       y       z     vdW  Elec       q    Type
REMARK                         _______ _______ _______ _____ _____    ______ ____
ROOT
ATOM      1  C   UNL     1       2.792   4.312  20.968  0.00  0.00    +0.000 C 
ATOM      2  N   UNL     1       2.897   5.087  19.701  0.00  0.00    +0.000 N 
ATOM      3  C   UNL     1       2.553   6.493  19.649  0.00  0.00    +0.000 A 
ATOM      4  C   UNL     1       1.583   6.992  20.557  0.00  0.00    +0.000 A 
ATOM      5  C   UNL     1       1.023   8.258  20.422  0.00  0.00    +0.000 A 
ATOM      6  C   UNL     1       1.395   9.061  19.359  0.00  0.00    +0.000 A 
ATOM      7  C   UNL     1       2.348   8.598  18.450  0.00  0.00    +0.000 A 
ATOM      8  C   UNL     1       2.925   7.305  18.553  0.00  0.00    +0.000 A 
ATOM      9  C   UNL     1       3.861   6.833  17.484  0.00  0.00    +0.000 C 
ATOM     10  C   UNL     1       4.468   5.632  17.473  0.00  0.00    +0.000 C 
ATOM     11  S   UNL     1       4.319   4.622  18.848  0.00  0.00    +0.000 S 
ATOM     12  O   UNL     1       5.418   4.901  19.752  0.00  0.00    +0.000 OA
ATOM     13  O   UNL     1       4.056   3.254  18.436  0.00  0.00    +0.000 OA
ENDROOT
BRANCH   9  14
ATOM     14  O   UNL     1       4.118   7.730  16.447  0.00  0.00    +0.000 OA
ATOM     15  H   UNL     1       3.549   8.512  16.551  0.00  0.00    +0.000 HD
ENDBRANCH   9  14
BRANCH  10  16
ATOM     16  C   UNL     1       5.339   5.092  16.387  0.00  0.00    +0.000 C 
ATOM     17  N   UNL     1       4.910   4.987  15.165  0.00  0.00    +0.000 NA
BRANCH  17  18
ATOM     18  C   UNL     1       5.693   4.578  14.071  0.00  0.00    +0.000 A 
ATOM     19  C   UNL     1       6.978   5.067  13.817  0.00  0.00    +0.000 A 
ATOM     20  C   UNL     1       7.696   4.660  12.690  0.00  0.00    +0.000 A 
ATOM     21  C   UNL     1       7.172   3.688  11.844  0.00  0.00    +0.000 A 
ATOM     22  C   UNL     1       5.934   3.120  12.132  0.00  0.00    +0.000 A 
ATOM     23  C   UNL     1       5.198   3.569  13.235  0.00  0.00    +0.000 A 
ENDBRANCH  17  18
BRANCH  16  24
ATOM     24  S   UNL     1       6.984   4.714  16.919  0.00  0.00    +0.000 S 
ATOM     25  H   UNL     1       6.594   3.726  17.743  0.00  0.00    +0.000 HD
ENDBRANCH  16  24
ENDBRANCH  10  16
TORSDOF 4
ENDMDL
MODEL 7
REMARK VINA RESULT:      -6.5      1.178      3.074
REMARK  Name = 
REMARK  5 active torsions:
REMARK  status: ('A' for Active; 'I' for Inactive)
REMARK    1  A    between atoms: C_1  and  N_2
REMARK    2  A    between atoms: C_9  and  O_10
REMARK    3  A    between atoms: C_11  and  C_12
REMARK    4  A    between atoms: C_12  and  S_13
REMARK    5  A    between atoms: N_14  and  C_15
REMARK                            x       y       z     vdW  Elec       q    Type
REMARK                         _______ _______ _______ _____ _____    ______ ____
ROOT
ATOM      1  C   UNL     1       2.575   7.121  19.867  0.00  0.00    +0.000 C 
ATOM      2  N   UNL     1       3.227   5.825  19.538  0.00  0.00    +0.000 N 
ATOM      3  C   UNL     1       2.654   4.565  19.965  0.00  0.00    +0.000 A 
ATOM      4  C   UNL     1       1.871   4.537  21.149  0.00  0.00    +0.000 A 
ATOM      5  C   UNL     1       1.487   3.347  21.757  0.00  0.00    +0.000 A 
ATOM      6  C   UNL     1       1.893   2.141  21.216  0.00  0.00    +0.000 A 
ATOM      7  C   UNL     1       2.662   2.135  20.052  0.00  0.00    +0.000 A 
ATOM      8  C   UNL     1       3.083   3.334  19.418  0.00  0.00    +0.000 A 
ATOM      9  C   UNL     1       3.995   3.256  18.233  0.00  0.00    +0.000 C 
ATOM     10  C   UNL     1       4.459   4.319  17.552  0.00  0.00    +0.000 C 
ATOM     11  S   UNL     1       3.842   5.872  17.930  0.00  0.00    +0.000 S 
ATOM     12  O   UNL     1       2.692   6.135  17.087  0.00  0.00    +0.000 OA
ATOM     13  O   UNL     1       4.925   6.837  17.991  0.00  0.00    +0.000 OA
ENDROOT
BRANCH   9  14
ATOM     14  O   UNL     1       4.360   1.975  17.817  0.00  0.00    +0.000 OA
ATOM     15  H   UNL     1       5.190   1.719  18.255  0.00  0.00    +0.000 HD
ENDBRANCH   9  14
BRANCH  10  16
ATOM     16  C   UNL     1       5.434   4.288  16.421  0.00  0.00    +0.000 C 
ATOM     17  N   UNL     1       5.041   4.132  15.193  0.00  0.00    +0.000 NA
BRANCH  17  18
ATOM     18  C   UNL     1       5.881   4.185  14.067  0.00  0.00    +0.000 A 
ATOM     19  C   UNL     1       5.678   3.417  12.917  0.00  0.00    +0.000 A 
ATOM     20  C   UNL     1       6.569   3.476  11.842  0.00  0.00    +0.000 A 
ATOM     21  C   UNL     1       7.633   4.372  11.868  0.00  0.00    +0.000 A 
ATOM     22  C   UNL     1       7.798   5.213  12.966  0.00  0.00    +0.000 A 
ATOM     23  C   UNL     1       6.930   5.114  14.060  0.00  0.00    +0.000 A 
ENDBRANCH  17  18
BRANCH  16  24
ATOM     24  S   UNL     1       7.108   4.572  16.920  0.00  0.00    +0.000 S 
ATOM     25  H   UNL     1       7.116   5.851  16.506  0.00  0.00    +0.000 HD
ENDBRANCH  16  24
ENDBRANCH  10  16
TORSDOF 4
ENDMDL
MODEL 8
REMARK VINA RESULT:      -6.5      6.501      9.309
REMARK  Name = 
REMARK  5 active torsions:
REMARK  status: ('A' for Active; 'I' for Inactive)
REMARK    1  A    between atoms: C_1  and  N_2
REMARK    2  A    between atoms: C_9  and  O_10
REMARK    3  A    between atoms: C_11  and  C_12
REMARK    4  A    between atoms: C_12  and  S_13
REMARK    5  A    between atoms: N_14  and  C_15
REMARK                            x       y       z     vdW  Elec       q    Type
REMARK                         _______ _______ _______ _____ _____    ______ ____
ROOT
ATOM      1  C   UNL     1       0.149   9.002  22.553  0.00  0.00    +0.000 C 
ATOM      2  N   UNL     1       0.902   9.427  21.342  0.00  0.00    +0.000 N 
ATOM      3  C   UNL     1       1.313   8.468  20.337  0.00  0.00    +0.000 A 
ATOM      4  C   UNL     1       1.557   7.127  20.732  0.00  0.00    +0.000 A 
ATOM      5  C   UNL     1       2.176   6.208  19.892  0.00  0.00    +0.000 A 
ATOM      6  C   UNL     1       2.597   6.604  18.636  0.00  0.00    +0.000 A 
ATOM      7  C   UNL     1       2.370   7.916  18.218  0.00  0.00    +0.000 A 
ATOM      8  C   UNL     1       1.754   8.881  19.058  0.00  0.00    +0.000 A 
ATOM      9  C   UNL     1       1.638  10.297  18.586  0.00  0.00    +0.000 C 
ATOM     10  C   UNL     1       1.076  11.295  19.291  0.00  0.00    +0.000 C 
ATOM     11  S   UNL     1       0.272  10.918  20.755  0.00  0.00    +0.000 S 
ATOM     12  O   UNL     1      -1.125  10.658  20.467  0.00  0.00    +0.000 OA
ATOM     13  O   UNL     1       0.626  11.883  21.782  0.00  0.00    +0.000 OA
ENDROOT
BRANCH   9  14
ATOM     14  O   UNL     1       2.141  10.567  17.313  0.00  0.00    +0.000 OA
ATOM     15  H   UNL     1       2.021  11.512  17.115  0.00  0.00    +0.000 HD
ENDBRANCH   9  14
BRANCH  10  16
ATOM     16  C   UNL     1       1.016  12.734  18.893  0.00  0.00    +0.000 C 
ATOM     17  N   UNL     1       2.036  13.522  19.050  0.00  0.00    +0.000 NA
BRANCH  17  18
ATOM     18  C   UNL     1       2.093  14.859  18.618  0.00  0.00    +0.000 A 
ATOM     19  C   UNL     1       1.328  15.884  19.182  0.00  0.00    +0.000 A 
ATOM     20  C   UNL     1       1.390  17.189  18.685  0.00  0.00    +0.000 A 
ATOM     21  C   UNL     1       2.288  17.505  17.669  0.00  0.00    +0.000 A 
ATOM     22  C   UNL     1       3.126  16.517  17.159  0.00  0.00    +0.000 A 
ATOM     23  C   UNL     1       3.022  15.202  17.628  0.00  0.00    +0.000 A 
ENDBRANCH  17  18
BRANCH  16  24
ATOM     24  S   UNL     1      -0.512  13.195  18.128  0.00  0.00    +0.000 S 
ATOM     25  H   UNL     1      -0.852  11.930  17.822  0.00  0.00    +0.000 HD
ENDBRANCH  16  24
ENDBRANCH  10  16
TORSDOF 4
ENDMDL
MODEL 9
REMARK VINA RESULT:      -6.4      6.531      9.364
REMARK  Name = 
REMARK  5 active torsions:
REMARK  status: ('A' for Active; 'I' for Inactive)
REMARK    1  A    between atoms: C_1  and  N_2
REMARK    2  A    between atoms: C_9  and  O_10
REMARK    3  A    between atoms: C_11  and  C_12
REMARK    4  A    between atoms: C_12  and  S_13
REMARK    5  A    between atoms: N_14  and  C_15
REMARK                            x       y       z     vdW  Elec       q    Type
REMARK                         _______ _______ _______ _____ _____    ______ ____
ROOT
ATOM      1  C   UNL     1       0.176   8.997  22.511  0.00  0.00    +0.000 C 
ATOM      2  N   UNL     1       0.935   9.443  21.312  0.00  0.00    +0.000 N 
ATOM      3  C   UNL     1       1.347   8.502  20.290  0.00  0.00    +0.000 A 
ATOM      4  C   UNL     1       1.587   7.153  20.662  0.00  0.00    +0.000 A 
ATOM      5  C   UNL     1       2.207   6.247  19.808  0.00  0.00    +0.000 A 
ATOM      6  C   UNL     1       2.633   6.665  18.561  0.00  0.00    +0.000 A 
ATOM      7  C   UNL     1       2.411   7.985  18.167  0.00  0.00    +0.000 A 
ATOM      8  C   UNL     1       1.795   8.936  19.021  0.00  0.00    +0.000 A 
ATOM      9  C   UNL     1       1.684  10.361  18.575  0.00  0.00    +0.000 C 
ATOM     10  C   UNL     1       1.121  11.348  19.295  0.00  0.00    +0.000 C 
ATOM     11  S   UNL     1       0.311  10.946  20.750  0.00  0.00    +0.000 S 
ATOM     12  O   UNL     1      -1.086  10.695  20.451  0.00  0.00    +0.000 OA
ATOM     13  O   UNL     1       0.663  11.891  21.794  0.00  0.00    +0.000 OA
ENDROOT
BRANCH   9  14
ATOM     14  O   UNL     1       2.192  10.653  17.309  0.00  0.00    +0.000 OA
ATOM     15  H   UNL     1       2.425  11.597  17.266  0.00  0.00    +0.000 HD
ENDBRANCH   9  14
BRANCH  10  16
ATOM     16  C   UNL     1       1.066  12.793  18.923  0.00  0.00    +0.000 C 
ATOM     17  N   UNL     1       2.103  13.565  19.053  0.00  0.00    +0.000 NA
BRANCH  17  18
ATOM     18  C   UNL     1       2.162  14.908  18.641  0.00  0.00    +0.000 A 
ATOM     19  C   UNL     1       2.926  15.347  17.555  0.00  0.00    +0.000 A 
ATOM     20  C   UNL     1       2.984  16.701  17.214  0.00  0.00    +0.000 A 
ATOM     21  C   UNL     1       2.207  17.627  17.903  0.00  0.00    +0.000 A 
ATOM     22  C   UNL     1       1.368  17.195  18.927  0.00  0.00    +0.000 A 
ATOM     23  C   UNL     1       1.353  15.844  19.296  0.00  0.00    +0.000 A 
ENDBRANCH  17  18
BRANCH  16  24
ATOM     24  S   UNL     1      -0.483  13.288  18.226  0.00  0.00    +0.000 S 
ATOM     25  H   UNL     1      -0.801  14.089  19.258  0.00  0.00    +0.000 HD
ENDBRANCH  16  24
ENDBRANCH  10  16
TORSDOF 4
ENDMDL
