MODEL 1
REMARK VINA RESULT:      -8.6      0.000      0.000
REMARK  Name = 
REMARK  6 active torsions:
REMARK  status: ('A' for Active; 'I' for Inactive)
REMARK    1  A    between atoms: C_2  and  C_3
REMARK    2  A    between atoms: C_3  and  S_4
REMARK    3  A    between atoms: S_4  and  C_5
REMARK    4  A    between atoms: N_17  and  C_18
REMARK    5  A    between atoms: C_21  and  S_22
REMARK    6  A    between atoms: S_22  and  N_25
REMARK                            x       y       z     vdW  Elec       q    Type
REMARK                         _______ _______ _______ _____ _____    ______ ____
ROOT
ATOM      1  O   UNL     1       1.948  12.239  19.110  0.00  0.00    +0.000 OA
ATOM      2  C   UNL     1       0.795  11.801  19.097  0.00  0.00    +0.000 C 
ATOM      3  N   UNL     1       0.452  10.483  18.871  0.00  0.00    +0.000 N 
ATOM      4  H   UNL     1      -0.540  10.285  18.844  0.00  0.00    +0.000 HD
ENDROOT
BRANCH   3   5
ATOM      5  C   UNL     1       1.318   9.362  18.844  0.00  0.00    +0.000 A 
ATOM      6  C   UNL     1       1.457   8.455  19.900  0.00  0.00    +0.000 A 
ATOM      7  C   UNL     1       2.256   7.311  19.769  0.00  0.00    +0.000 A 
ATOM      8  C   UNL     1       2.905   7.050  18.562  0.00  0.00    +0.000 A 
ATOM      9  C   UNL     1       2.847   7.994  17.531  0.00  0.00    +0.000 A 
ATOM     10  C   UNL     1       2.055   9.140  17.673  0.00  0.00    +0.000 A 
BRANCH   8  11
ATOM     11  S   UNL     1       3.975   5.627  18.403  0.00  0.00    +0.000 S 
ATOM     12  O   UNL     1       4.385   5.278  19.748  0.00  0.00    +0.000 OA
ATOM     13  O   UNL     1       3.278   4.669  17.570  0.00  0.00    +0.000 OA
BRANCH  11  14
ATOM     14  N   UNL     1       5.352   6.130  17.570  0.00  0.00    +0.000 NA
ATOM     15  C   UNL     1       5.453   5.980  16.099  0.00  0.00    +0.000 C 
ATOM     16  C   UNL     1       6.211   4.698  15.739  0.00  0.00    +0.000 C 
ATOM     17  O   UNL     1       7.490   4.621  16.387  0.00  0.00    +0.000 OA
ATOM     18  C   UNL     1       7.401   4.769  17.813  0.00  0.00    +0.000 C 
ATOM     19  C   UNL     1       6.691   6.065  18.200  0.00  0.00    +0.000 C 
ENDBRANCH  11  14
ENDBRANCH   8  11
ENDBRANCH   3   5
BRANCH   2  20
ATOM     20  C   UNL     1      -0.370  12.777  19.261  0.00  0.00    +0.000 C 
BRANCH  20  21
ATOM     21  S   UNL     1      -1.822  12.100  20.122  0.00  0.00    +0.000 S 
BRANCH  21  22
ATOM     22  C   UNL     1      -2.856  11.724  18.736  0.00  0.00    +0.000 A 
ATOM     23  N   UNL     1      -2.298  11.325  17.579  0.00  0.00    +0.000 NA
ATOM     24  C   UNL     1      -3.105  11.175  16.516  0.00  0.00    +0.000 A 
ATOM     25  N   UNL     1      -4.422  11.388  16.455  0.00  0.00    +0.000 NA
ATOM     26  C   UNL     1      -4.937  11.776  17.634  0.00  0.00    +0.000 A 
ATOM     27  S   UNL     1      -6.613  12.143  17.783  0.00  0.00    +0.000 S 
ATOM     28  C   UNL     1      -6.413  12.490  19.405  0.00  0.00    +0.000 A 
ATOM     29  C   UNL     1      -5.130  12.342  19.855  0.00  0.00    +0.000 A 
ATOM     30  C   UNL     1      -4.232  11.949  18.826  0.00  0.00    +0.000 A 
ATOM     31  C   UNL     1      -5.043  12.631  21.311  0.00  0.00    +0.000 C 
ATOM     32  C   UNL     1      -6.544  12.626  21.738  0.00  0.00    +0.000 C 
ATOM     33  C   UNL     1      -7.374  12.912  20.451  0.00  0.00    +0.000 C 
ENDBRANCH  21  22
ENDBRANCH  20  21
ENDBRANCH   2  20
TORSDOF 6
ENDMDL
MODEL 2
REMARK VINA RESULT:      -8.4      1.836      2.421
REMARK  Name = 
REMARK  6 active torsions:
REMARK  status: ('A' for Active; 'I' for Inactive)
REMARK    1  A    between atoms: C_2  and  C_3
REMARK    2  A    between atoms: C_3  and  S_4
REMARK    3  A    between atoms: S_4  and  C_5
REMARK    4  A    between atoms: N_17  and  C_18
REMARK    5  A    between atoms: C_21  and  S_22
REMARK    6  A    between atoms: S_22  and  N_25
REMARK                            x       y       z     vdW  Elec       q    Type
REMARK                         _______ _______ _______ _____ _____    ______ ____
ROOT
ATOM      1  O   UNL     1       1.528  12.180  20.492  0.00  0.00    +0.000 OA
ATOM      2  C   UNL     1       0.522  11.956  19.815  0.00  0.00    +0.000 C 
ATOM      3  N   UNL     1       0.336  10.844  19.017  0.00  0.00    +0.000 N 
ATOM      4  H   UNL     1      -0.523  10.823  18.485  0.00  0.00    +0.000 HD
ENDROOT
BRANCH   3   5
ATOM      5  C   UNL     1       1.120   9.664  18.991  0.00  0.00    +0.000 A 
ATOM      6  C   UNL     1       1.244   8.783  20.071  0.00  0.00    +0.000 A 
ATOM      7  C   UNL     1       1.956   7.582  19.945  0.00  0.00    +0.000 A 
ATOM      8  C   UNL     1       2.530   7.238  18.721  0.00  0.00    +0.000 A 
ATOM      9  C   UNL     1       2.490   8.151  17.662  0.00  0.00    +0.000 A 
ATOM     10  C   UNL     1       1.786   9.354  17.798  0.00  0.00    +0.000 A 
BRANCH   8  11
ATOM     11  S   UNL     1       3.490   5.739  18.565  0.00  0.00    +0.000 S 
ATOM     12  O   UNL     1       4.334   5.919  17.401  0.00  0.00    +0.000 OA
ATOM     13  O   UNL     1       4.069   5.472  19.864  0.00  0.00    +0.000 OA
BRANCH  11  14
ATOM     14  N   UNL     1       2.410   4.491  18.215  0.00  0.00    +0.000 NA
ATOM     15  C   UNL     1       1.473   3.981  19.243  0.00  0.00    +0.000 C 
ATOM     16  C   UNL     1       2.046   2.734  19.924  0.00  0.00    +0.000 C 
ATOM     17  O   UNL     1       2.425   1.723  18.977  0.00  0.00    +0.000 OA
ATOM     18  C   UNL     1       3.331   2.210  17.975  0.00  0.00    +0.000 C 
ATOM     19  C   UNL     1       2.762   3.426  17.247  0.00  0.00    +0.000 C 
ENDBRANCH  11  14
ENDBRANCH   8  11
ENDBRANCH   3   5
BRANCH   2  20
ATOM     20  C   UNL     1      -0.590  13.004  19.770  0.00  0.00    +0.000 C 
BRANCH  20  21
ATOM     21  S   UNL     1      -2.141  12.512  20.582  0.00  0.00    +0.000 S 
BRANCH  21  22
ATOM     22  C   UNL     1      -3.077  11.995  19.171  0.00  0.00    +0.000 A 
ATOM     23  N   UNL     1      -2.437  11.612  18.052  0.00  0.00    +0.000 NA
ATOM     24  C   UNL     1      -3.180  11.353  16.965  0.00  0.00    +0.000 A 
ATOM     25  N   UNL     1      -4.508  11.439  16.845  0.00  0.00    +0.000 NA
ATOM     26  C   UNL     1      -5.106  11.816  17.988  0.00  0.00    +0.000 A 
ATOM     27  S   UNL     1      -6.813  12.029  18.059  0.00  0.00    +0.000 S 
ATOM     28  C   UNL     1      -6.714  12.447  19.673  0.00  0.00    +0.000 A 
ATOM     29  C   UNL     1      -5.443  12.434  20.178  0.00  0.00    +0.000 A 
ATOM     30  C   UNL     1      -4.470  12.093  19.199  0.00  0.00    +0.000 A 
ATOM     31  C   UNL     1      -5.445  12.778  21.624  0.00  0.00    +0.000 C 
ATOM     32  C   UNL     1      -6.955  12.647  21.993  0.00  0.00    +0.000 C 
ATOM     33  C   UNL     1      -7.754  12.812  20.664  0.00  0.00    +0.000 C 
ENDBRANCH  21  22
ENDBRANCH  20  21
ENDBRANCH   2  20
TORSDOF 6
ENDMDL
MODEL 3
REMARK VINA RESULT:      -8.3      1.822      2.877
REMARK  Name = 
REMARK  6 active torsions:
REMARK  status: ('A' for Active; 'I' for Inactive)
REMARK    1  A    between atoms: C_2  and  C_3
REMARK    2  A    between atoms: C_3  and  S_4
REMARK    3  A    between atoms: S_4  and  C_5
REMARK    4  A    between atoms: N_17  and  C_18
REMARK    5  A    between atoms: C_21  and  S_22
REMARK    6  A    between atoms: S_22  and  N_25
REMARK                            x       y       z     vdW  Elec       q    Type
REMARK                         _______ _______ _______ _____ _____    ______ ____
ROOT
ATOM      1  O   UNL     1       1.169   9.688  22.495  0.00  0.00    +0.000 OA
ATOM      2  C   UNL     1       0.477  10.017  21.528  0.00  0.00    +0.000 C 
ATOM      3  N   UNL     1       0.661   9.569  20.235  0.00  0.00    +0.000 N 
ATOM      4  H   UNL     1       0.042   9.965  19.540  0.00  0.00    +0.000 HD
ENDROOT
BRANCH   3   5
ATOM      5  C   UNL     1       1.490   8.505  19.803  0.00  0.00    +0.000 A 
ATOM      6  C   UNL     1       1.675   7.317  20.519  0.00  0.00    +0.000 A 
ATOM      7  C   UNL     1       2.430   6.263  19.987  0.00  0.00    +0.000 A 
ATOM      8  C   UNL     1       2.988   6.380  18.713  0.00  0.00    +0.000 A 
ATOM      9  C   UNL     1       2.887   7.595  18.027  0.00  0.00    +0.000 A 
ATOM     10  C   UNL     1       2.139   8.648  18.569  0.00  0.00    +0.000 A 
BRANCH   8  11
ATOM     11  S   UNL     1       4.003   5.067  18.049  0.00  0.00    +0.000 S 
ATOM     12  O   UNL     1       4.517   4.337  19.190  0.00  0.00    +0.000 OA
ATOM     13  O   UNL     1       3.214   4.397  17.036  0.00  0.00    +0.000 OA
BRANCH  11  14
ATOM     14  N   UNL     1       5.317   5.795  17.282  0.00  0.00    +0.000 NA
ATOM     15  C   UNL     1       5.418   5.827  15.804  0.00  0.00    +0.000 C 
ATOM     16  C   UNL     1       6.292   4.674  15.298  0.00  0.00    +0.000 C 
ATOM     17  O   UNL     1       7.578   4.646  15.935  0.00  0.00    +0.000 OA
ATOM     18  C   UNL     1       7.490   4.618  17.368  0.00  0.00    +0.000 C 
ATOM     19  C   UNL     1       6.663   5.786  17.902  0.00  0.00    +0.000 C 
ENDBRANCH  11  14
ENDBRANCH   8  11
ENDBRANCH   3   5
BRANCH   2  20
ATOM     20  C   UNL     1      -0.624  11.058  21.726  0.00  0.00    +0.000 C 
BRANCH  20  21
ATOM     21  S   UNL     1      -0.794  12.260  20.372  0.00  0.00    +0.000 S 
BRANCH  21  22
ATOM     22  C   UNL     1      -2.535  12.571  20.451  0.00  0.00    +0.000 A 
ATOM     23  N   UNL     1      -3.063  13.121  21.559  0.00  0.00    +0.000 NA
ATOM     24  C   UNL     1      -4.400  13.220  21.631  0.00  0.00    +0.000 A 
ATOM     25  N   UNL     1      -5.297  12.823  20.725  0.00  0.00    +0.000 NA
ATOM     26  C   UNL     1      -4.726  12.290  19.632  0.00  0.00    +0.000 A 
ATOM     27  S   UNL     1      -5.691  11.675  18.345  0.00  0.00    +0.000 S 
ATOM     28  C   UNL     1      -4.319  11.257  17.489  0.00  0.00    +0.000 A 
ATOM     29  C   UNL     1      -3.147  11.559  18.126  0.00  0.00    +0.000 A 
ATOM     30  C   UNL     1      -3.356  12.144  19.405  0.00  0.00    +0.000 A 
ATOM     31  C   UNL     1      -1.977  11.193  17.284  0.00  0.00    +0.000 C 
ATOM     32  C   UNL     1      -2.636  10.953  15.891  0.00  0.00    +0.000 C 
ATOM     33  C   UNL     1      -4.139  10.633  16.157  0.00  0.00    +0.000 C 
ENDBRANCH  21  22
ENDBRANCH  20  21
ENDBRANCH   2  20
TORSDOF 6
ENDMDL
MODEL 4
REMARK VINA RESULT:      -8.3      2.074      2.695
REMARK  Name = 
REMARK  6 active torsions:
REMARK  status: ('A' for Active; 'I' for Inactive)
REMARK    1  A    between atoms: C_2  and  C_3
REMARK    2  A    between atoms: C_3  and  S_4
REMARK    3  A    between atoms: S_4  and  C_5
REMARK    4  A    between atoms: N_17  and  C_18
REMARK    5  A    between atoms: C_21  and  S_22
REMARK    6  A    between atoms: S_22  and  N_25
REMARK                            x       y       z     vdW  Elec       q    Type
REMARK                         _______ _______ _______ _____ _____    ______ ____
ROOT
ATOM      1  O   UNL     1       2.621  11.083  18.035  0.00  0.00    +0.000 OA
ATOM      2  C   UNL     1       1.543  10.675  18.475  0.00  0.00    +0.000 C 
ATOM      3  N   UNL     1       1.226   9.348  18.689  0.00  0.00    +0.000 N 
ATOM      4  H   UNL     1       0.285   9.166  19.010  0.00  0.00    +0.000 HD
ENDROOT
BRANCH   3   5
ATOM      5  C   UNL     1       2.110   8.241  18.674  0.00  0.00    +0.000 A 
ATOM      6  C   UNL     1       2.253   7.339  19.735  0.00  0.00    +0.000 A 
ATOM      7  C   UNL     1       3.071   6.208  19.616  0.00  0.00    +0.000 A 
ATOM      8  C   UNL     1       3.737   5.953  18.416  0.00  0.00    +0.000 A 
ATOM      9  C   UNL     1       3.673   6.892  17.381  0.00  0.00    +0.000 A 
ATOM     10  C   UNL     1       2.862   8.026  17.511  0.00  0.00    +0.000 A 
BRANCH   8  11
ATOM     11  S   UNL     1       4.830   4.546  18.272  0.00  0.00    +0.000 S 
ATOM     12  O   UNL     1       5.453   4.651  16.969  0.00  0.00    +0.000 OA
ATOM     13  O   UNL     1       5.633   4.513  19.476  0.00  0.00    +0.000 OA
BRANCH  11  14
ATOM     14  N   UNL     1       3.863   3.164  18.258  0.00  0.00    +0.000 NA
ATOM     15  C   UNL     1       2.621   3.109  17.451  0.00  0.00    +0.000 C 
ATOM     16  C   UNL     1       1.401   3.449  18.315  0.00  0.00    +0.000 C 
ATOM     17  O   UNL     1       1.326   2.633  19.495  0.00  0.00    +0.000 OA
ATOM     18  C   UNL     1       2.526   2.678  20.281  0.00  0.00    +0.000 C 
ATOM     19  C   UNL     1       3.753   2.297  19.455  0.00  0.00    +0.000 C 
ENDBRANCH  11  14
ENDBRANCH   8  11
ENDBRANCH   3   5
BRANCH   2  20
ATOM     20  C   UNL     1       0.423  11.681  18.741  0.00  0.00    +0.000 C 
BRANCH  20  21
ATOM     21  S   UNL     1      -1.007  11.014  19.646  0.00  0.00    +0.000 S 
BRANCH  21  22
ATOM     22  C   UNL     1      -2.144  10.792  18.308  0.00  0.00    +0.000 A 
ATOM     23  N   UNL     1      -1.755  10.121  17.209  0.00  0.00    +0.000 NA
ATOM     24  C   UNL     1      -2.599  10.087  16.166  0.00  0.00    +0.000 A 
ATOM     25  N   UNL     1      -3.803  10.658  16.073  0.00  0.00    +0.000 NA
ATOM     26  C   UNL     1      -4.155  11.308  17.195  0.00  0.00    +0.000 A 
ATOM     27  S   UNL     1      -5.653  12.152  17.291  0.00  0.00    +0.000 S 
ATOM     28  C   UNL     1      -5.317  12.610  18.862  0.00  0.00    +0.000 A 
ATOM     29  C   UNL     1      -4.117  12.156  19.334  0.00  0.00    +0.000 A 
ATOM     30  C   UNL     1      -3.396  11.408  18.362  0.00  0.00    +0.000 A 
ATOM     31  C   UNL     1      -3.911  12.573  20.746  0.00  0.00    +0.000 C 
ATOM     32  C   UNL     1      -5.339  13.044  21.162  0.00  0.00    +0.000 C 
ATOM     33  C   UNL     1      -6.090  13.406  19.845  0.00  0.00    +0.000 C 
ENDBRANCH  21  22
ENDBRANCH  20  21
ENDBRANCH   2  20
TORSDOF 6
ENDMDL
MODEL 5
REMARK VINA RESULT:      -8.3      2.046      2.462
REMARK  Name = 
REMARK  6 active torsions:
REMARK  status: ('A' for Active; 'I' for Inactive)
REMARK    1  A    between atoms: C_2  and  C_3
REMARK    2  A    between atoms: C_3  and  S_4
REMARK    3  A    between atoms: S_4  and  C_5
REMARK    4  A    between atoms: N_17  and  C_18
REMARK    5  A    between atoms: C_21  and  S_22
REMARK    6  A    between atoms: S_22  and  N_25
REMARK                            x       y       z     vdW  Elec       q    Type
REMARK                         _______ _______ _______ _____ _____    ______ ____
ROOT
ATOM      1  O   UNL     1       1.569  11.754  21.037  0.00  0.00    +0.000 OA
ATOM      2  C   UNL     1       0.428  11.349  20.804  0.00  0.00    +0.000 C 
ATOM      3  N   UNL     1       0.124  10.158  20.175  0.00  0.00    +0.000 N 
ATOM      4  H   UNL     1      -0.859   9.985  20.012  0.00  0.00    +0.000 HD
ENDROOT
BRANCH   3   5
ATOM      5  C   UNL     1       1.006   9.086  19.892  0.00  0.00    +0.000 A 
ATOM      6  C   UNL     1       1.317   8.068  20.799  0.00  0.00    +0.000 A 
ATOM      7  C   UNL     1       2.119   6.983  20.420  0.00  0.00    +0.000 A 
ATOM      8  C   UNL     1       2.597   6.894  19.112  0.00  0.00    +0.000 A 
ATOM      9  C   UNL     1       2.367   7.949  18.223  0.00  0.00    +0.000 A 
ATOM     10  C   UNL     1       1.574   9.035  18.612  0.00  0.00    +0.000 A 
BRANCH   8  11
ATOM     11  S   UNL     1       3.669   5.546  18.633  0.00  0.00    +0.000 S 
ATOM     12  O   UNL     1       3.801   5.628  17.192  0.00  0.00    +0.000 OA
ATOM     13  O   UNL     1       4.836   5.613  19.487  0.00  0.00    +0.000 OA
BRANCH  11  14
ATOM     14  N   UNL     1       2.853   4.113  18.984  0.00  0.00    +0.000 NA
ATOM     15  C   UNL     1       3.213   3.299  20.169  0.00  0.00    +0.000 C 
ATOM     16  C   UNL     1       4.172   2.170  19.776  0.00  0.00    +0.000 C 
ATOM     17  O   UNL     1       3.661   1.372  18.698  0.00  0.00    +0.000 OA
ATOM     18  C   UNL     1       3.307   2.153  17.546  0.00  0.00    +0.000 C 
ATOM     19  C   UNL     1       2.313   3.258  17.901  0.00  0.00    +0.000 C 
ENDBRANCH  11  14
ENDBRANCH   8  11
ENDBRANCH   3   5
BRANCH   2  20
ATOM     20  C   UNL     1      -0.761  12.245  21.152  0.00  0.00    +0.000 C 
BRANCH  20  21
ATOM     21  S   UNL     1      -1.328  13.324  19.802  0.00  0.00    +0.000 S 
BRANCH  21  22
ATOM     22  C   UNL     1      -2.217  12.149  18.820  0.00  0.00    +0.000 A 
ATOM     23  N   UNL     1      -1.586  11.501  17.825  0.00  0.00    +0.000 NA
ATOM     24  C   UNL     1      -2.325  10.717  17.023  0.00  0.00    +0.000 A 
ATOM     25  N   UNL     1      -3.642  10.502  17.081  0.00  0.00    +0.000 NA
ATOM     26  C   UNL     1      -4.229  11.160  18.095  0.00  0.00    +0.000 A 
ATOM     27  S   UNL     1      -5.930  11.060  18.342  0.00  0.00    +0.000 S 
ATOM     28  C   UNL     1      -5.816  12.065  19.672  0.00  0.00    +0.000 A 
ATOM     29  C   UNL     1      -4.544  12.482  19.951  0.00  0.00    +0.000 A 
ATOM     30  C   UNL     1      -3.590  11.987  19.021  0.00  0.00    +0.000 A 
ATOM     31  C   UNL     1      -4.523  13.337  21.167  0.00  0.00    +0.000 C 
ATOM     32  C   UNL     1      -5.933  13.073  21.781  0.00  0.00    +0.000 C 
ATOM     33  C   UNL     1      -6.839  12.573  20.615  0.00  0.00    +0.000 C 
ENDBRANCH  21  22
ENDBRANCH  20  21
ENDBRANCH   2  20
TORSDOF 6
ENDMDL
MODEL 6
REMARK VINA RESULT:      -8.2      1.576      1.950
REMARK  Name = 
REMARK  6 active torsions:
REMARK  status: ('A' for Active; 'I' for Inactive)
REMARK    1  A    between atoms: C_2  and  C_3
REMARK    2  A    between atoms: C_3  and  S_4
REMARK    3  A    between atoms: S_4  and  C_5
REMARK    4  A    between atoms: N_17  and  C_18
REMARK    5  A    between atoms: C_21  and  S_22
REMARK    6  A    between atoms: S_22  and  N_25
REMARK                            x       y       z     vdW  Elec       q    Type
REMARK                         _______ _______ _______ _____ _____    ______ ____
ROOT
ATOM      1  O   UNL     1      -1.434   9.872  18.073  0.00  0.00    +0.000 OA
ATOM      2  C   UNL     1      -0.731  10.764  18.555  0.00  0.00    +0.000 C 
ATOM      3  N   UNL     1       0.531  10.577  19.084  0.00  0.00    +0.000 N 
ATOM      4  H   UNL     1       0.966  11.396  19.486  0.00  0.00    +0.000 HD
ENDROOT
BRANCH   3   5
ATOM      5  C   UNL     1       1.345   9.423  18.976  0.00  0.00    +0.000 A 
ATOM      6  C   UNL     1       1.490   8.469  19.990  0.00  0.00    +0.000 A 
ATOM      7  C   UNL     1       2.233   7.300  19.781  0.00  0.00    +0.000 A 
ATOM      8  C   UNL     1       2.819   7.060  18.538  0.00  0.00    +0.000 A 
ATOM      9  C   UNL     1       2.757   8.046  17.547  0.00  0.00    +0.000 A 
ATOM     10  C   UNL     1       2.022   9.217  17.766  0.00  0.00    +0.000 A 
BRANCH   8  11
ATOM     11  S   UNL     1       3.818   5.601  18.277  0.00  0.00    +0.000 S 
ATOM     12  O   UNL     1       4.536   5.377  19.516  0.00  0.00    +0.000 OA
ATOM     13  O   UNL     1       2.943   4.583  17.736  0.00  0.00    +0.000 OA
BRANCH  11  14
ATOM     14  N   UNL     1       4.958   5.984  17.095  0.00  0.00    +0.000 NA
ATOM     15  C   UNL     1       5.211   5.072  15.955  0.00  0.00    +0.000 C 
ATOM     16  C   UNL     1       6.420   4.175  16.240  0.00  0.00    +0.000 C 
ATOM     17  O   UNL     1       7.585   4.930  16.607  0.00  0.00    +0.000 OA
ATOM     18  C   UNL     1       7.347   5.819  17.710  0.00  0.00    +0.000 C 
ATOM     19  C   UNL     1       6.175   6.758  17.432  0.00  0.00    +0.000 C 
ENDBRANCH  11  14
ENDBRANCH   8  11
ENDBRANCH   3   5
BRANCH   2  20
ATOM     20  C   UNL     1      -1.299  12.179  18.663  0.00  0.00    +0.000 C 
BRANCH  20  21
ATOM     21  S   UNL     1      -2.160  12.542  20.223  0.00  0.00    +0.000 S 
BRANCH  21  22
ATOM     22  C   UNL     1      -3.838  12.296  19.714  0.00  0.00    +0.000 A 
ATOM     23  N   UNL     1      -4.112  12.060  18.418  0.00  0.00    +0.000 NA
ATOM     24  C   UNL     1      -5.402  12.008  18.052  0.00  0.00    +0.000 A 
ATOM     25  N   UNL     1      -6.477  12.176  18.827  0.00  0.00    +0.000 NA
ATOM     26  C   UNL     1      -6.157  12.399  20.113  0.00  0.00    +0.000 A 
ATOM     27  S   UNL     1      -7.383  12.680  21.289  0.00  0.00    +0.000 S 
ATOM     28  C   UNL     1      -6.227  12.837  22.485  0.00  0.00    +0.000 A 
ATOM     29  C   UNL     1      -4.941  12.686  22.045  0.00  0.00    +0.000 A 
ATOM     30  C   UNL     1      -4.868  12.455  20.644  0.00  0.00    +0.000 A 
ATOM     31  C   UNL     1      -3.979  12.801  23.172  0.00  0.00    +0.000 C 
ATOM     32  C   UNL     1      -4.914  12.687  24.416  0.00  0.00    +0.000 C 
ATOM     33  C   UNL     1      -6.341  13.093  23.940  0.00  0.00    +0.000 C 
ENDBRANCH  21  22
ENDBRANCH  20  21
ENDBRANCH   2  20
TORSDOF 6
ENDMDL
MODEL 7
REMARK VINA RESULT:      -8.2      2.640      3.752
REMARK  Name = 
REMARK  6 active torsions:
REMARK  status: ('A' for Active; 'I' for Inactive)
REMARK    1  A    between atoms: C_2  and  C_3
REMARK    2  A    between atoms: C_3  and  S_4
REMARK    3  A    between atoms: S_4  and  C_5
REMARK    4  A    between atoms: N_17  and  C_18
REMARK    5  A    between atoms: C_21  and  S_22
REMARK    6  A    between atoms: S_22  and  N_25
REMARK                            x       y       z     vdW  Elec       q    Type
REMARK                         _______ _______ _______ _____ _____    ______ ____
ROOT
ATOM      1  O   UNL     1      -0.805   8.157  21.605  0.00  0.00    +0.000 OA
ATOM      2  C   UNL     1       0.205   8.864  21.575  0.00  0.00    +0.000 C 
ATOM      3  N   UNL     1       1.452   8.445  21.154  0.00  0.00    +0.000 N 
ATOM      4  H   UNL     1       2.195   9.127  21.231  0.00  0.00    +0.000 HD
ENDROOT
BRANCH   3   5
ATOM      5  C   UNL     1       1.771   7.242  20.477  0.00  0.00    +0.000 A 
ATOM      6  C   UNL     1       1.644   5.968  21.043  0.00  0.00    +0.000 A 
ATOM      7  C   UNL     1       1.882   4.814  20.284  0.00  0.00    +0.000 A 
ATOM      8  C   UNL     1       2.224   4.926  18.936  0.00  0.00    +0.000 A 
ATOM      9  C   UNL     1       2.441   6.193  18.384  0.00  0.00    +0.000 A 
ATOM     10  C   UNL     1       2.212   7.341  19.151  0.00  0.00    +0.000 A 
BRANCH   8  11
ATOM     11  S   UNL     1       2.587   3.464  17.974  0.00  0.00    +0.000 S 
ATOM     12  O   UNL     1       2.187   2.334  18.788  0.00  0.00    +0.000 OA
ATOM     13  O   UNL     1       2.012   3.670  16.661  0.00  0.00    +0.000 OA
BRANCH  11  14
ATOM     14  N   UNL     1       4.263   3.388  17.797  0.00  0.00    +0.000 NA
ATOM     15  C   UNL     1       5.163   3.591  18.957  0.00  0.00    +0.000 C 
ATOM     16  C   UNL     1       5.651   5.042  19.014  0.00  0.00    +0.000 C 
ATOM     17  O   UNL     1       6.246   5.465  17.777  0.00  0.00    +0.000 OA
ATOM     18  C   UNL     1       5.381   5.270  16.648  0.00  0.00    +0.000 C 
ATOM     19  C   UNL     1       4.918   3.818  16.540  0.00  0.00    +0.000 C 
ENDBRANCH  11  14
ENDBRANCH   8  11
ENDBRANCH   3   5
BRANCH   2  20
ATOM     20  C   UNL     1       0.126  10.295  22.109  0.00  0.00    +0.000 C 
BRANCH  20  21
ATOM     21  S   UNL     1       0.508  11.590  20.890  0.00  0.00    +0.000 S 
BRANCH  21  22
ATOM     22  C   UNL     1      -1.042  12.443  20.850  0.00  0.00    +0.000 A 
ATOM     23  N   UNL     1      -1.308  13.384  21.775  0.00  0.00    +0.000 NA
ATOM     24  C   UNL     1      -2.540  13.915  21.789  0.00  0.00    +0.000 A 
ATOM     25  N   UNL     1      -3.567  13.613  20.990  0.00  0.00    +0.000 NA
ATOM     26  C   UNL     1      -3.255  12.678  20.078  0.00  0.00    +0.000 A 
ATOM     27  S   UNL     1      -4.437  12.105  18.964  0.00  0.00    +0.000 S 
ATOM     28  C   UNL     1      -3.315  11.080  18.270  0.00  0.00    +0.000 A 
ATOM     29  C   UNL     1      -2.073  11.143  18.837  0.00  0.00    +0.000 A 
ATOM     30  C   UNL     1      -2.015  12.056  19.925  0.00  0.00    +0.000 A 
ATOM     31  C   UNL     1      -1.126  10.232  18.141  0.00  0.00    +0.000 C 
ATOM     32  C   UNL     1      -1.906   9.881  16.836  0.00  0.00    +0.000 C 
ATOM     33  C   UNL     1      -3.415  10.127  17.140  0.00  0.00    +0.000 C 
ENDBRANCH  21  22
ENDBRANCH  20  21
ENDBRANCH   2  20
TORSDOF 6
ENDMDL
MODEL 8
REMARK VINA RESULT:      -8.2      2.261      3.069
REMARK  Name = 
REMARK  6 active torsions:
REMARK  status: ('A' for Active; 'I' for Inactive)
REMARK    1  A    between atoms: C_2  and  C_3
REMARK    2  A    between atoms: C_3  and  S_4
REMARK    3  A    between atoms: S_4  and  C_5
REMARK    4  A    between atoms: N_17  and  C_18
REMARK    5  A    between atoms: C_21  and  S_22
REMARK    6  A    between atoms: S_22  and  N_25
REMARK                            x       y       z     vdW  Elec       q    Type
REMARK                         _______ _______ _______ _____ _____    ______ ____
ROOT
ATOM      1  O   UNL     1      -1.658   9.988  18.193  0.00  0.00    +0.000 OA
ATOM      2  C   UNL     1      -0.864  10.853  18.569  0.00  0.00    +0.000 C 
ATOM      3  N   UNL     1       0.407  10.606  19.048  0.00  0.00    +0.000 N 
ATOM      4  H   UNL     1       0.924  11.416  19.363  0.00  0.00    +0.000 HD
ENDROOT
BRANCH   3   5
ATOM      5  C   UNL     1       1.125   9.386  18.991  0.00  0.00    +0.000 A 
ATOM      6  C   UNL     1       1.815   8.936  17.860  0.00  0.00    +0.000 A 
ATOM      7  C   UNL     1       2.588   7.768  17.903  0.00  0.00    +0.000 A 
ATOM      8  C   UNL     1       2.699   7.050  19.094  0.00  0.00    +0.000 A 
ATOM      9  C   UNL     1       1.943   7.439  20.205  0.00  0.00    +0.000 A 
ATOM     10  C   UNL     1       1.164   8.601  20.152  0.00  0.00    +0.000 A 
BRANCH   8  11
ATOM     11  S   UNL     1       3.633   5.527  19.145  0.00  0.00    +0.000 S 
ATOM     12  O   UNL     1       5.002   5.882  18.827  0.00  0.00    +0.000 OA
ATOM     13  O   UNL     1       3.310   4.877  20.397  0.00  0.00    +0.000 OA
BRANCH  11  14
ATOM     14  N   UNL     1       3.062   4.551  17.894  0.00  0.00    +0.000 NA
ATOM     15  C   UNL     1       1.624   4.215  17.783  0.00  0.00    +0.000 C 
ATOM     16  C   UNL     1       1.338   2.850  18.419  0.00  0.00    +0.000 C 
ATOM     17  O   UNL     1       2.185   1.817  17.893  0.00  0.00    +0.000 OA
ATOM     18  C   UNL     1       3.581   2.136  17.994  0.00  0.00    +0.000 C 
ATOM     19  C   UNL     1       3.902   3.471  17.325  0.00  0.00    +0.000 C 
ENDBRANCH  11  14
ENDBRANCH   8  11
ENDBRANCH   3   5
BRANCH   2  20
ATOM     20  C   UNL     1      -1.316  12.314  18.594  0.00  0.00    +0.000 C 
BRANCH  20  21
ATOM     21  S   UNL     1      -2.137  12.835  20.131  0.00  0.00    +0.000 S 
BRANCH  21  22
ATOM     22  C   UNL     1      -3.817  12.449  19.730  0.00  0.00    +0.000 A 
ATOM     23  N   UNL     1      -4.159  12.214  18.450  0.00  0.00    +0.000 NA
ATOM     24  C   UNL     1      -5.462  12.053  18.171  0.00  0.00    +0.000 A 
ATOM     25  N   UNL     1      -6.490  12.108  19.021  0.00  0.00    +0.000 NA
ATOM     26  C   UNL     1      -6.103  12.335  20.287  0.00  0.00    +0.000 A 
ATOM     27  S   UNL     1      -7.264  12.482  21.550  0.00  0.00    +0.000 S 
ATOM     28  C   UNL     1      -6.046  12.719  22.669  0.00  0.00    +0.000 A 
ATOM     29  C   UNL     1      -4.786  12.693  22.139  0.00  0.00    +0.000 A 
ATOM     30  C   UNL     1      -4.790  12.496  20.731  0.00  0.00    +0.000 A 
ATOM     31  C   UNL     1      -3.761  12.873  23.202  0.00  0.00    +0.000 C 
ATOM     32  C   UNL     1      -4.593  12.651  24.503  0.00  0.00    +0.000 C 
ATOM     33  C   UNL     1      -6.081  12.937  24.135  0.00  0.00    +0.000 C 
ENDBRANCH  21  22
ENDBRANCH  20  21
ENDBRANCH   2  20
TORSDOF 6
ENDMDL
MODEL 9
REMARK VINA RESULT:      -8.1      2.328      2.945
REMARK  Name = 
REMARK  6 active torsions:
REMARK  status: ('A' for Active; 'I' for Inactive)
REMARK    1  A    between atoms: C_2  and  C_3
REMARK    2  A    between atoms: C_3  and  S_4
REMARK    3  A    between atoms: S_4  and  C_5
REMARK    4  A    between atoms: N_17  and  C_18
REMARK    5  A    between atoms: C_21  and  S_22
REMARK    6  A    between atoms: S_22  and  N_25
REMARK                            x       y       z     vdW  Elec       q    Type
REMARK                         _______ _______ _______ _____ _____    ______ ____
ROOT
ATOM      1  O   UNL     1       0.834   8.934  21.743  0.00  0.00    +0.000 OA
ATOM      2  C   UNL     1       0.542   9.397  20.638  0.00  0.00    +0.000 C 
ATOM      3  N   UNL     1       1.156   9.054  19.449  0.00  0.00    +0.000 N 
ATOM      4  H   UNL     1       0.838   9.553  18.629  0.00  0.00    +0.000 HD
ENDROOT
BRANCH   3   5
ATOM      5  C   UNL     1       2.046   7.976  19.222  0.00  0.00    +0.000 A 
ATOM      6  C   UNL     1       2.232   6.913  20.112  0.00  0.00    +0.000 A 
ATOM      7  C   UNL     1       3.054   5.828  19.780  0.00  0.00    +0.000 A 
ATOM      8  C   UNL     1       3.680   5.785  18.534  0.00  0.00    +0.000 A 
ATOM      9  C   UNL     1       3.575   6.882  17.673  0.00  0.00    +0.000 A 
ATOM     10  C   UNL     1       2.760   7.968  18.016  0.00  0.00    +0.000 A 
BRANCH   8  11
ATOM     11  S   UNL     1       4.778   4.435  18.122  0.00  0.00    +0.000 S 
ATOM     12  O   UNL     1       5.225   4.678  16.766  0.00  0.00    +0.000 OA
ATOM     13  O   UNL     1       5.732   4.323  19.206  0.00  0.00    +0.000 OA
BRANCH  11  14
ATOM     14  N   UNL     1       3.850   3.027  18.102  0.00  0.00    +0.000 NA
ATOM     15  C   UNL     1       2.574   2.964  17.353  0.00  0.00    +0.000 C 
ATOM     16  C   UNL     1       1.388   3.237  18.284  0.00  0.00    +0.000 C 
ATOM     17  O   UNL     1       1.391   2.378  19.435  0.00  0.00    +0.000 OA
ATOM     18  C   UNL     1       2.626   2.431  20.166  0.00  0.00    +0.000 C 
ATOM     19  C   UNL     1       3.822   2.115  19.270  0.00  0.00    +0.000 C 
ENDBRANCH  11  14
ENDBRANCH   8  11
ENDBRANCH   3   5
BRANCH   2  20
ATOM     20  C   UNL     1      -0.521  10.492  20.550  0.00  0.00    +0.000 C 
BRANCH  20  21
ATOM     21  S   UNL     1      -0.375  11.587  19.106  0.00  0.00    +0.000 S 
BRANCH  21  22
ATOM     22  C   UNL     1      -1.753  11.023  18.149  0.00  0.00    +0.000 A 
ATOM     23  N   UNL     1      -1.542  10.247  17.071  0.00  0.00    +0.000 NA
ATOM     24  C   UNL     1      -2.599   9.948  16.300  0.00  0.00    +0.000 A 
ATOM     25  N   UNL     1      -3.865  10.341  16.463  0.00  0.00    +0.000 NA
ATOM     26  C   UNL     1      -4.032  11.105  17.556  0.00  0.00    +0.000 A 
ATOM     27  S   UNL     1      -5.577  11.758  17.946  0.00  0.00    +0.000 S 
ATOM     28  C   UNL     1      -4.946  12.488  19.309  0.00  0.00    +0.000 A 
ATOM     29  C   UNL     1      -3.609  12.267  19.496  0.00  0.00    +0.000 A 
ATOM     30  C   UNL     1      -3.037  11.477  18.462  0.00  0.00    +0.000 A 
ATOM     31  C   UNL     1      -3.134  12.916  20.747  0.00  0.00    +0.000 C 
ATOM     32  C   UNL     1      -4.474  13.261  21.468  0.00  0.00    +0.000 C 
ATOM     33  C   UNL     1      -5.572  13.320  20.364  0.00  0.00    +0.000 C 
ENDBRANCH  21  22
ENDBRANCH  20  21
ENDBRANCH   2  20
TORSDOF 6
ENDMDL
