MODEL 1
REMARK VINA RESULT:      -6.6      0.000      0.000
REMARK  Name = 
REMARK  4 active torsions:
REMARK  status: ('A' for Active; 'I' for Inactive)
REMARK    1  A    between atoms: C_1  and  O_2
REMARK    2  A    between atoms: O_2  and  C_3
REMARK    3  A    between atoms: C_11  and  C_13
REMARK    4  A    between atoms: C_18  and  C_19
REMARK                            x       y       z     vdW  Elec       q    Type
REMARK                         _______ _______ _______ _____ _____    ______ ____
ROOT
ATOM      1  C   UNL     1       7.181   7.126  17.648  0.00  0.00    +0.000 A 
ATOM      2  C   UNL     1       7.564   6.225  18.646  0.00  0.00    +0.000 A 
ATOM      3  C   UNL     1       6.633   5.349  19.209  0.00  0.00    +0.000 A 
ATOM      4  C   UNL     1       5.307   5.383  18.784  0.00  0.00    +0.000 A 
ATOM      5  C   UNL     1       4.911   6.248  17.757  0.00  0.00    +0.000 A 
ATOM      6  C   UNL     1       5.857   7.132  17.206  0.00  0.00    +0.000 A 
ATOM      7  C   UNL     1       3.503   6.223  17.230  0.00  0.00    +0.000 C 
ATOM      8  N   UNL     1       2.533   6.615  18.247  0.00  0.00    +0.000 N 
ATOM      9  C   UNL     1       2.197   7.962  18.327  0.00  0.00    +0.000 C 
ATOM     10  O   UNL     1       2.658   8.756  17.495  0.00  0.00    +0.000 OA
ATOM     11  C   UNL     1       2.205   5.580  19.229  0.00  0.00    +0.000 C 
ATOM     12  C   UNL     1       3.405   5.191  20.104  0.00  0.00    +0.000 C 
ATOM     13  O   UNL     1       4.429   4.504  19.359  0.00  0.00    +0.000 OA
ENDROOT
BRANCH   9  14
ATOM     14  C   UNL     1       1.147   8.442  19.366  0.00  0.00    +0.000 C 
ATOM     15  O   UNL     1       1.581   8.617  20.720  0.00  0.00    +0.000 OA
ATOM     16  C   UNL     1       0.449   8.924  21.561  0.00  0.00    +0.000 C 
ATOM     17  C   UNL     1      -0.314  10.163  21.085  0.00  0.00    +0.000 C 
ATOM     18  O   UNL     1      -0.663  10.059  19.700  0.00  0.00    +0.000 OA
ATOM     19  C   UNL     1       0.487   9.759  18.876  0.00  0.00    +0.000 C 
ATOM     20  C   UNL     1       1.433  10.967  18.843  0.00  0.00    +0.000 C 
ENDBRANCH   9  14
BRANCH   1  22
ATOM     21  C   UNL     1       8.333   9.198  17.821  0.00  0.00    +0.000 C 
ATOM     22  O   UNL     1       8.185   7.933  17.184  0.00  0.00    +0.000 OA
ENDBRANCH   1  22
TORSDOF 2
ENDMDL
MODEL 2
REMARK VINA RESULT:      -6.5      1.506      1.803
REMARK  Name = 
REMARK  4 active torsions:
REMARK  status: ('A' for Active; 'I' for Inactive)
REMARK    1  A    between atoms: C_1  and  O_2
REMARK    2  A    between atoms: O_2  and  C_3
REMARK    3  A    between atoms: C_11  and  C_13
REMARK    4  A    between atoms: C_18  and  C_19
REMARK                            x       y       z     vdW  Elec       q    Type
REMARK                         _______ _______ _______ _____ _____    ______ ____
ROOT
ATOM      1  C   UNL     1       6.026   6.124  17.503  0.00  0.00    +0.000 A 
ATOM      2  C   UNL     1       6.472   4.998  18.204  0.00  0.00    +0.000 A 
ATOM      3  C   UNL     1       5.576   4.214  18.933  0.00  0.00    +0.000 A 
ATOM      4  C   UNL     1       4.228   4.563  18.978  0.00  0.00    +0.000 A 
ATOM      5  C   UNL     1       3.753   5.661  18.251  0.00  0.00    +0.000 A 
ATOM      6  C   UNL     1       4.668   6.448  17.528  0.00  0.00    +0.000 A 
ATOM      7  C   UNL     1       2.286   5.986  18.219  0.00  0.00    +0.000 C 
ATOM      8  N   UNL     1       1.780   6.349  19.539  0.00  0.00    +0.000 N 
ATOM      9  C   UNL     1       1.800   7.695  19.886  0.00  0.00    +0.000 C 
ATOM     10  O   UNL     1       2.161   8.536  19.049  0.00  0.00    +0.000 OA
ATOM     11  C   UNL     1       1.531   5.225  20.443  0.00  0.00    +0.000 C 
ATOM     12  C   UNL     1       2.815   4.471  20.819  0.00  0.00    +0.000 C 
ATOM     13  O   UNL     1       3.384   3.763  19.702  0.00  0.00    +0.000 OA
ENDROOT
BRANCH   9  14
ATOM     14  C   UNL     1       1.245   8.153  21.262  0.00  0.00    +0.000 C 
ATOM     15  O   UNL     1       1.954   9.189  21.954  0.00  0.00    +0.000 OA
ATOM     16  C   UNL     1       1.383   9.380  23.265  0.00  0.00    +0.000 C 
ATOM     17  C   UNL     1      -0.112   9.707  23.211  0.00  0.00    +0.000 C 
ATOM     18  O   UNL     1      -0.827   8.743  22.428  0.00  0.00    +0.000 OA
ATOM     19  C   UNL     1      -0.242   8.573  21.116  0.00  0.00    +0.000 C 
ATOM     20  C   UNL     1      -0.463   9.841  20.280  0.00  0.00    +0.000 C 
ENDBRANCH   9  14
BRANCH   1  22
ATOM     21  C   UNL     1       7.659   7.850  17.553  0.00  0.00    +0.000 C 
ATOM     22  O   UNL     1       7.002   6.810  16.834  0.00  0.00    +0.000 OA
ENDBRANCH   1  22
TORSDOF 2
ENDMDL
MODEL 3
REMARK VINA RESULT:      -6.5      3.228      4.536
REMARK  Name = 
REMARK  4 active torsions:
REMARK  status: ('A' for Active; 'I' for Inactive)
REMARK    1  A    between atoms: C_1  and  O_2
REMARK    2  A    between atoms: O_2  and  C_3
REMARK    3  A    between atoms: C_11  and  C_13
REMARK    4  A    between atoms: C_18  and  C_19
REMARK                            x       y       z     vdW  Elec       q    Type
REMARK                         _______ _______ _______ _____ _____    ______ ____
ROOT
ATOM      1  C   UNL     1       5.793   3.984  13.722  0.00  0.00    +0.000 A 
ATOM      2  C   UNL     1       6.994   4.701  13.705  0.00  0.00    +0.000 A 
ATOM      3  C   UNL     1       7.620   5.068  14.898  0.00  0.00    +0.000 A 
ATOM      4  C   UNL     1       7.036   4.732  16.117  0.00  0.00    +0.000 A 
ATOM      5  C   UNL     1       5.857   3.980  16.158  0.00  0.00    +0.000 A 
ATOM      6  C   UNL     1       5.232   3.625  14.949  0.00  0.00    +0.000 A 
ATOM      7  C   UNL     1       5.273   3.534  17.470  0.00  0.00    +0.000 C 
ATOM      8  N   UNL     1       4.852   4.665  18.291  0.00  0.00    +0.000 N 
ATOM      9  C   UNL     1       3.539   5.101  18.158  0.00  0.00    +0.000 C 
ATOM     10  O   UNL     1       2.760   4.476  17.423  0.00  0.00    +0.000 OA
ATOM     11  C   UNL     1       5.932   5.367  18.988  0.00  0.00    +0.000 C 
ATOM     12  C   UNL     1       6.911   6.054  18.024  0.00  0.00    +0.000 C 
ATOM     13  O   UNL     1       7.686   5.109  17.263  0.00  0.00    +0.000 OA
ENDROOT
BRANCH   9  14
ATOM     14  C   UNL     1       3.017   6.278  19.026  0.00  0.00    +0.000 C 
ATOM     15  O   UNL     1       2.095   7.194  18.421  0.00  0.00    +0.000 OA
ATOM     16  C   UNL     1       1.835   8.291  19.321  0.00  0.00    +0.000 C 
ATOM     17  C   UNL     1       1.302   7.822  20.678  0.00  0.00    +0.000 C 
ATOM     18  O   UNL     1       2.150   6.821  21.252  0.00  0.00    +0.000 OA
ATOM     19  C   UNL     1       2.392   5.728  20.336  0.00  0.00    +0.000 C 
ATOM     20  C   UNL     1       1.100   4.925  20.133  0.00  0.00    +0.000 C 
ENDBRANCH   9  14
BRANCH   1  22
ATOM     21  C   UNL     1       5.850   2.578  11.807  0.00  0.00    +0.000 C 
ATOM     22  O   UNL     1       5.280   3.691  12.488  0.00  0.00    +0.000 OA
ENDBRANCH   1  22
TORSDOF 2
ENDMDL
MODEL 4
REMARK VINA RESULT:      -6.0      3.372      4.909
REMARK  Name = 
REMARK  4 active torsions:
REMARK  status: ('A' for Active; 'I' for Inactive)
REMARK    1  A    between atoms: C_1  and  O_2
REMARK    2  A    between atoms: O_2  and  C_3
REMARK    3  A    between atoms: C_11  and  C_13
REMARK    4  A    between atoms: C_18  and  C_19
REMARK                            x       y       z     vdW  Elec       q    Type
REMARK                         _______ _______ _______ _____ _____    ______ ____
ROOT
ATOM      1  C   UNL     1       5.814   3.575  13.173  0.00  0.00    +0.000 A 
ATOM      2  C   UNL     1       6.849   4.451  12.827  0.00  0.00    +0.000 A 
ATOM      3  C   UNL     1       7.515   5.187  13.809  0.00  0.00    +0.000 A 
ATOM      4  C   UNL     1       7.136   5.062  15.144  0.00  0.00    +0.000 A 
ATOM      5  C   UNL     1       6.131   4.162  15.517  0.00  0.00    +0.000 A 
ATOM      6  C   UNL     1       5.462   3.433  14.517  0.00  0.00    +0.000 A 
ATOM      7  C   UNL     1       5.783   3.953  16.964  0.00  0.00    +0.000 C 
ATOM      8  N   UNL     1       5.244   5.164  17.575  0.00  0.00    +0.000 N 
ATOM      9  C   UNL     1       3.865   5.339  17.543  0.00  0.00    +0.000 C 
ATOM     10  O   UNL     1       3.146   4.440  17.082  0.00  0.00    +0.000 OA
ATOM     11  C   UNL     1       6.237   6.176  17.939  0.00  0.00    +0.000 C 
ATOM     12  C   UNL     1       6.962   6.762  16.718  0.00  0.00    +0.000 C 
ATOM     13  O   UNL     1       7.819   5.800  16.074  0.00  0.00    +0.000 OA
ENDROOT
BRANCH   9  14
ATOM     14  C   UNL     1       3.223   6.590  18.203  0.00  0.00    +0.000 C 
ATOM     15  O   UNL     1       2.120   7.207  17.527  0.00  0.00    +0.000 OA
ATOM     16  C   UNL     1       1.750   8.425  18.207  0.00  0.00    +0.000 C 
ATOM     17  C   UNL     1       1.405   8.192  19.680  0.00  0.00    +0.000 C 
ATOM     18  O   UNL     1       2.448   7.475  20.352  0.00  0.00    +0.000 OA
ATOM     19  C   UNL     1       2.797   6.255  19.658  0.00  0.00    +0.000 C 
ATOM     20  C   UNL     1       1.643   5.249  19.765  0.00  0.00    +0.000 C 
ENDBRANCH   9  14
BRANCH   1  22
ATOM     21  C   UNL     1       4.122   3.553  11.504  0.00  0.00    +0.000 C 
ATOM     22  O   UNL     1       5.239   2.918  12.120  0.00  0.00    +0.000 OA
ENDBRANCH   1  22
TORSDOF 2
ENDMDL
MODEL 5
REMARK VINA RESULT:      -5.9      3.220      5.154
REMARK  Name = 
REMARK  4 active torsions:
REMARK  status: ('A' for Active; 'I' for Inactive)
REMARK    1  A    between atoms: C_1  and  O_2
REMARK    2  A    between atoms: O_2  and  C_3
REMARK    3  A    between atoms: C_11  and  C_13
REMARK    4  A    between atoms: C_18  and  C_19
REMARK                            x       y       z     vdW  Elec       q    Type
REMARK                         _______ _______ _______ _____ _____    ______ ____
ROOT
ATOM      1  C   UNL     1       3.149   7.475  17.952  0.00  0.00    +0.000 A 
ATOM      2  C   UNL     1       2.992   6.713  19.115  0.00  0.00    +0.000 A 
ATOM      3  C   UNL     1       2.103   7.117  20.114  0.00  0.00    +0.000 A 
ATOM      4  C   UNL     1       1.378   8.296  19.960  0.00  0.00    +0.000 A 
ATOM      5  C   UNL     1       1.489   9.051  18.787  0.00  0.00    +0.000 A 
ATOM      6  C   UNL     1       2.395   8.639  17.793  0.00  0.00    +0.000 A 
ATOM      7  C   UNL     1       0.639  10.273  18.575  0.00  0.00    +0.000 C 
ATOM      8  N   UNL     1       0.936  11.318  19.550  0.00  0.00    +0.000 N 
ATOM      9  C   UNL     1       1.902  12.257  19.210  0.00  0.00    +0.000 C 
ATOM     10  O   UNL     1       2.411  12.227  18.080  0.00  0.00    +0.000 OA
ATOM     11  C   UNL     1       0.352  11.118  20.877  0.00  0.00    +0.000 C 
ATOM     12  C   UNL     1       0.916   9.882  21.593  0.00  0.00    +0.000 C 
ATOM     13  O   UNL     1       0.515   8.651  20.963  0.00  0.00    +0.000 OA
ENDROOT
BRANCH   9  14
ATOM     14  C   UNL     1       2.242  13.415  20.187  0.00  0.00    +0.000 C 
ATOM     15  O   UNL     1       3.498  14.085  20.015  0.00  0.00    +0.000 OA
ATOM     16  C   UNL     1       3.702  15.025  21.091  0.00  0.00    +0.000 C 
ATOM     17  C   UNL     1       2.566  16.046  21.200  0.00  0.00    +0.000 C 
ATOM     18  O   UNL     1       1.289  15.400  21.260  0.00  0.00    +0.000 OA
ATOM     19  C   UNL     1       1.103  14.469  20.170  0.00  0.00    +0.000 C 
ATOM     20  C   UNL     1       0.972  15.238  18.847  0.00  0.00    +0.000 C 
ENDBRANCH   9  14
BRANCH   1  22
ATOM     21  C   UNL     1       4.502   5.642  17.275  0.00  0.00    +0.000 C 
ATOM     22  O   UNL     1       4.053   6.976  17.055  0.00  0.00    +0.000 OA
ENDBRANCH   1  22
TORSDOF 2
ENDMDL
MODEL 6
REMARK VINA RESULT:      -5.9      3.762      5.375
REMARK  Name = 
REMARK  4 active torsions:
REMARK  status: ('A' for Active; 'I' for Inactive)
REMARK    1  A    between atoms: C_1  and  O_2
REMARK    2  A    between atoms: O_2  and  C_3
REMARK    3  A    between atoms: C_11  and  C_13
REMARK    4  A    between atoms: C_18  and  C_19
REMARK                            x       y       z     vdW  Elec       q    Type
REMARK                         _______ _______ _______ _____ _____    ______ ____
ROOT
ATOM      1  C   UNL     1       6.135   4.226  14.180  0.00  0.00    +0.000 A 
ATOM      2  C   UNL     1       5.716   5.541  13.949  0.00  0.00    +0.000 A 
ATOM      3  C   UNL     1       5.429   6.394  15.016  0.00  0.00    +0.000 A 
ATOM      4  C   UNL     1       5.545   5.928  16.324  0.00  0.00    +0.000 A 
ATOM      5  C   UNL     1       6.001   4.630  16.580  0.00  0.00    +0.000 A 
ATOM      6  C   UNL     1       6.277   3.778  15.495  0.00  0.00    +0.000 A 
ATOM      7  C   UNL     1       6.217   4.153  17.989  0.00  0.00    +0.000 C 
ATOM      8  N   UNL     1       4.971   4.112  18.747  0.00  0.00    +0.000 N 
ATOM      9  C   UNL     1       4.253   2.921  18.737  0.00  0.00    +0.000 C 
ATOM     10  O   UNL     1       4.727   1.928  18.165  0.00  0.00    +0.000 OA
ATOM     11  C   UNL     1       4.494   5.406  19.237  0.00  0.00    +0.000 C 
ATOM     12  C   UNL     1       4.114   6.367  18.101  0.00  0.00    +0.000 C 
ATOM     13  O   UNL     1       5.257   6.800  17.341  0.00  0.00    +0.000 OA
ENDROOT
BRANCH   9  14
ATOM     14  C   UNL     1       2.936   2.799  19.549  0.00  0.00    +0.000 C 
ATOM     15  O   UNL     1       2.689   3.776  20.568  0.00  0.00    +0.000 OA
ATOM     16  C   UNL     1       1.501   3.423  21.307  0.00  0.00    +0.000 C 
ATOM     17  C   UNL     1       0.272   3.276  20.405  0.00  0.00    +0.000 C 
ATOM     18  O   UNL     1       0.532   2.387  19.312  0.00  0.00    +0.000 OA
ATOM     19  C   UNL     1       1.722   2.764  18.582  0.00  0.00    +0.000 C 
ATOM     20  C   UNL     1       1.475   4.079  17.829  0.00  0.00    +0.000 C 
ENDBRANCH   9  14
BRANCH   1  22
ATOM     21  C   UNL     1       5.279   3.299  12.166  0.00  0.00    +0.000 C 
ATOM     22  O   UNL     1       6.378   3.492  13.051  0.00  0.00    +0.000 OA
ENDBRANCH   1  22
TORSDOF 2
ENDMDL
MODEL 7
REMARK VINA RESULT:      -5.9      2.926      3.658
REMARK  Name = 
REMARK  4 active torsions:
REMARK  status: ('A' for Active; 'I' for Inactive)
REMARK    1  A    between atoms: C_1  and  O_2
REMARK    2  A    between atoms: O_2  and  C_3
REMARK    3  A    between atoms: C_11  and  C_13
REMARK    4  A    between atoms: C_18  and  C_19
REMARK                            x       y       z     vdW  Elec       q    Type
REMARK                         _______ _______ _______ _____ _____    ______ ____
ROOT
ATOM      1  C   UNL     1       5.847   3.979  14.395  0.00  0.00    +0.000 A 
ATOM      2  C   UNL     1       7.055   4.598  14.736  0.00  0.00    +0.000 A 
ATOM      3  C   UNL     1       7.367   4.860  16.072  0.00  0.00    +0.000 A 
ATOM      4  C   UNL     1       6.462   4.517  17.073  0.00  0.00    +0.000 A 
ATOM      5  C   UNL     1       5.266   3.861  16.758  0.00  0.00    +0.000 A 
ATOM      6  C   UNL     1       4.960   3.612  15.408  0.00  0.00    +0.000 A 
ATOM      7  C   UNL     1       4.330   3.404  17.842  0.00  0.00    +0.000 C 
ATOM      8  N   UNL     1       3.783   4.527  18.597  0.00  0.00    +0.000 N 
ATOM      9  C   UNL     1       2.582   5.072  18.156  0.00  0.00    +0.000 C 
ATOM     10  O   UNL     1       1.985   4.545  17.206  0.00  0.00    +0.000 OA
ATOM     11  C   UNL     1       4.684   5.108  19.594  0.00  0.00    +0.000 C 
ATOM     12  C   UNL     1       5.925   5.757  18.964  0.00  0.00    +0.000 C 
ATOM     13  O   UNL     1       6.810   4.788  18.370  0.00  0.00    +0.000 OA
ENDROOT
BRANCH   9  14
ATOM     14  C   UNL     1       1.928   6.247  18.934  0.00  0.00    +0.000 C 
ATOM     15  O   UNL     1       2.454   6.562  20.230  0.00  0.00    +0.000 OA
ATOM     16  C   UNL     1       1.637   7.575  20.854  0.00  0.00    +0.000 C 
ATOM     17  C   UNL     1       1.527   8.844  20.005  0.00  0.00    +0.000 C 
ATOM     18  O   UNL     1       1.110   8.541  18.669  0.00  0.00    +0.000 OA
ATOM     19  C   UNL     1       1.945   7.530  18.059  0.00  0.00    +0.000 C 
ATOM     20  C   UNL     1       3.346   8.100  17.800  0.00  0.00    +0.000 C 
ENDBRANCH   9  14
BRANCH   1  22
ATOM     21  C   UNL     1       6.830   3.731  12.245  0.00  0.00    +0.000 C 
ATOM     22  O   UNL     1       5.659   3.785  13.054  0.00  0.00    +0.000 OA
ENDBRANCH   1  22
TORSDOF 2
ENDMDL
MODEL 8
REMARK VINA RESULT:      -5.9      2.773      6.823
REMARK  Name = 
REMARK  4 active torsions:
REMARK  status: ('A' for Active; 'I' for Inactive)
REMARK    1  A    between atoms: C_1  and  O_2
REMARK    2  A    between atoms: O_2  and  C_3
REMARK    3  A    between atoms: C_11  and  C_13
REMARK    4  A    between atoms: C_18  and  C_19
REMARK                            x       y       z     vdW  Elec       q    Type
REMARK                         _______ _______ _______ _____ _____    ______ ____
ROOT
ATOM      1  C   UNL     1       1.508   5.596  20.784  0.00  0.00    +0.000 A 
ATOM      2  C   UNL     1       0.453   4.843  20.257  0.00  0.00    +0.000 A 
ATOM      3  C   UNL     1       0.698   3.622  19.625  0.00  0.00    +0.000 A 
ATOM      4  C   UNL     1       2.005   3.156  19.503  0.00  0.00    +0.000 A 
ATOM      5  C   UNL     1       3.071   3.873  20.058  0.00  0.00    +0.000 A 
ATOM      6  C   UNL     1       2.811   5.106  20.684  0.00  0.00    +0.000 A 
ATOM      7  C   UNL     1       4.471   3.329  20.012  0.00  0.00    +0.000 C 
ATOM      8  N   UNL     1       4.964   3.209  18.644  0.00  0.00    +0.000 N 
ATOM      9  C   UNL     1       5.652   4.294  18.112  0.00  0.00    +0.000 C 
ATOM     10  O   UNL     1       5.893   5.276  18.831  0.00  0.00    +0.000 OA
ATOM     11  C   UNL     1       4.469   2.050  17.900  0.00  0.00    +0.000 C 
ATOM     12  C   UNL     1       2.952   2.102  17.662  0.00  0.00    +0.000 C 
ATOM     13  O   UNL     1       2.199   1.952  18.880  0.00  0.00    +0.000 OA
ENDROOT
BRANCH   9  14
ATOM     14  C   UNL     1       6.232   4.220  16.673  0.00  0.00    +0.000 C 
ATOM     15  O   UNL     1       5.358   3.781  15.625  0.00  0.00    +0.000 OA
ATOM     16  C   UNL     1       6.101   3.639  14.397  0.00  0.00    +0.000 C 
ATOM     17  C   UNL     1       6.810   4.933  13.988  0.00  0.00    +0.000 C 
ATOM     18  O   UNL     1       7.604   5.453  15.061  0.00  0.00    +0.000 OA
ATOM     19  C   UNL     1       6.838   5.594  16.279  0.00  0.00    +0.000 C 
ATOM     20  C   UNL     1       5.806   6.718  16.117  0.00  0.00    +0.000 C 
ENDBRANCH   9  14
BRANCH   1  22
ATOM     21  C   UNL     1       1.531   7.972  20.706  0.00  0.00    +0.000 C 
ATOM     22  O   UNL     1       1.137   6.775  21.371  0.00  0.00    +0.000 OA
ENDBRANCH   1  22
TORSDOF 2
ENDMDL
MODEL 9
REMARK VINA RESULT:      -5.8      3.072      4.997
REMARK  Name = 
REMARK  4 active torsions:
REMARK  status: ('A' for Active; 'I' for Inactive)
REMARK    1  A    between atoms: C_1  and  O_2
REMARK    2  A    between atoms: O_2  and  C_3
REMARK    3  A    between atoms: C_11  and  C_13
REMARK    4  A    between atoms: C_18  and  C_19
REMARK                            x       y       z     vdW  Elec       q    Type
REMARK                         _______ _______ _______ _____ _____    ______ ____
ROOT
ATOM      1  C   UNL     1       1.353   4.313  20.006  0.00  0.00    +0.000 A 
ATOM      2  C   UNL     1       1.905   4.100  18.739  0.00  0.00    +0.000 A 
ATOM      3  C   UNL     1       2.515   5.146  18.044  0.00  0.00    +0.000 A 
ATOM      4  C   UNL     1       2.560   6.418  18.609  0.00  0.00    +0.000 A 
ATOM      5  C   UNL     1       2.050   6.645  19.893  0.00  0.00    +0.000 A 
ATOM      6  C   UNL     1       1.431   5.584  20.578  0.00  0.00    +0.000 A 
ATOM      7  C   UNL     1       2.181   7.992  20.546  0.00  0.00    +0.000 C 
ATOM      8  N   UNL     1       1.444   9.023  19.822  0.00  0.00    +0.000 N 
ATOM      9  C   UNL     1       0.129   9.259  20.205  0.00  0.00    +0.000 C 
ATOM     10  O   UNL     1      -0.339   8.659  21.184  0.00  0.00    +0.000 OA
ATOM     11  C   UNL     1       2.097   9.524  18.612  0.00  0.00    +0.000 C 
ATOM     12  C   UNL     1       2.240   8.448  17.525  0.00  0.00    +0.000 C 
ATOM     13  O   UNL     1       3.171   7.414  17.895  0.00  0.00    +0.000 OA
ENDROOT
BRANCH   9  14
ATOM     14  C   UNL     1      -0.702  10.364  19.498  0.00  0.00    +0.000 C 
ATOM     15  O   UNL     1      -2.071  10.073  19.189  0.00  0.00    +0.000 OA
ATOM     16  C   UNL     1      -2.637  11.150  18.413  0.00  0.00    +0.000 C 
ATOM     17  C   UNL     1      -2.530  12.502  19.124  0.00  0.00    +0.000 C 
ATOM     18  O   UNL     1      -1.186  12.766  19.542  0.00  0.00    +0.000 OA
ATOM     19  C   UNL     1      -0.642  11.677  20.324  0.00  0.00    +0.000 C 
ATOM     20  C   UNL     1      -1.355  11.605  21.681  0.00  0.00    +0.000 C 
ENDBRANCH   9  14
BRANCH   1  22
ATOM     21  C   UNL     1       1.510   2.583  21.628  0.00  0.00    +0.000 C 
ATOM     22  O   UNL     1       0.780   3.210  20.578  0.00  0.00    +0.000 OA
ENDBRANCH   1  22
TORSDOF 2
ENDMDL
