MODEL 1
REMARK VINA RESULT:      -8.1      0.000      0.000
REMARK  Name = 
REMARK  5 active torsions:
REMARK  status: ('A' for Active; 'I' for Inactive)
REMARK    1  A    between atoms: C_1  and  C_2
REMARK    2  A    between atoms: C_5  and  C_6
REMARK    3  A    between atoms: C_10  and  O_11
REMARK    4  A    between atoms: O_11  and  C_12
REMARK    5  A    between atoms: N_14  and  C_15
REMARK                            x       y       z     vdW  Elec       q    Type
REMARK                         _______ _______ _______ _____ _____    ______ ____
ROOT
ATOM      1  C   UNL     1       2.199   5.971  20.027  0.00  0.00    +0.000 A 
ATOM      2  C   UNL     1       1.276   5.069  20.582  0.00  0.00    +0.000 A 
ATOM      3  C   UNL     1       1.632   3.741  20.858  0.00  0.00    +0.000 A 
ATOM      4  C   UNL     1       2.909   3.271  20.538  0.00  0.00    +0.000 A 
ATOM      5  C   UNL     1       3.831   4.135  19.949  0.00  0.00    +0.000 A 
ATOM      6  C   UNL     1       3.488   5.471  19.746  0.00  0.00    +0.000 A 
ENDROOT
BRANCH   1  11
ATOM      7  C   UNL     1       0.600  11.462  18.924  0.00  0.00    +0.000 C 
ATOM      8  C   UNL     1       1.080  10.072  19.216  0.00  0.00    +0.000 A 
ATOM      9  C   UNL     1       1.725   9.307  18.242  0.00  0.00    +0.000 A 
ATOM     10  C   UNL     1       2.115   7.989  18.512  0.00  0.00    +0.000 A 
ATOM     11  C   UNL     1       1.878   7.395  19.763  0.00  0.00    +0.000 A 
ATOM     12  C   UNL     1       1.264   8.200  20.744  0.00  0.00    +0.000 A 
ATOM     13  C   UNL     1       0.858   9.511  20.475  0.00  0.00    +0.000 A 
ENDBRANCH   1  11
BRANCH   5  14
ATOM     14  O   UNL     1       5.092   3.585  19.621  0.00  0.00    +0.000 OA
BRANCH  14  15
ATOM     15  C   UNL     1       6.150   4.350  19.135  0.00  0.00    +0.000 C 
ATOM     16  O   UNL     1       6.823   5.167  19.752  0.00  0.00    +0.000 OA
ATOM     17  N   UNL     1       6.427   4.133  17.813  0.00  0.00    +0.000 N 
ATOM     18  H   UNL     1       7.218   4.699  17.534  0.00  0.00    +0.000 HD
BRANCH  17  19
ATOM     19  C   UNL     1       5.399   3.900  16.810  0.00  0.00    +0.000 C 
ATOM     20  C   UNL     1       4.488   5.133  16.670  0.00  0.00    +0.000 C 
ATOM     21  C   UNL     1       5.193   6.318  16.008  0.00  0.00    +0.000 C 
ATOM     22  C   UNL     1       5.804   5.929  14.666  0.00  0.00    +0.000 C 
ATOM     23  C   UNL     1       6.741   4.733  14.802  0.00  0.00    +0.000 C 
ATOM     24  C   UNL     1       6.045   3.540  15.466  0.00  0.00    +0.000 C 
ENDBRANCH  17  19
ENDBRANCH  14  15
ENDBRANCH   5  14
TORSDOF 4
ENDMDL
MODEL 2
REMARK VINA RESULT:      -8.0      0.136      1.010
REMARK  Name = 
REMARK  5 active torsions:
REMARK  status: ('A' for Active; 'I' for Inactive)
REMARK    1  A    between atoms: C_1  and  C_2
REMARK    2  A    between atoms: C_5  and  C_6
REMARK    3  A    between atoms: C_10  and  O_11
REMARK    4  A    between atoms: O_11  and  C_12
REMARK    5  A    between atoms: N_14  and  C_15
REMARK                            x       y       z     vdW  Elec       q    Type
REMARK                         _______ _______ _______ _____ _____    ______ ____
ROOT
ATOM      1  C   UNL     1       2.162   5.895  20.021  0.00  0.00    +0.000 A 
ATOM      2  C   UNL     1       1.287   4.999  20.655  0.00  0.00    +0.000 A 
ATOM      3  C   UNL     1       1.688   3.692  20.973  0.00  0.00    +0.000 A 
ATOM      4  C   UNL     1       2.962   3.239  20.619  0.00  0.00    +0.000 A 
ATOM      5  C   UNL     1       3.835   4.097  19.953  0.00  0.00    +0.000 A 
ATOM      6  C   UNL     1       3.450   5.415  19.706  0.00  0.00    +0.000 A 
ENDROOT
BRANCH   1  11
ATOM      7  C   UNL     1       1.059  11.499  18.872  0.00  0.00    +0.000 C 
ATOM      8  C   UNL     1       1.273  10.042  19.156  0.00  0.00    +0.000 A 
ATOM      9  C   UNL     1       0.931   9.485  20.391  0.00  0.00    +0.000 A 
ATOM     10  C   UNL     1       1.190   8.136  20.662  0.00  0.00    +0.000 A 
ATOM     11  C   UNL     1       1.794   7.299  19.709  0.00  0.00    +0.000 A 
ATOM     12  C   UNL     1       2.091   7.871  18.456  0.00  0.00    +0.000 A 
ATOM     13  C   UNL     1       1.850   9.222  18.186  0.00  0.00    +0.000 A 
ENDBRANCH   1  11
BRANCH   5  14
ATOM     14  O   UNL     1       5.095   3.562  19.594  0.00  0.00    +0.000 OA
BRANCH  14  15
ATOM     15  C   UNL     1       6.145   4.347  19.124  0.00  0.00    +0.000 C 
ATOM     16  O   UNL     1       6.801   5.169  19.753  0.00  0.00    +0.000 OA
ATOM     17  N   UNL     1       6.438   4.144  17.803  0.00  0.00    +0.000 N 
ATOM     18  H   UNL     1       7.223   4.724  17.536  0.00  0.00    +0.000 HD
BRANCH  17  19
ATOM     19  C   UNL     1       5.423   3.903  16.789  0.00  0.00    +0.000 C 
ATOM     20  C   UNL     1       4.481   5.114  16.665  0.00  0.00    +0.000 C 
ATOM     21  C   UNL     1       5.158   6.330  16.031  0.00  0.00    +0.000 C 
ATOM     22  C   UNL     1       5.788   5.982  14.686  0.00  0.00    +0.000 C 
ATOM     23  C   UNL     1       6.755   4.809  14.806  0.00  0.00    +0.000 C 
ATOM     24  C   UNL     1       6.087   3.586  15.442  0.00  0.00    +0.000 C 
ENDBRANCH  17  19
ENDBRANCH  14  15
ENDBRANCH   5  14
TORSDOF 4
ENDMDL
MODEL 3
REMARK VINA RESULT:      -7.7      3.647      8.089
REMARK  Name = 
REMARK  5 active torsions:
REMARK  status: ('A' for Active; 'I' for Inactive)
REMARK    1  A    between atoms: C_1  and  C_2
REMARK    2  A    between atoms: C_5  and  C_6
REMARK    3  A    between atoms: C_10  and  O_11
REMARK    4  A    between atoms: O_11  and  C_12
REMARK    5  A    between atoms: N_14  and  C_15
REMARK                            x       y       z     vdW  Elec       q    Type
REMARK                         _______ _______ _______ _____ _____    ______ ____
ROOT
ATOM      1  C   UNL     1       3.115   6.574  18.468  0.00  0.00    +0.000 A 
ATOM      2  C   UNL     1       2.802   6.001  19.711  0.00  0.00    +0.000 A 
ATOM      3  C   UNL     1       1.962   6.655  20.624  0.00  0.00    +0.000 A 
ATOM      4  C   UNL     1       1.455   7.925  20.331  0.00  0.00    +0.000 A 
ATOM      5  C   UNL     1       1.783   8.533  19.121  0.00  0.00    +0.000 A 
ATOM      6  C   UNL     1       2.560   7.841  18.192  0.00  0.00    +0.000 A 
ENDROOT
BRANCH   1  11
ATOM      7  C   UNL     1       6.170   3.966  14.249  0.00  0.00    +0.000 C 
ATOM      8  C   UNL     1       5.436   4.620  15.382  0.00  0.00    +0.000 A 
ATOM      9  C   UNL     1       4.711   3.867  16.308  0.00  0.00    +0.000 A 
ATOM     10  C   UNL     1       3.983   4.496  17.326  0.00  0.00    +0.000 A 
ATOM     11  C   UNL     1       3.960   5.894  17.454  0.00  0.00    +0.000 A 
ATOM     12  C   UNL     1       4.733   6.631  16.535  0.00  0.00    +0.000 A 
ATOM     13  C   UNL     1       5.448   6.010  15.507  0.00  0.00    +0.000 A 
ENDBRANCH   1  11
BRANCH   5  14
ATOM     14  O   UNL     1       1.263   9.831  18.905  0.00  0.00    +0.000 OA
BRANCH  14  15
ATOM     15  C   UNL     1      -0.091  10.081  18.697  0.00  0.00    +0.000 C 
ATOM     16  O   UNL     1      -0.735   9.890  17.672  0.00  0.00    +0.000 OA
ATOM     17  N   UNL     1      -0.730  10.603  19.788  0.00  0.00    +0.000 N 
ATOM     18  H   UNL     1      -1.711  10.736  19.576  0.00  0.00    +0.000 HD
BRANCH  17  19
ATOM     19  C   UNL     1      -0.115  11.567  20.687  0.00  0.00    +0.000 C 
ATOM     20  C   UNL     1      -1.045  12.774  20.908  0.00  0.00    +0.000 C 
ATOM     21  C   UNL     1      -2.276  12.427  21.747  0.00  0.00    +0.000 C 
ATOM     22  C   UNL     1      -1.888  11.781  23.072  0.00  0.00    +0.000 C 
ATOM     23  C   UNL     1      -0.999  10.559  22.862  0.00  0.00    +0.000 C 
ATOM     24  C   UNL     1       0.237  10.895  22.021  0.00  0.00    +0.000 C 
ENDBRANCH  17  19
ENDBRANCH  14  15
ENDBRANCH   5  14
TORSDOF 4
ENDMDL
MODEL 4
REMARK VINA RESULT:      -7.7      2.392      4.162
REMARK  Name = 
REMARK  5 active torsions:
REMARK  status: ('A' for Active; 'I' for Inactive)
REMARK    1  A    between atoms: C_1  and  C_2
REMARK    2  A    between atoms: C_5  and  C_6
REMARK    3  A    between atoms: C_10  and  O_11
REMARK    4  A    between atoms: O_11  and  C_12
REMARK    5  A    between atoms: N_14  and  C_15
REMARK                            x       y       z     vdW  Elec       q    Type
REMARK                         _______ _______ _______ _____ _____    ______ ____
ROOT
ATOM      1  C   UNL     1       0.742   9.687  19.937  0.00  0.00    +0.000 A 
ATOM      2  C   UNL     1       0.988  10.172  18.643  0.00  0.00    +0.000 A 
ATOM      3  C   UNL     1       1.746   9.435  17.721  0.00  0.00    +0.000 A 
ATOM      4  C   UNL     1       2.316   8.214  18.092  0.00  0.00    +0.000 A 
ATOM      5  C   UNL     1       2.120   7.729  19.383  0.00  0.00    +0.000 A 
ATOM      6  C   UNL     1       1.306   8.437  20.268  0.00  0.00    +0.000 A 
ENDROOT
BRANCH   1  11
ATOM      7  C   UNL     1      -2.800  12.295  23.757  0.00  0.00    +0.000 C 
ATOM      8  C   UNL     1      -1.839  11.675  22.786  0.00  0.00    +0.000 A 
ATOM      9  C   UNL     1      -1.687  12.181  21.493  0.00  0.00    +0.000 A 
ATOM     10  C   UNL     1      -0.829  11.557  20.579  0.00  0.00    +0.000 A 
ATOM     11  C   UNL     1      -0.093  10.412  20.927  0.00  0.00    +0.000 A 
ATOM     12  C   UNL     1      -0.231   9.945  22.249  0.00  0.00    +0.000 A 
ATOM     13  C   UNL     1      -1.098  10.554  23.161  0.00  0.00    +0.000 A 
ENDBRANCH   1  11
BRANCH   5  14
ATOM     14  O   UNL     1       2.754   6.505  19.702  0.00  0.00    +0.000 OA
BRANCH  14  15
ATOM     15  C   UNL     1       2.540   5.331  18.984  0.00  0.00    +0.000 C 
ATOM     16  O   UNL     1       1.656   4.500  19.160  0.00  0.00    +0.000 OA
ATOM     17  N   UNL     1       3.449   5.122  17.983  0.00  0.00    +0.000 N 
ATOM     18  H   UNL     1       3.221   4.270  17.489  0.00  0.00    +0.000 HD
BRANCH  17  19
ATOM     19  C   UNL     1       4.861   5.455  18.105  0.00  0.00    +0.000 C 
ATOM     20  C   UNL     1       5.737   4.257  17.698  0.00  0.00    +0.000 C 
ATOM     21  C   UNL     1       5.694   3.974  16.195  0.00  0.00    +0.000 C 
ATOM     22  C   UNL     1       6.045   5.216  15.382  0.00  0.00    +0.000 C 
ATOM     23  C   UNL     1       5.154   6.398  15.749  0.00  0.00    +0.000 C 
ATOM     24  C   UNL     1       5.188   6.688  17.253  0.00  0.00    +0.000 C 
ENDBRANCH  17  19
ENDBRANCH  14  15
ENDBRANCH   5  14
TORSDOF 4
ENDMDL
MODEL 5
REMARK VINA RESULT:      -7.7      3.060      7.056
REMARK  Name = 
REMARK  5 active torsions:
REMARK  status: ('A' for Active; 'I' for Inactive)
REMARK    1  A    between atoms: C_1  and  C_2
REMARK    2  A    between atoms: C_5  and  C_6
REMARK    3  A    between atoms: C_10  and  O_11
REMARK    4  A    between atoms: O_11  and  C_12
REMARK    5  A    between atoms: N_14  and  C_15
REMARK                            x       y       z     vdW  Elec       q    Type
REMARK                         _______ _______ _______ _____ _____    ______ ____
ROOT
ATOM      1  C   UNL     1       3.004   5.618  18.629  0.00  0.00    +0.000 A 
ATOM      2  C   UNL     1       2.404   4.563  19.335  0.00  0.00    +0.000 A 
ATOM      3  C   UNL     1       1.542   4.807  20.414  0.00  0.00    +0.000 A 
ATOM      4  C   UNL     1       1.298   6.115  20.841  0.00  0.00    +0.000 A 
ATOM      5  C   UNL     1       1.912   7.178  20.182  0.00  0.00    +0.000 A 
ATOM      6  C   UNL     1       2.711   6.927  19.067  0.00  0.00    +0.000 A 
ENDROOT
BRANCH   1  11
ATOM      7  C   UNL     1       6.736   4.737  14.244  0.00  0.00    +0.000 C 
ATOM      8  C   UNL     1       5.724   4.977  15.324  0.00  0.00    +0.000 A 
ATOM      9  C   UNL     1       5.361   6.271  15.704  0.00  0.00    +0.000 A 
ATOM     10  C   UNL     1       4.458   6.481  16.753  0.00  0.00    +0.000 A 
ATOM     11  C   UNL     1       3.885   5.406  17.453  0.00  0.00    +0.000 A 
ATOM     12  C   UNL     1       4.232   4.109  17.025  0.00  0.00    +0.000 A 
ATOM     13  C   UNL     1       5.146   3.895  15.988  0.00  0.00    +0.000 A 
ENDBRANCH   1  11
BRANCH   5  14
ATOM     14  O   UNL     1       1.649   8.473  20.688  0.00  0.00    +0.000 OA
BRANCH  14  15
ATOM     15  C   UNL     1       0.363   8.934  20.960  0.00  0.00    +0.000 C 
ATOM     16  O   UNL     1      -0.491   8.394  21.654  0.00  0.00    +0.000 OA
ATOM     17  N   UNL     1       0.064  10.125  20.358  0.00  0.00    +0.000 N 
ATOM     18  H   UNL     1      -0.871  10.412  20.617  0.00  0.00    +0.000 HD
BRANCH  17  19
ATOM     19  C   UNL     1       0.513  10.477  19.019  0.00  0.00    +0.000 C 
ATOM     20  C   UNL     1      -0.320   9.738  17.956  0.00  0.00    +0.000 C 
ATOM     21  C   UNL     1      -1.756  10.255  17.863  0.00  0.00    +0.000 C 
ATOM     22  C   UNL     1      -1.795  11.764  17.643  0.00  0.00    +0.000 C 
ATOM     23  C   UNL     1      -1.006  12.508  18.716  0.00  0.00    +0.000 C 
ATOM     24  C   UNL     1       0.434  11.996  18.818  0.00  0.00    +0.000 C 
ENDBRANCH  17  19
ENDBRANCH  14  15
ENDBRANCH   5  14
TORSDOF 4
ENDMDL
MODEL 6
REMARK VINA RESULT:      -7.6      2.806      4.807
REMARK  Name = 
REMARK  5 active torsions:
REMARK  status: ('A' for Active; 'I' for Inactive)
REMARK    1  A    between atoms: C_1  and  C_2
REMARK    2  A    between atoms: C_5  and  C_6
REMARK    3  A    between atoms: C_10  and  O_11
REMARK    4  A    between atoms: O_11  and  C_12
REMARK    5  A    between atoms: N_14  and  C_15
REMARK                            x       y       z     vdW  Elec       q    Type
REMARK                         _______ _______ _______ _____ _____    ______ ____
ROOT
ATOM      1  C   UNL     1       0.669   9.855  19.946  0.00  0.00    +0.000 A 
ATOM      2  C   UNL     1       0.927  10.310  18.643  0.00  0.00    +0.000 A 
ATOM      3  C   UNL     1       1.718   9.565  17.755  0.00  0.00    +0.000 A 
ATOM      4  C   UNL     1       2.309   8.368  18.171  0.00  0.00    +0.000 A 
ATOM      5  C   UNL     1       2.101   7.915  19.471  0.00  0.00    +0.000 A 
ATOM      6  C   UNL     1       1.256   8.628  20.321  0.00  0.00    +0.000 A 
ENDROOT
BRANCH   1  11
ATOM      7  C   UNL     1      -2.991  12.474  23.644  0.00  0.00    +0.000 C 
ATOM      8  C   UNL     1      -2.003  11.855  22.701  0.00  0.00    +0.000 A 
ATOM      9  C   UNL     1      -1.891  12.291  21.379  0.00  0.00    +0.000 A 
ATOM     10  C   UNL     1      -1.005  11.664  20.493  0.00  0.00    +0.000 A 
ATOM     11  C   UNL     1      -0.200  10.588  20.900  0.00  0.00    +0.000 A 
ATOM     12  C   UNL     1      -0.299  10.193  22.250  0.00  0.00    +0.000 A 
ATOM     13  C   UNL     1      -1.194  10.804  23.134  0.00  0.00    +0.000 A 
ENDBRANCH   1  11
BRANCH   5  14
ATOM     14  O   UNL     1       2.757   6.715  19.836  0.00  0.00    +0.000 OA
BRANCH  14  15
ATOM     15  C   UNL     1       2.074   5.554  20.186  0.00  0.00    +0.000 C 
ATOM     16  O   UNL     1       1.540   5.298  21.259  0.00  0.00    +0.000 OA
ATOM     17  N   UNL     1       2.023   4.620  19.187  0.00  0.00    +0.000 N 
ATOM     18  H   UNL     1       1.493   3.817  19.499  0.00  0.00    +0.000 HD
BRANCH  17  19
ATOM     19  C   UNL     1       3.129   4.366  18.276  0.00  0.00    +0.000 C 
ATOM     20  C   UNL     1       4.341   3.802  19.039  0.00  0.00    +0.000 C 
ATOM     21  C   UNL     1       4.117   2.374  19.537  0.00  0.00    +0.000 C 
ATOM     22  C   UNL     1       3.699   1.444  18.403  0.00  0.00    +0.000 C 
ATOM     23  C   UNL     1       2.473   1.973  17.666  0.00  0.00    +0.000 C 
ATOM     24  C   UNL     1       2.687   3.404  17.165  0.00  0.00    +0.000 C 
ENDBRANCH  17  19
ENDBRANCH  14  15
ENDBRANCH   5  14
TORSDOF 4
ENDMDL
MODEL 7
REMARK VINA RESULT:      -7.6      2.414      4.254
REMARK  Name = 
REMARK  5 active torsions:
REMARK  status: ('A' for Active; 'I' for Inactive)
REMARK    1  A    between atoms: C_1  and  C_2
REMARK    2  A    between atoms: C_5  and  C_6
REMARK    3  A    between atoms: C_10  and  O_11
REMARK    4  A    between atoms: O_11  and  C_12
REMARK    5  A    between atoms: N_14  and  C_15
REMARK                            x       y       z     vdW  Elec       q    Type
REMARK                         _______ _______ _______ _____ _____    ______ ____
ROOT
ATOM      1  C   UNL     1       0.684   9.715  19.899  0.00  0.00    +0.000 A 
ATOM      2  C   UNL     1       1.009  10.273  18.653  0.00  0.00    +0.000 A 
ATOM      3  C   UNL     1       1.843   9.598  17.749  0.00  0.00    +0.000 A 
ATOM      4  C   UNL     1       2.410   8.368  18.095  0.00  0.00    +0.000 A 
ATOM      5  C   UNL     1       2.135   7.812  19.342  0.00  0.00    +0.000 A 
ATOM      6  C   UNL     1       1.248   8.458  20.203  0.00  0.00    +0.000 A 
ENDROOT
BRANCH   1  11
ATOM      7  C   UNL     1      -2.660  12.553  23.733  0.00  0.00    +0.000 C 
ATOM      8  C   UNL     1      -1.850  11.771  22.743  0.00  0.00    +0.000 A 
ATOM      9  C   UNL     1      -1.087  10.670  23.139  0.00  0.00    +0.000 A 
ATOM     10  C   UNL     1      -0.290   9.984  22.214  0.00  0.00    +0.000 A 
ATOM     11  C   UNL     1      -0.232  10.372  20.865  0.00  0.00    +0.000 A 
ATOM     12  C   UNL     1      -1.042  11.459  20.480  0.00  0.00    +0.000 A 
ATOM     13  C   UNL     1      -1.828  12.158  21.402  0.00  0.00    +0.000 A 
ENDBRANCH   1  11
BRANCH   5  14
ATOM     14  O   UNL     1       2.770   6.583  19.640  0.00  0.00    +0.000 OA
BRANCH  14  15
ATOM     15  C   UNL     1       2.536   5.415  18.920  0.00  0.00    +0.000 C 
ATOM     16  O   UNL     1       1.636   4.600  19.093  0.00  0.00    +0.000 OA
ATOM     17  N   UNL     1       3.441   5.191  17.919  0.00  0.00    +0.000 N 
ATOM     18  H   UNL     1       3.198   4.343  17.423  0.00  0.00    +0.000 HD
BRANCH  17  19
ATOM     19  C   UNL     1       4.859   5.497  18.043  0.00  0.00    +0.000 C 
ATOM     20  C   UNL     1       5.713   4.273  17.668  0.00  0.00    +0.000 C 
ATOM     21  C   UNL     1       5.673   3.958  16.172  0.00  0.00    +0.000 C 
ATOM     22  C   UNL     1       6.055   5.174  15.333  0.00  0.00    +0.000 C 
ATOM     23  C   UNL     1       5.185   6.382  15.669  0.00  0.00    +0.000 C 
ATOM     24  C   UNL     1       5.217   6.704  17.166  0.00  0.00    +0.000 C 
ENDBRANCH  17  19
ENDBRANCH  14  15
ENDBRANCH   5  14
TORSDOF 4
ENDMDL
MODEL 8
REMARK VINA RESULT:      -7.5      2.763      4.781
REMARK  Name = 
REMARK  5 active torsions:
REMARK  status: ('A' for Active; 'I' for Inactive)
REMARK    1  A    between atoms: C_1  and  C_2
REMARK    2  A    between atoms: C_5  and  C_6
REMARK    3  A    between atoms: C_10  and  O_11
REMARK    4  A    between atoms: O_11  and  C_12
REMARK    5  A    between atoms: N_14  and  C_15
REMARK                            x       y       z     vdW  Elec       q    Type
REMARK                         _______ _______ _______ _____ _____    ______ ____
ROOT
ATOM      1  C   UNL     1       0.686   9.724  19.874  0.00  0.00    +0.000 A 
ATOM      2  C   UNL     1       1.022  10.185  18.591  0.00  0.00    +0.000 A 
ATOM      3  C   UNL     1       1.860   9.441  17.747  0.00  0.00    +0.000 A 
ATOM      4  C   UNL     1       2.422   8.240  18.189  0.00  0.00    +0.000 A 
ATOM      5  C   UNL     1       2.137   7.781  19.473  0.00  0.00    +0.000 A 
ATOM      6  C   UNL     1       1.246   8.493  20.276  0.00  0.00    +0.000 A 
ENDROOT
BRANCH   1  11
ATOM      7  C   UNL     1      -2.675  12.853  23.458  0.00  0.00    +0.000 C 
ATOM      8  C   UNL     1      -1.860  11.996  22.536  0.00  0.00    +0.000 A 
ATOM      9  C   UNL     1      -1.110  10.921  23.017  0.00  0.00    +0.000 A 
ATOM     10  C   UNL     1      -0.308  10.166  22.152  0.00  0.00    +0.000 A 
ATOM     11  C   UNL     1      -0.234  10.456  20.780  0.00  0.00    +0.000 A 
ATOM     12  C   UNL     1      -1.032  11.517  20.309  0.00  0.00    +0.000 A 
ATOM     13  C   UNL     1      -1.822  12.285  21.171  0.00  0.00    +0.000 A 
ENDBRANCH   1  11
BRANCH   5  14
ATOM     14  O   UNL     1       2.766   6.577  19.869  0.00  0.00    +0.000 OA
BRANCH  14  15
ATOM     15  C   UNL     1       2.060   5.414  20.164  0.00  0.00    +0.000 C 
ATOM     16  O   UNL     1       1.520   5.119  21.224  0.00  0.00    +0.000 OA
ATOM     17  N   UNL     1       1.993   4.529  19.123  0.00  0.00    +0.000 N 
ATOM     18  H   UNL     1       1.448   3.722  19.397  0.00  0.00    +0.000 HD
BRANCH  17  19
ATOM     19  C   UNL     1       3.096   4.295  18.203  0.00  0.00    +0.000 C 
ATOM     20  C   UNL     1       4.353   3.839  18.967  0.00  0.00    +0.000 C 
ATOM     21  C   UNL     1       4.221   2.425  19.535  0.00  0.00    +0.000 C 
ATOM     22  C   UNL     1       3.838   1.420  18.453  0.00  0.00    +0.000 C 
ATOM     23  C   UNL     1       2.570   1.843  17.717  0.00  0.00    +0.000 C 
ATOM     24  C   UNL     1       2.691   3.259  17.146  0.00  0.00    +0.000 C 
ENDBRANCH  17  19
ENDBRANCH  14  15
ENDBRANCH   5  14
TORSDOF 4
ENDMDL
MODEL 9
REMARK VINA RESULT:      -7.5      3.916      8.297
REMARK  Name = 
REMARK  5 active torsions:
REMARK  status: ('A' for Active; 'I' for Inactive)
REMARK    1  A    between atoms: C_1  and  C_2
REMARK    2  A    between atoms: C_5  and  C_6
REMARK    3  A    between atoms: C_10  and  O_11
REMARK    4  A    between atoms: O_11  and  C_12
REMARK    5  A    between atoms: N_14  and  C_15
REMARK                            x       y       z     vdW  Elec       q    Type
REMARK                         _______ _______ _______ _____ _____    ______ ____
ROOT
ATOM      1  C   UNL     1       2.744   7.001  18.670  0.00  0.00    +0.000 A 
ATOM      2  C   UNL     1       2.496   6.528  19.968  0.00  0.00    +0.000 A 
ATOM      3  C   UNL     1       1.684   7.243  20.861  0.00  0.00    +0.000 A 
ATOM      4  C   UNL     1       1.141   8.476  20.489  0.00  0.00    +0.000 A 
ATOM      5  C   UNL     1       1.405   8.987  19.220  0.00  0.00    +0.000 A 
ATOM      6  C   UNL     1       2.154   8.233  18.316  0.00  0.00    +0.000 A 
ENDROOT
BRANCH   1  11
ATOM      7  C   UNL     1       6.168   3.989  15.045  0.00  0.00    +0.000 C 
ATOM      8  C   UNL     1       5.244   4.782  15.922  0.00  0.00    +0.000 A 
ATOM      9  C   UNL     1       5.315   6.175  15.977  0.00  0.00    +0.000 A 
ATOM     10  C   UNL     1       4.485   6.898  16.845  0.00  0.00    +0.000 A 
ATOM     11  C   UNL     1       3.557   6.253  17.678  0.00  0.00    +0.000 A 
ATOM     12  C   UNL     1       3.473   4.850  17.574  0.00  0.00    +0.000 A 
ATOM     13  C   UNL     1       4.311   4.123  16.722  0.00  0.00    +0.000 A 
ENDBRANCH   1  11
BRANCH   5  14
ATOM     14  O   UNL     1       0.852  10.255  18.921  0.00  0.00    +0.000 OA
BRANCH  14  15
ATOM     15  C   UNL     1      -0.503  10.450  18.666  0.00  0.00    +0.000 C 
ATOM     16  O   UNL     1      -1.121  10.151  17.651  0.00  0.00    +0.000 OA
ATOM     17  N   UNL     1      -1.177  11.053  19.693  0.00  0.00    +0.000 N 
ATOM     18  H   UNL     1      -2.156  11.141  19.452  0.00  0.00    +0.000 HD
BRANCH  17  19
ATOM     19  C   UNL     1      -0.603  12.111  20.512  0.00  0.00    +0.000 C 
ATOM     20  C   UNL     1      -1.624  13.241  20.731  0.00  0.00    +0.000 C 
ATOM     21  C   UNL     1      -2.774  12.831  21.653  0.00  0.00    +0.000 C 
ATOM     22  C   UNL     1      -2.260  12.288  22.982  0.00  0.00    +0.000 C 
ATOM     23  C   UNL     1      -1.278  11.138  22.776  0.00  0.00    +0.000 C 
ATOM     24  C   UNL     1      -0.124  11.538  21.852  0.00  0.00    +0.000 C 
ENDBRANCH  17  19
ENDBRANCH  14  15
ENDBRANCH   5  14
TORSDOF 4
ENDMDL
