MODEL 1
REMARK VINA RESULT:      -6.8      0.000      0.000
REMARK  Name = 
REMARK  7 active torsions:
REMARK  status: ('A' for Active; 'I' for Inactive)
REMARK    1  A    between atoms: C_1  and  C_2
REMARK    2  A    between atoms: C_7  and  N_8
REMARK    3  A    between atoms: C_13  and  C_15
REMARK    4  A    between atoms: C_15  and  N_16
REMARK    5  A    between atoms: C_21  and  C_22
REMARK    6  A    between atoms: C_22  and  C_23
REMARK    7  A    between atoms: C_22  and  C_24
REMARK                            x       y       z     vdW  Elec       q    Type
REMARK                         _______ _______ _______ _____ _____    ______ ____
ROOT
ATOM      1  N   UNL     1       1.160   9.250  19.462  0.00  0.00    +0.000 N 
ATOM      2  C   UNL     1       1.704   8.482  20.598  0.00  0.00    +0.000 C 
ATOM      3  C   UNL     1       1.374   6.999  20.493  0.00  0.00    +0.000 C 
ATOM      4  C   UNL     1       1.527   6.356  19.125  0.00  0.00    +0.000 C 
ATOM      5  N   UNL     1       2.594   6.907  18.292  0.00  0.00    +0.000 N 
ATOM      6  C   UNL     1       3.910   6.475  18.278  0.00  0.00    +0.000 C 
ATOM      7  O   UNL     1       4.747   6.983  17.524  0.00  0.00    +0.000 OA
ATOM      8  C   UNL     1       2.215   8.092  17.506  0.00  0.00    +0.000 C 
ATOM      9  C   UNL     1       2.125   9.393  18.337  0.00  0.00    +0.000 C 
ENDROOT
BRANCH   1  16
ATOM     10  C   UNL     1      -1.227  10.053  17.955  0.00  0.00    +0.000 C 
ATOM     11  C   UNL     1      -0.660  10.860  19.093  0.00  0.00    +0.000 A 
ATOM     12  C   UNL     1      -1.344  12.030  19.480  0.00  0.00    +0.000 A 
ATOM     13  C   UNL     1      -0.895  12.805  20.546  0.00  0.00    +0.000 A 
ATOM     14  C   UNL     1       0.265  12.441  21.216  0.00  0.00    +0.000 A 
ATOM     15  C   UNL     1       0.964  11.297  20.827  0.00  0.00    +0.000 A 
ATOM     16  C   UNL     1       0.509  10.463  19.787  0.00  0.00    +0.000 A 
ENDBRANCH   1  16
BRANCH   6  17
ATOM     17  C   UNL     1       4.337   5.313  19.196  0.00  0.00    +0.000 C 
BRANCH  17  18
ATOM     18  N   UNL     1       3.933   3.981  18.758  0.00  0.00    +0.000 N 
ATOM     19  C   UNL     1       4.357   3.417  17.583  0.00  0.00    +0.000 C 
ATOM     20  O   UNL     1       4.962   3.978  16.684  0.00  0.00    +0.000 OA
ATOM     21  O   UNL     1       4.028   2.092  17.555  0.00  0.00    +0.000 OA
ATOM     22  C   UNL     1       3.145   1.829  18.651  0.00  0.00    +0.000 C 
ATOM     23  C   UNL     1       3.369   2.978  19.627  0.00  0.00    +0.000 C 
BRANCH  23  24
ATOM     24  C   UNL     1       2.117   3.407  20.423  0.00  0.00    +0.000 C 
ATOM     25  C   UNL     1       0.800   2.933  19.795  0.00  0.00    +0.000 C 
ATOM     26  C   UNL     1       2.196   2.935  21.878  0.00  0.00    +0.000 C 
ENDBRANCH  23  24
ENDBRANCH  17  18
ENDBRANCH   6  17
TORSDOF 4
ENDMDL
MODEL 2
REMARK VINA RESULT:      -6.8      3.269      8.158
REMARK  Name = 
REMARK  7 active torsions:
REMARK  status: ('A' for Active; 'I' for Inactive)
REMARK    1  A    between atoms: C_1  and  C_2
REMARK    2  A    between atoms: C_7  and  N_8
REMARK    3  A    between atoms: C_13  and  C_15
REMARK    4  A    between atoms: C_15  and  N_16
REMARK    5  A    between atoms: C_21  and  C_22
REMARK    6  A    between atoms: C_22  and  C_23
REMARK    7  A    between atoms: C_22  and  C_24
REMARK                            x       y       z     vdW  Elec       q    Type
REMARK                         _______ _______ _______ _____ _____    ______ ____
ROOT
ATOM      1  N   UNL     1       2.534   7.069  18.610  0.00  0.00    +0.000 N 
ATOM      2  C   UNL     1       2.705   8.475  18.198  0.00  0.00    +0.000 C 
ATOM      3  C   UNL     1       1.372   9.203  18.084  0.00  0.00    +0.000 C 
ATOM      4  C   UNL     1       0.358   8.955  19.189  0.00  0.00    +0.000 C 
ATOM      5  N   UNL     1       0.925   8.713  20.514  0.00  0.00    +0.000 N 
ATOM      6  C   UNL     1       1.219   9.686  21.454  0.00  0.00    +0.000 C 
ATOM      7  O   UNL     1       1.677   9.392  22.564  0.00  0.00    +0.000 OA
ATOM      8  C   UNL     1       1.302   7.315  20.778  0.00  0.00    +0.000 C 
ATOM      9  C   UNL     1       2.613   6.877  20.085  0.00  0.00    +0.000 C 
ENDROOT
BRANCH   1  16
ATOM     10  C   UNL     1       1.549   4.312  18.404  0.00  0.00    +0.000 C 
ATOM     11  C   UNL     1       2.822   4.785  17.752  0.00  0.00    +0.000 A 
ATOM     12  C   UNL     1       3.542   3.864  16.965  0.00  0.00    +0.000 A 
ATOM     13  C   UNL     1       4.709   4.241  16.306  0.00  0.00    +0.000 A 
ATOM     14  C   UNL     1       5.191   5.534  16.455  0.00  0.00    +0.000 A 
ATOM     15  C   UNL     1       4.498   6.449  17.251  0.00  0.00    +0.000 A 
ATOM     16  C   UNL     1       3.288   6.114  17.889  0.00  0.00    +0.000 A 
ENDBRANCH   1  16
BRANCH   6  17
ATOM     17  C   UNL     1       0.939  11.166  21.128  0.00  0.00    +0.000 C 
BRANCH  17  18
ATOM     18  N   UNL     1      -0.452  11.588  21.249  0.00  0.00    +0.000 N 
ATOM     19  C   UNL     1      -1.180  11.448  22.403  0.00  0.00    +0.000 C 
ATOM     20  O   UNL     1      -0.852  10.823  23.398  0.00  0.00    +0.000 OA
ATOM     21  O   UNL     1      -2.349  12.146  22.305  0.00  0.00    +0.000 OA
ATOM     22  C   UNL     1      -2.505  12.565  20.945  0.00  0.00    +0.000 C 
ATOM     23  C   UNL     1      -1.104  12.503  20.346  0.00  0.00    +0.000 C 
BRANCH  23  24
ATOM     24  C   UNL     1      -1.054  12.120  18.851  0.00  0.00    +0.000 C 
ATOM     25  C   UNL     1      -2.409  11.676  18.287  0.00  0.00    +0.000 C 
ATOM     26  C   UNL     1      -0.490  13.266  18.004  0.00  0.00    +0.000 C 
ENDBRANCH  23  24
ENDBRANCH  17  18
ENDBRANCH   6  17
TORSDOF 4
ENDMDL
MODEL 3
REMARK VINA RESULT:      -6.7      4.138      7.676
REMARK  Name = 
REMARK  7 active torsions:
REMARK  status: ('A' for Active; 'I' for Inactive)
REMARK    1  A    between atoms: C_1  and  C_2
REMARK    2  A    between atoms: C_7  and  N_8
REMARK    3  A    between atoms: C_13  and  C_15
REMARK    4  A    between atoms: C_15  and  N_16
REMARK    5  A    between atoms: C_21  and  C_22
REMARK    6  A    between atoms: C_22  and  C_23
REMARK    7  A    between atoms: C_22  and  C_24
REMARK                            x       y       z     vdW  Elec       q    Type
REMARK                         _______ _______ _______ _____ _____    ______ ____
ROOT
ATOM      1  N   UNL     1       5.840   4.797  14.998  0.00  0.00    +0.000 N 
ATOM      2  C   UNL     1       5.601   3.811  16.069  0.00  0.00    +0.000 C 
ATOM      3  C   UNL     1       6.354   4.160  17.345  0.00  0.00    +0.000 C 
ATOM      4  C   UNL     1       6.342   5.618  17.773  0.00  0.00    +0.000 C 
ATOM      5  N   UNL     1       5.124   6.355  17.443  0.00  0.00    +0.000 N 
ATOM      6  C   UNL     1       3.999   6.452  18.244  0.00  0.00    +0.000 C 
ATOM      7  O   UNL     1       3.016   7.117  17.897  0.00  0.00    +0.000 OA
ATOM      8  C   UNL     1       5.097   6.928  16.087  0.00  0.00    +0.000 C 
ATOM      9  C   UNL     1       4.829   5.890  14.973  0.00  0.00    +0.000 C 
ENDROOT
BRANCH   1  16
ATOM     10  C   UNL     1       8.235   5.682  13.551  0.00  0.00    +0.000 C 
ATOM     11  C   UNL     1       7.274   4.658  13.008  0.00  0.00    +0.000 A 
ATOM     12  C   UNL     1       7.574   4.064  11.766  0.00  0.00    +0.000 A 
ATOM     13  C   UNL     1       6.748   3.085  11.219  0.00  0.00    +0.000 A 
ATOM     14  C   UNL     1       5.592   2.714  11.890  0.00  0.00    +0.000 A 
ATOM     15  C   UNL     1       5.271   3.312  13.111  0.00  0.00    +0.000 A 
ATOM     16  C   UNL     1       6.111   4.267  13.715  0.00  0.00    +0.000 A 
ENDBRANCH   1  16
BRANCH   6  17
ATOM     17  C   UNL     1       3.979   5.746  19.614  0.00  0.00    +0.000 C 
BRANCH  17  18
ATOM     18  N   UNL     1       2.871   4.823  19.833  0.00  0.00    +0.000 N 
ATOM     19  C   UNL     1       1.713   5.181  20.476  0.00  0.00    +0.000 C 
ATOM     20  O   UNL     1       1.511   6.217  21.087  0.00  0.00    +0.000 OA
ATOM     21  O   UNL     1       0.770   4.206  20.317  0.00  0.00    +0.000 OA
ATOM     22  C   UNL     1       1.409   3.058  19.748  0.00  0.00    +0.000 C 
ATOM     23  C   UNL     1       2.690   3.587  19.114  0.00  0.00    +0.000 C 
BRANCH  23  24
ATOM     24  C   UNL     1       3.884   2.609  19.151  0.00  0.00    +0.000 C 
ATOM     25  C   UNL     1       4.267   2.163  20.567  0.00  0.00    +0.000 C 
ATOM     26  C   UNL     1       3.622   1.380  18.274  0.00  0.00    +0.000 C 
ENDBRANCH  23  24
ENDBRANCH  17  18
ENDBRANCH   6  17
TORSDOF 4
ENDMDL
MODEL 4
REMARK VINA RESULT:      -6.6      1.738      2.597
REMARK  Name = 
REMARK  7 active torsions:
REMARK  status: ('A' for Active; 'I' for Inactive)
REMARK    1  A    between atoms: C_1  and  C_2
REMARK    2  A    between atoms: C_7  and  N_8
REMARK    3  A    between atoms: C_13  and  C_15
REMARK    4  A    between atoms: C_15  and  N_16
REMARK    5  A    between atoms: C_21  and  C_22
REMARK    6  A    between atoms: C_22  and  C_23
REMARK    7  A    between atoms: C_22  and  C_24
REMARK                            x       y       z     vdW  Elec       q    Type
REMARK                         _______ _______ _______ _____ _____    ______ ____
ROOT
ATOM      1  N   UNL     1       0.769  10.021  19.351  0.00  0.00    +0.000 N 
ATOM      2  C   UNL     1       0.754   9.243  18.098  0.00  0.00    +0.000 C 
ATOM      3  C   UNL     1       2.140   8.733  17.726  0.00  0.00    +0.000 C 
ATOM      4  C   UNL     1       2.985   8.159  18.851  0.00  0.00    +0.000 C 
ATOM      5  N   UNL     1       2.240   7.482  19.909  0.00  0.00    +0.000 N 
ATOM      6  C   UNL     1       1.899   6.140  19.923  0.00  0.00    +0.000 C 
ATOM      7  O   UNL     1       1.284   5.641  20.872  0.00  0.00    +0.000 OA
ATOM      8  C   UNL     1       1.731   8.367  20.970  0.00  0.00    +0.000 C 
ATOM      9  C   UNL     1       0.491   9.193  20.557  0.00  0.00    +0.000 C 
ENDROOT
BRANCH   1  16
ATOM     10  C   UNL     1       2.104  12.483  18.475  0.00  0.00    +0.000 C 
ATOM     11  C   UNL     1       0.659  12.432  18.894  0.00  0.00    +0.000 A 
ATOM     12  C   UNL     1      -0.096  13.619  18.810  0.00  0.00    +0.000 A 
ATOM     13  C   UNL     1      -1.446  13.638  19.149  0.00  0.00    +0.000 A 
ATOM     14  C   UNL     1      -2.051  12.478  19.611  0.00  0.00    +0.000 A 
ATOM     15  C   UNL     1      -1.308  11.300  19.721  0.00  0.00    +0.000 A 
ATOM     16  C   UNL     1       0.046  11.236  19.337  0.00  0.00    +0.000 A 
ENDBRANCH   1  16
BRANCH   6  17
ATOM     17  C   UNL     1       2.325   5.236  18.749  0.00  0.00    +0.000 C 
BRANCH  17  18
ATOM     18  N   UNL     1       3.372   4.266  19.046  0.00  0.00    +0.000 N 
ATOM     19  C   UNL     1       4.706   4.583  19.063  0.00  0.00    +0.000 C 
ATOM     20  O   UNL     1       5.210   5.626  18.680  0.00  0.00    +0.000 OA
ATOM     21  O   UNL     1       5.424   3.558  19.608  0.00  0.00    +0.000 OA
ATOM     22  C   UNL     1       4.556   2.426  19.737  0.00  0.00    +0.000 C 
ATOM     23  C   UNL     1       3.144   3.000  19.698  0.00  0.00    +0.000 C 
BRANCH  23  24
ATOM     24  C   UNL     1       2.090   2.085  19.039  0.00  0.00    +0.000 C 
ATOM     25  C   UNL     1       0.645   2.502  19.338  0.00  0.00    +0.000 C 
ATOM     26  C   UNL     1       2.302   1.998  17.524  0.00  0.00    +0.000 C 
ENDBRANCH  23  24
ENDBRANCH  17  18
ENDBRANCH   6  17
TORSDOF 4
ENDMDL
MODEL 5
REMARK VINA RESULT:      -6.5      5.055      9.590
REMARK  Name = 
REMARK  7 active torsions:
REMARK  status: ('A' for Active; 'I' for Inactive)
REMARK    1  A    between atoms: C_1  and  C_2
REMARK    2  A    between atoms: C_7  and  N_8
REMARK    3  A    between atoms: C_13  and  C_15
REMARK    4  A    between atoms: C_15  and  N_16
REMARK    5  A    between atoms: C_21  and  C_22
REMARK    6  A    between atoms: C_22  and  C_23
REMARK    7  A    between atoms: C_22  and  C_24
REMARK                            x       y       z     vdW  Elec       q    Type
REMARK                         _______ _______ _______ _____ _____    ______ ____
ROOT
ATOM      1  N   UNL     1       0.221  10.576  19.422  0.00  0.00    +0.000 N 
ATOM      2  C   UNL     1       0.161  11.055  20.816  0.00  0.00    +0.000 C 
ATOM      3  C   UNL     1       0.186  12.575  20.900  0.00  0.00    +0.000 C 
ATOM      4  C   UNL     1      -0.674  13.332  19.902  0.00  0.00    +0.000 C 
ATOM      5  N   UNL     1      -1.913  12.663  19.511  0.00  0.00    +0.000 N 
ATOM      6  C   UNL     1      -3.133  12.785  20.156  0.00  0.00    +0.000 C 
ATOM      7  O   UNL     1      -4.140  12.199  19.744  0.00  0.00    +0.000 OA
ATOM      8  C   UNL     1      -1.774  11.702  18.405  0.00  0.00    +0.000 C 
ATOM      9  C   UNL     1      -1.122  10.361  18.817  0.00  0.00    +0.000 C 
ENDROOT
BRANCH   1  16
ATOM     10  C   UNL     1       0.578   8.482  21.446  0.00  0.00    +0.000 C 
ATOM     11  C   UNL     1       1.287   8.474  20.117  0.00  0.00    +0.000 A 
ATOM     12  C   UNL     1       2.121   7.379  19.819  0.00  0.00    +0.000 A 
ATOM     13  C   UNL     1       2.780   7.290  18.596  0.00  0.00    +0.000 A 
ATOM     14  C   UNL     1       2.643   8.314  17.669  0.00  0.00    +0.000 A 
ATOM     15  C   UNL     1       1.837   9.416  17.962  0.00  0.00    +0.000 A 
ATOM     16  C   UNL     1       1.116   9.512  19.169  0.00  0.00    +0.000 A 
ENDBRANCH   1  16
BRANCH   6  17
ATOM     17  C   UNL     1      -3.249  13.698  21.393  0.00  0.00    +0.000 C 
BRANCH  17  18
ATOM     18  N   UNL     1      -3.962  13.129  22.532  0.00  0.00    +0.000 N 
ATOM     19  C   UNL     1      -3.377  12.274  23.431  0.00  0.00    +0.000 C 
ATOM     20  O   UNL     1      -2.283  11.745  23.325  0.00  0.00    +0.000 OA
ATOM     21  O   UNL     1      -4.193  12.106  24.513  0.00  0.00    +0.000 OA
ATOM     22  C   UNL     1      -5.466  12.684  24.205  0.00  0.00    +0.000 C 
ATOM     23  C   UNL     1      -5.198  13.652  23.059  0.00  0.00    +0.000 C 
BRANCH  23  24
ATOM     24  C   UNL     1      -6.353  13.794  22.045  0.00  0.00    +0.000 C 
ATOM     25  C   UNL     1      -7.063  12.470  21.737  0.00  0.00    +0.000 C 
ATOM     26  C   UNL     1      -7.376  14.834  22.512  0.00  0.00    +0.000 C 
ENDBRANCH  23  24
ENDBRANCH  17  18
ENDBRANCH   6  17
TORSDOF 4
ENDMDL
MODEL 6
REMARK VINA RESULT:      -6.5      3.278      7.999
REMARK  Name = 
REMARK  7 active torsions:
REMARK  status: ('A' for Active; 'I' for Inactive)
REMARK    1  A    between atoms: C_1  and  C_2
REMARK    2  A    between atoms: C_7  and  N_8
REMARK    3  A    between atoms: C_13  and  C_15
REMARK    4  A    between atoms: C_15  and  N_16
REMARK    5  A    between atoms: C_21  and  C_22
REMARK    6  A    between atoms: C_22  and  C_23
REMARK    7  A    between atoms: C_22  and  C_24
REMARK                            x       y       z     vdW  Elec       q    Type
REMARK                         _______ _______ _______ _____ _____    ______ ____
ROOT
ATOM      1  N   UNL     1       2.569   7.164  18.479  0.00  0.00    +0.000 N 
ATOM      2  C   UNL     1       2.903   8.507  17.970  0.00  0.00    +0.000 C 
ATOM      3  C   UNL     1       1.657   9.334  17.679  0.00  0.00    +0.000 C 
ATOM      4  C   UNL     1       0.538   9.274  18.706  0.00  0.00    +0.000 C 
ATOM      5  N   UNL     1       0.970   9.104  20.091  0.00  0.00    +0.000 N 
ATOM      6  C   UNL     1       1.277  10.128  20.971  0.00  0.00    +0.000 C 
ATOM      7  O   UNL     1       1.615   9.896  22.138  0.00  0.00    +0.000 OA
ATOM      8  C   UNL     1       1.194   7.708  20.502  0.00  0.00    +0.000 C 
ATOM      9  C   UNL     1       2.509   7.099  19.966  0.00  0.00    +0.000 C 
ENDROOT
BRANCH   1  16
ATOM     10  C   UNL     1       1.338   4.501  18.386  0.00  0.00    +0.000 C 
ATOM     11  C   UNL     1       2.705   4.799  17.827  0.00  0.00    +0.000 A 
ATOM     12  C   UNL     1       3.399   3.754  17.185  0.00  0.00    +0.000 A 
ATOM     13  C   UNL     1       4.651   3.966  16.616  0.00  0.00    +0.000 A 
ATOM     14  C   UNL     1       5.243   5.218  16.713  0.00  0.00    +0.000 A 
ATOM     15  C   UNL     1       4.576   6.255  17.368  0.00  0.00    +0.000 A 
ATOM     16  C   UNL     1       3.286   6.087  17.909  0.00  0.00    +0.000 A 
ENDBRANCH   1  16
BRANCH   6  17
ATOM     17  C   UNL     1       1.164  11.592  20.501  0.00  0.00    +0.000 C 
BRANCH  17  18
ATOM     18  N   UNL     1      -0.192  12.081  20.281  0.00  0.00    +0.000 N 
ATOM     19  C   UNL     1      -0.603  12.649  19.102  0.00  0.00    +0.000 C 
ATOM     20  O   UNL     1       0.109  12.977  18.167  0.00  0.00    +0.000 OA
ATOM     21  O   UNL     1      -1.961  12.780  19.094  0.00  0.00    +0.000 OA
ATOM     22  C   UNL     1      -2.443  12.508  20.415  0.00  0.00    +0.000 C 
ATOM     23  C   UNL     1      -1.329  11.715  21.089  0.00  0.00    +0.000 C 
BRANCH  23  24
ATOM     24  C   UNL     1      -1.182  11.963  22.606  0.00  0.00    +0.000 C 
ATOM     25  C   UNL     1      -2.100  13.070  23.137  0.00  0.00    +0.000 C 
ATOM     26  C   UNL     1      -1.409  10.674  23.403  0.00  0.00    +0.000 C 
ENDBRANCH  23  24
ENDBRANCH  17  18
ENDBRANCH   6  17
TORSDOF 4
ENDMDL
MODEL 7
REMARK VINA RESULT:      -6.5      3.937      8.669
REMARK  Name = 
REMARK  7 active torsions:
REMARK  status: ('A' for Active; 'I' for Inactive)
REMARK    1  A    between atoms: C_1  and  C_2
REMARK    2  A    between atoms: C_7  and  N_8
REMARK    3  A    between atoms: C_13  and  C_15
REMARK    4  A    between atoms: C_15  and  N_16
REMARK    5  A    between atoms: C_21  and  C_22
REMARK    6  A    between atoms: C_22  and  C_23
REMARK    7  A    between atoms: C_22  and  C_24
REMARK                            x       y       z     vdW  Elec       q    Type
REMARK                         _______ _______ _______ _____ _____    ______ ____
ROOT
ATOM      1  N   UNL     1       1.486   8.348  19.411  0.00  0.00    +0.000 N 
ATOM      2  C   UNL     1       1.461   9.704  18.830  0.00  0.00    +0.000 C 
ATOM      3  C   UNL     1       0.042  10.179  18.550  0.00  0.00    +0.000 C 
ATOM      4  C   UNL     1      -1.000   9.897  19.619  0.00  0.00    +0.000 C 
ATOM      5  N   UNL     1      -0.504   9.913  20.994  0.00  0.00    +0.000 N 
ATOM      6  C   UNL     1      -0.441  11.027  21.815  0.00  0.00    +0.000 C 
ATOM      7  O   UNL     1      -0.027  10.947  22.977  0.00  0.00    +0.000 OA
ATOM      8  C   UNL     1       0.070   8.640  21.458  0.00  0.00    +0.000 C 
ATOM      9  C   UNL     1       1.483   8.349  20.900  0.00  0.00    +0.000 C 
ENDROOT
BRANCH   1  16
ATOM     10  C   UNL     1       1.625   5.596  20.420  0.00  0.00    +0.000 C 
ATOM     11  C   UNL     1       2.505   6.114  19.313  0.00  0.00    +0.000 A 
ATOM     12  C   UNL     1       3.400   5.213  18.703  0.00  0.00    +0.000 A 
ATOM     13  C   UNL     1       4.219   5.615  17.650  0.00  0.00    +0.000 A 
ATOM     14  C   UNL     1       4.179   6.933  17.219  0.00  0.00    +0.000 A 
ATOM     15  C   UNL     1       3.313   7.842  17.831  0.00  0.00    +0.000 A 
ATOM     16  C   UNL     1       2.435   7.455  18.862  0.00  0.00    +0.000 A 
ENDBRANCH   1  16
BRANCH   6  17
ATOM     17  C   UNL     1      -0.928  12.389  21.284  0.00  0.00    +0.000 C 
BRANCH  17  18
ATOM     18  N   UNL     1       0.027  13.487  21.391  0.00  0.00    +0.000 N 
ATOM     19  C   UNL     1       0.107  14.308  22.487  0.00  0.00    +0.000 C 
ATOM     20  O   UNL     1      -0.682  14.358  23.416  0.00  0.00    +0.000 OA
ATOM     21  O   UNL     1       1.237  15.071  22.418  0.00  0.00    +0.000 OA
ATOM     22  C   UNL     1       1.800  14.916  21.111  0.00  0.00    +0.000 C 
ATOM     23  C   UNL     1       1.206  13.619  20.572  0.00  0.00    +0.000 C 
BRANCH  23  24
ATOM     24  C   UNL     1       0.970  13.598  19.047  0.00  0.00    +0.000 C 
ATOM     25  C   UNL     1       0.013  14.693  18.560  0.00  0.00    +0.000 C 
ATOM     26  C   UNL     1       2.293  13.686  18.279  0.00  0.00    +0.000 C 
ENDBRANCH  23  24
ENDBRANCH  17  18
ENDBRANCH   6  17
TORSDOF 4
ENDMDL
MODEL 8
REMARK VINA RESULT:      -6.5      3.377      8.363
REMARK  Name = 
REMARK  7 active torsions:
REMARK  status: ('A' for Active; 'I' for Inactive)
REMARK    1  A    between atoms: C_1  and  C_2
REMARK    2  A    between atoms: C_7  and  N_8
REMARK    3  A    between atoms: C_13  and  C_15
REMARK    4  A    between atoms: C_15  and  N_16
REMARK    5  A    between atoms: C_21  and  C_22
REMARK    6  A    between atoms: C_22  and  C_23
REMARK    7  A    between atoms: C_22  and  C_24
REMARK                            x       y       z     vdW  Elec       q    Type
REMARK                         _______ _______ _______ _____ _____    ______ ____
ROOT
ATOM      1  N   UNL     1       2.533   7.213  18.529  0.00  0.00    +0.000 N 
ATOM      2  C   UNL     1       2.742   8.525  17.886  0.00  0.00    +0.000 C 
ATOM      3  C   UNL     1       1.425   9.213  17.551  0.00  0.00    +0.000 C 
ATOM      4  C   UNL     1       0.335   9.159  18.608  0.00  0.00    +0.000 C 
ATOM      5  N   UNL     1       0.805   9.160  19.991  0.00  0.00    +0.000 N 
ATOM      6  C   UNL     1       1.039  10.287  20.762  0.00  0.00    +0.000 C 
ATOM      7  O   UNL     1       1.417  10.198  21.935  0.00  0.00    +0.000 OA
ATOM      8  C   UNL     1       1.154   7.835  20.526  0.00  0.00    +0.000 C 
ATOM      9  C   UNL     1       2.507   7.288  20.016  0.00  0.00    +0.000 C 
ENDROOT
BRANCH   1  16
ATOM     10  C   UNL     1       1.307   4.586  18.074  0.00  0.00    +0.000 C 
ATOM     11  C   UNL     1       2.756   4.880  17.791  0.00  0.00    +0.000 A 
ATOM     12  C   UNL     1       3.543   3.853  17.233  0.00  0.00    +0.000 A 
ATOM     13  C   UNL     1       4.882   4.065  16.915  0.00  0.00    +0.000 A 
ATOM     14  C   UNL     1       5.462   5.296  17.184  0.00  0.00    +0.000 A 
ATOM     15  C   UNL     1       4.698   6.316  17.758  0.00  0.00    +0.000 A 
ATOM     16  C   UNL     1       3.329   6.150  18.044  0.00  0.00    +0.000 A 
ENDBRANCH   1  16
BRANCH   6  17
ATOM     17  C   UNL     1       0.793  11.684  20.158  0.00  0.00    +0.000 C 
BRANCH  17  18
ATOM     18  N   UNL     1       0.490  12.741  21.116  0.00  0.00    +0.000 N 
ATOM     19  C   UNL     1       1.429  13.628  21.577  0.00  0.00    +0.000 C 
ATOM     20  O   UNL     1       2.635  13.565  21.403  0.00  0.00    +0.000 OA
ATOM     21  O   UNL     1       0.819  14.644  22.256  0.00  0.00    +0.000 OA
ATOM     22  C   UNL     1      -0.554  14.286  22.453  0.00  0.00    +0.000 C 
ATOM     23  C   UNL     1      -0.841  13.215  21.408  0.00  0.00    +0.000 C 
BRANCH  23  24
ATOM     24  C   UNL     1      -1.856  12.137  21.845  0.00  0.00    +0.000 C 
ATOM     25  C   UNL     1      -1.518  11.489  23.193  0.00  0.00    +0.000 C 
ATOM     26  C   UNL     1      -3.280  12.700  21.883  0.00  0.00    +0.000 C 
ENDBRANCH  23  24
ENDBRANCH  17  18
ENDBRANCH   6  17
TORSDOF 4
ENDMDL
MODEL 9
REMARK VINA RESULT:      -6.5      3.995      8.941
REMARK  Name = 
REMARK  7 active torsions:
REMARK  status: ('A' for Active; 'I' for Inactive)
REMARK    1  A    between atoms: C_1  and  C_2
REMARK    2  A    between atoms: C_7  and  N_8
REMARK    3  A    between atoms: C_13  and  C_15
REMARK    4  A    between atoms: C_15  and  N_16
REMARK    5  A    between atoms: C_21  and  C_22
REMARK    6  A    between atoms: C_22  and  C_23
REMARK    7  A    between atoms: C_22  and  C_24
REMARK                            x       y       z     vdW  Elec       q    Type
REMARK                         _______ _______ _______ _____ _____    ______ ____
ROOT
ATOM      1  N   UNL     1       1.605   8.199  19.312  0.00  0.00    +0.000 N 
ATOM      2  C   UNL     1       1.660   9.521  18.660  0.00  0.00    +0.000 C 
ATOM      3  C   UNL     1       0.272  10.053  18.327  0.00  0.00    +0.000 C 
ATOM      4  C   UNL     1      -0.801   9.883  19.390  0.00  0.00    +0.000 C 
ATOM      5  N   UNL     1      -0.327   9.948  20.771  0.00  0.00    +0.000 N 
ATOM      6  C   UNL     1      -0.219  11.099  21.533  0.00  0.00    +0.000 C 
ATOM      7  O   UNL     1       0.172  11.062  22.705  0.00  0.00    +0.000 OA
ATOM      8  C   UNL     1       0.173   8.674  21.313  0.00  0.00    +0.000 C 
ATOM      9  C   UNL     1       1.577   8.280  20.799  0.00  0.00    +0.000 C 
ENDROOT
BRANCH   1  16
ATOM     10  C   UNL     1       1.528   5.479  20.411  0.00  0.00    +0.000 C 
ATOM     11  C   UNL     1       2.480   5.904  19.324  0.00  0.00    +0.000 A 
ATOM     12  C   UNL     1       3.339   4.928  18.779  0.00  0.00    +0.000 A 
ATOM     13  C   UNL     1       4.221   5.242  17.748  0.00  0.00    +0.000 A 
ATOM     14  C   UNL     1       4.282   6.545  17.275  0.00  0.00    +0.000 A 
ATOM     15  C   UNL     1       3.453   7.526  17.823  0.00  0.00    +0.000 A 
ATOM     16  C   UNL     1       2.514   7.230  18.830  0.00  0.00    +0.000 A 
ENDBRANCH   1  16
BRANCH   6  17
ATOM     17  C   UNL     1      -0.625  12.454  20.922  0.00  0.00    +0.000 C 
BRANCH  17  18
ATOM     18  N   UNL     1      -1.081  13.464  21.871  0.00  0.00    +0.000 N 
ATOM     19  C   UNL     1      -0.246  14.396  22.433  0.00  0.00    +0.000 C 
ATOM     20  O   UNL     1       0.972  14.415  22.367  0.00  0.00    +0.000 OA
ATOM     21  O   UNL     1      -0.979  15.352  23.075  0.00  0.00    +0.000 OA
ATOM     22  C   UNL     1      -2.337  14.903  23.141  0.00  0.00    +0.000 C 
ATOM     23  C   UNL     1      -2.460  13.844  22.051  0.00  0.00    +0.000 C 
BRANCH  23  24
ATOM     24  C   UNL     1      -3.437  12.693  22.373  0.00  0.00    +0.000 C 
ATOM     25  C   UNL     1      -3.443  12.290  23.852  0.00  0.00    +0.000 C 
ATOM     26  C   UNL     1      -4.861  13.032  21.922  0.00  0.00    +0.000 C 
ENDBRANCH  23  24
ENDBRANCH  17  18
ENDBRANCH   6  17
TORSDOF 4
ENDMDL
