MODEL 1
REMARK VINA RESULT:      -9.1      0.000      0.000
REMARK  Name = 
REMARK  4 active torsions:
REMARK  status: ('A' for Active; 'I' for Inactive)
REMARK    1  A    between atoms: C_6  and  C_7
REMARK    2  A    between atoms: C_13  and  C_14
REMARK    3  A    between atoms: C_18  and  C_19
REMARK    4  A    between atoms: C_19  and  N_20
REMARK                            x       y       z     vdW  Elec       q    Type
REMARK                         _______ _______ _______ _____ _____    ______ ____
ROOT
ATOM      1  C   UNL     1       4.484   3.928  18.068  0.00  0.00    +0.000 A 
ATOM      2  N   UNL     1       4.431   2.733  18.667  0.00  0.00    +0.000 NA
ATOM      3  N   UNL     1       3.710   2.978  19.779  0.00  0.00    +0.000 N 
ATOM      4  C   UNL     1       3.173   4.237  19.835  0.00  0.00    +0.000 A 
ATOM      5  C   UNL     1       2.313   4.849  20.747  0.00  0.00    +0.000 A 
ATOM      6  C   UNL     1       1.915   6.164  20.459  0.00  0.00    +0.000 A 
ATOM      7  C   UNL     1       2.368   6.865  19.325  0.00  0.00    +0.000 A 
ATOM      8  C   UNL     1       3.261   6.212  18.460  0.00  0.00    +0.000 A 
ATOM      9  C   UNL     1       3.670   4.888  18.716  0.00  0.00    +0.000 A 
ATOM     10  H   UNL     1       3.593   2.230  20.453  0.00  0.00    +0.000 HD
ENDROOT
BRANCH   1  16
ATOM     11  C   UNL     1       7.022   4.409  12.653  0.00  0.00    +0.000 A 
ATOM     12  C   UNL     1       7.865   5.252  13.369  0.00  0.00    +0.000 A 
ATOM     13  N   UNL     1       7.765   5.525  14.684  0.00  0.00    +0.000 NA
ATOM     14  C   UNL     1       6.754   4.884  15.316  0.00  0.00    +0.000 A 
ATOM     15  C   UNL     1       6.358   4.980  16.666  0.00  0.00    +0.000 A 
ATOM     16  C   UNL     1       5.277   4.142  16.836  0.00  0.00    +0.000 A 
ATOM     17  N   UNL     1       5.042   3.504  15.644  0.00  0.00    +0.000 N 
ATOM     18  C   UNL     1       5.890   3.995  14.679  0.00  0.00    +0.000 A 
ATOM     19  C   UNL     1       5.990   3.746  13.313  0.00  0.00    +0.000 A 
ATOM     20  H   UNL     1       4.297   2.836  15.503  0.00  0.00    +0.000 HD
ENDBRANCH   1  16
BRANCH   7  21
ATOM     21  C   UNL     1       1.960   8.254  19.060  0.00  0.00    +0.000 A 
ATOM     22  C   UNL     1       2.354   8.963  17.918  0.00  0.00    +0.000 A 
ATOM     23  N   UNL     1       2.045  10.256  17.661  0.00  0.00    +0.000 NA
ATOM     24  C   UNL     1       1.295  10.895  18.583  0.00  0.00    +0.000 A 
ATOM     25  C   UNL     1       0.830  10.299  19.747  0.00  0.00    +0.000 A 
ATOM     26  C   UNL     1       1.173   8.961  19.969  0.00  0.00    +0.000 A 
BRANCH  25  27
ATOM     27  C   UNL     1      -0.033  11.039  20.731  0.00  0.00    +0.000 C 
BRANCH  27  28
ATOM     28  N   UNL     1      -1.059  11.897  20.098  0.00  0.00    +0.000 NA
ATOM     29  C   UNL     1      -1.963  11.090  19.259  0.00  0.00    +0.000 C 
ATOM     30  C   UNL     1      -3.177  11.863  18.745  0.00  0.00    +0.000 C 
ATOM     31  C   UNL     1      -3.927  12.522  19.893  0.00  0.00    +0.000 C 
ATOM     32  C   UNL     1      -2.972  13.430  20.652  0.00  0.00    +0.000 C 
ATOM     33  C   UNL     1      -1.759  12.646  21.152  0.00  0.00    +0.000 C 
ENDBRANCH  27  28
ENDBRANCH  25  27
ENDBRANCH   7  21
TORSDOF 4
ENDMDL
MODEL 2
REMARK VINA RESULT:      -9.0      0.727      1.174
REMARK  Name = 
REMARK  4 active torsions:
REMARK  status: ('A' for Active; 'I' for Inactive)
REMARK    1  A    between atoms: C_6  and  C_7
REMARK    2  A    between atoms: C_13  and  C_14
REMARK    3  A    between atoms: C_18  and  C_19
REMARK    4  A    between atoms: C_19  and  N_20
REMARK                            x       y       z     vdW  Elec       q    Type
REMARK                         _______ _______ _______ _____ _____    ______ ____
ROOT
ATOM      1  C   UNL     1       4.322   3.944  18.194  0.00  0.00    +0.000 A 
ATOM      2  N   UNL     1       4.251   2.745  18.783  0.00  0.00    +0.000 NA
ATOM      3  N   UNL     1       3.518   2.988  19.888  0.00  0.00    +0.000 N 
ATOM      4  C   UNL     1       2.991   4.251  19.946  0.00  0.00    +0.000 A 
ATOM      5  C   UNL     1       2.126   4.864  20.852  0.00  0.00    +0.000 A 
ATOM      6  C   UNL     1       1.744   6.185  20.569  0.00  0.00    +0.000 A 
ATOM      7  C   UNL     1       2.217   6.890  19.446  0.00  0.00    +0.000 A 
ATOM      8  C   UNL     1       3.116   6.236  18.588  0.00  0.00    +0.000 A 
ATOM      9  C   UNL     1       3.508   4.906  18.839  0.00  0.00    +0.000 A 
ATOM     10  H   UNL     1       3.385   2.236  20.554  0.00  0.00    +0.000 HD
ENDROOT
BRANCH   1  16
ATOM     11  C   UNL     1       6.948   4.415  12.819  0.00  0.00    +0.000 A 
ATOM     12  C   UNL     1       7.760   5.283  13.540  0.00  0.00    +0.000 A 
ATOM     13  N   UNL     1       7.632   5.568  14.851  0.00  0.00    +0.000 NA
ATOM     14  C   UNL     1       6.622   4.914  15.472  0.00  0.00    +0.000 A 
ATOM     15  C   UNL     1       6.200   5.018  16.813  0.00  0.00    +0.000 A 
ATOM     16  C   UNL     1       5.133   4.160  16.973  0.00  0.00    +0.000 A 
ATOM     17  N   UNL     1       4.933   3.504  15.785  0.00  0.00    +0.000 N 
ATOM     18  C   UNL     1       5.788   4.001  14.830  0.00  0.00    +0.000 A 
ATOM     19  C   UNL     1       5.917   3.739  13.468  0.00  0.00    +0.000 A 
ATOM     20  H   UNL     1       4.203   2.820  15.639  0.00  0.00    +0.000 HD
ENDBRANCH   1  16
BRANCH   7  21
ATOM     21  C   UNL     1       1.825   8.285  19.187  0.00  0.00    +0.000 A 
ATOM     22  C   UNL     1       1.855   8.863  17.912  0.00  0.00    +0.000 A 
ATOM     23  N   UNL     1       1.552  10.155  17.637  0.00  0.00    +0.000 NA
ATOM     24  C   UNL     1       1.193  10.929  18.682  0.00  0.00    +0.000 A 
ATOM     25  C   UNL     1       1.111  10.470  19.990  0.00  0.00    +0.000 A 
ATOM     26  C   UNL     1       1.431   9.128  20.225  0.00  0.00    +0.000 A 
BRANCH  25  27
ATOM     27  C   UNL     1       0.672  11.359  21.120  0.00  0.00    +0.000 C 
BRANCH  27  28
ATOM     28  N   UNL     1      -0.794  11.395  21.317  0.00  0.00    +0.000 NA
ATOM     29  C   UNL     1      -1.122  11.632  22.734  0.00  0.00    +0.000 C 
ATOM     30  C   UNL     1      -2.605  11.899  22.985  0.00  0.00    +0.000 C 
ATOM     31  C   UNL     1      -3.110  13.030  22.104  0.00  0.00    +0.000 C 
ATOM     32  C   UNL     1      -2.850  12.678  20.648  0.00  0.00    +0.000 C 
ATOM     33  C   UNL     1      -1.364  12.406  20.413  0.00  0.00    +0.000 C 
ENDBRANCH  27  28
ENDBRANCH  25  27
ENDBRANCH   7  21
TORSDOF 4
ENDMDL
MODEL 3
REMARK VINA RESULT:      -8.9      0.681      1.009
REMARK  Name = 
REMARK  4 active torsions:
REMARK  status: ('A' for Active; 'I' for Inactive)
REMARK    1  A    between atoms: C_6  and  C_7
REMARK    2  A    between atoms: C_13  and  C_14
REMARK    3  A    between atoms: C_18  and  C_19
REMARK    4  A    between atoms: C_19  and  N_20
REMARK                            x       y       z     vdW  Elec       q    Type
REMARK                         _______ _______ _______ _____ _____    ______ ____
ROOT
ATOM      1  C   UNL     1       4.470   3.855  18.067  0.00  0.00    +0.000 A 
ATOM      2  N   UNL     1       4.418   2.650  18.645  0.00  0.00    +0.000 NA
ATOM      3  N   UNL     1       3.696   2.875  19.761  0.00  0.00    +0.000 N 
ATOM      4  C   UNL     1       3.159   4.133  19.840  0.00  0.00    +0.000 A 
ATOM      5  C   UNL     1       2.299   4.728  20.763  0.00  0.00    +0.000 A 
ATOM      6  C   UNL     1       1.902   6.048  20.498  0.00  0.00    +0.000 A 
ATOM      7  C   UNL     1       2.354   6.769  19.377  0.00  0.00    +0.000 A 
ATOM      8  C   UNL     1       3.247   6.132  18.500  0.00  0.00    +0.000 A 
ATOM      9  C   UNL     1       3.656   4.804  18.732  0.00  0.00    +0.000 A 
ATOM     10  H   UNL     1       3.579   2.115  20.422  0.00  0.00    +0.000 HD
ENDROOT
BRANCH   1  16
ATOM     11  C   UNL     1       7.015   4.421  12.663  0.00  0.00    +0.000 A 
ATOM     12  C   UNL     1       7.844   5.268  13.389  0.00  0.00    +0.000 A 
ATOM     13  N   UNL     1       7.737   5.528  14.706  0.00  0.00    +0.000 NA
ATOM     14  C   UNL     1       6.733   4.868  15.329  0.00  0.00    +0.000 A 
ATOM     15  C   UNL     1       6.332   4.946  16.679  0.00  0.00    +0.000 A 
ATOM     16  C   UNL     1       5.263   4.091  16.839  0.00  0.00    +0.000 A 
ATOM     17  N   UNL     1       5.040   3.461  15.641  0.00  0.00    +0.000 N 
ATOM     18  C   UNL     1       5.883   3.972  14.682  0.00  0.00    +0.000 A 
ATOM     19  C   UNL     1       5.990   3.738  13.314  0.00  0.00    +0.000 A 
ATOM     20  H   UNL     1       4.304   2.784  15.492  0.00  0.00    +0.000 HD
ENDBRANCH   1  16
BRANCH   7  21
ATOM     21  C   UNL     1       1.946   8.163  19.137  0.00  0.00    +0.000 A 
ATOM     22  C   UNL     1       2.207   8.841  17.940  0.00  0.00    +0.000 A 
ATOM     23  N   UNL     1       1.895  10.137  17.697  0.00  0.00    +0.000 NA
ATOM     24  C   UNL     1       1.283  10.810  18.692  0.00  0.00    +0.000 A 
ATOM     25  C   UNL     1       0.958  10.246  19.919  0.00  0.00    +0.000 A 
ATOM     26  C   UNL     1       1.297   8.904  20.124  0.00  0.00    +0.000 A 
BRANCH  25  27
ATOM     27  C   UNL     1       0.244  11.025  20.989  0.00  0.00    +0.000 C 
BRANCH  27  28
ATOM     28  N   UNL     1      -0.455  12.228  20.486  0.00  0.00    +0.000 NA
ATOM     29  C   UNL     1      -1.901  12.139  20.757  0.00  0.00    +0.000 C 
ATOM     30  C   UNL     1      -2.661  13.432  20.466  0.00  0.00    +0.000 C 
ATOM     31  C   UNL     1      -2.032  14.608  21.197  0.00  0.00    +0.000 C 
ATOM     32  C   UNL     1      -0.572  14.721  20.789  0.00  0.00    +0.000 C 
ATOM     33  C   UNL     1       0.174  13.418  21.078  0.00  0.00    +0.000 C 
ENDBRANCH  27  28
ENDBRANCH  25  27
ENDBRANCH   7  21
TORSDOF 4
ENDMDL
MODEL 4
REMARK VINA RESULT:      -8.6      1.068      1.525
REMARK  Name = 
REMARK  4 active torsions:
REMARK  status: ('A' for Active; 'I' for Inactive)
REMARK    1  A    between atoms: C_6  and  C_7
REMARK    2  A    between atoms: C_13  and  C_14
REMARK    3  A    between atoms: C_18  and  C_19
REMARK    4  A    between atoms: C_19  and  N_20
REMARK                            x       y       z     vdW  Elec       q    Type
REMARK                         _______ _______ _______ _____ _____    ______ ____
ROOT
ATOM      1  C   UNL     1       4.517   3.992  17.995  0.00  0.00    +0.000 A 
ATOM      2  N   UNL     1       4.484   2.815  18.629  0.00  0.00    +0.000 NA
ATOM      3  N   UNL     1       3.766   3.084  19.738  0.00  0.00    +0.000 N 
ATOM      4  C   UNL     1       3.213   4.337  19.760  0.00  0.00    +0.000 A 
ATOM      5  C   UNL     1       2.351   4.964  20.660  0.00  0.00    +0.000 A 
ATOM      6  C   UNL     1       1.935   6.265  20.336  0.00  0.00    +0.000 A 
ATOM      7  C   UNL     1       2.371   6.938  19.179  0.00  0.00    +0.000 A 
ATOM      8  C   UNL     1       3.267   6.271  18.328  0.00  0.00    +0.000 A 
ATOM      9  C   UNL     1       3.694   4.961  18.620  0.00  0.00    +0.000 A 
ATOM     10  H   UNL     1       3.663   2.354  20.434  0.00  0.00    +0.000 HD
ENDROOT
BRANCH   1  16
ATOM     11  C   UNL     1       7.009   4.359  12.549  0.00  0.00    +0.000 A 
ATOM     12  C   UNL     1       7.858   5.216  13.240  0.00  0.00    +0.000 A 
ATOM     13  N   UNL     1       7.770   5.516  14.551  0.00  0.00    +0.000 NA
ATOM     14  C   UNL     1       6.764   4.889  15.204  0.00  0.00    +0.000 A 
ATOM     15  C   UNL     1       6.379   5.014  16.555  0.00  0.00    +0.000 A 
ATOM     16  C   UNL     1       5.299   4.180  16.751  0.00  0.00    +0.000 A 
ATOM     17  N   UNL     1       5.054   3.518  15.575  0.00  0.00    +0.000 N 
ATOM     18  C   UNL     1       5.894   3.988  14.593  0.00  0.00    +0.000 A 
ATOM     19  C   UNL     1       5.982   3.711  13.231  0.00  0.00    +0.000 A 
ATOM     20  H   UNL     1       4.307   2.848  15.455  0.00  0.00    +0.000 HD
ENDBRANCH   1  16
BRANCH   7  21
ATOM     21  C   UNL     1       1.943   8.314  18.876  0.00  0.00    +0.000 A 
ATOM     22  C   UNL     1       2.595   9.129  17.943  0.00  0.00    +0.000 A 
ATOM     23  N   UNL     1       2.267  10.415  17.672  0.00  0.00    +0.000 NA
ATOM     24  C   UNL     1       1.228  10.933  18.358  0.00  0.00    +0.000 A 
ATOM     25  C   UNL     1       0.493  10.223  19.298  0.00  0.00    +0.000 A 
ATOM     26  C   UNL     1       0.867   8.897  19.543  0.00  0.00    +0.000 A 
BRANCH  25  27
ATOM     27  C   UNL     1      -0.680  10.830  20.015  0.00  0.00    +0.000 C 
BRANCH  27  28
ATOM     28  N   UNL     1      -0.302  11.684  21.163  0.00  0.00    +0.000 NA
ATOM     29  C   UNL     1       0.175  12.999  20.697  0.00  0.00    +0.000 C 
ATOM     30  C   UNL     1       0.379  14.012  21.822  0.00  0.00    +0.000 C 
ATOM     31  C   UNL     1      -0.880  14.147  22.665  0.00  0.00    +0.000 C 
ATOM     32  C   UNL     1      -1.257  12.780  23.214  0.00  0.00    +0.000 C 
ATOM     33  C   UNL     1      -1.449  11.775  22.079  0.00  0.00    +0.000 C 
ENDBRANCH  27  28
ENDBRANCH  25  27
ENDBRANCH   7  21
TORSDOF 4
ENDMDL
MODEL 5
REMARK VINA RESULT:      -8.6      3.251     10.247
REMARK  Name = 
REMARK  4 active torsions:
REMARK  status: ('A' for Active; 'I' for Inactive)
REMARK    1  A    between atoms: C_6  and  C_7
REMARK    2  A    between atoms: C_13  and  C_14
REMARK    3  A    between atoms: C_18  and  C_19
REMARK    4  A    between atoms: C_19  and  N_20
REMARK                            x       y       z     vdW  Elec       q    Type
REMARK                         _______ _______ _______ _____ _____    ______ ____
ROOT
ATOM      1  C   UNL     1      -0.751  13.526  21.761  0.00  0.00    +0.000 A 
ATOM      2  N   UNL     1      -1.340  13.781  22.936  0.00  0.00    +0.000 NA
ATOM      3  N   UNL     1      -1.517  12.553  23.463  0.00  0.00    +0.000 N 
ATOM      4  C   UNL     1      -0.930  11.543  22.747  0.00  0.00    +0.000 A 
ATOM      5  C   UNL     1      -0.805  10.175  22.988  0.00  0.00    +0.000 A 
ATOM      6  C   UNL     1      -0.078   9.430  22.046  0.00  0.00    +0.000 A 
ATOM      7  C   UNL     1       0.486  10.006  20.891  0.00  0.00    +0.000 A 
ATOM      8  C   UNL     1       0.298  11.382  20.682  0.00  0.00    +0.000 A 
ATOM      9  C   UNL     1      -0.417  12.158  21.615  0.00  0.00    +0.000 A 
ATOM     10  H   UNL     1      -2.024  12.472  24.337  0.00  0.00    +0.000 HD
ENDROOT
BRANCH   1  16
ATOM     11  C   UNL     1       1.244  17.552  17.784  0.00  0.00    +0.000 A 
ATOM     12  C   UNL     1      -0.116  17.829  17.717  0.00  0.00    +0.000 A 
ATOM     13  N   UNL     1      -1.078  17.208  18.429  0.00  0.00    +0.000 NA
ATOM     14  C   UNL     1      -0.623  16.257  19.277  0.00  0.00    +0.000 A 
ATOM     15  C   UNL     1      -1.362  15.406  20.125  0.00  0.00    +0.000 A 
ATOM     16  C   UNL     1      -0.459  14.607  20.792  0.00  0.00    +0.000 A 
ATOM     17  N   UNL     1       0.804  14.985  20.412  0.00  0.00    +0.000 N 
ATOM     18  C   UNL     1       0.728  15.946  19.432  0.00  0.00    +0.000 A 
ATOM     19  C   UNL     1       1.705  16.578  18.667  0.00  0.00    +0.000 A 
ATOM     20  H   UNL     1       1.648  14.547  20.758  0.00  0.00    +0.000 HD
ENDBRANCH   1  16
BRANCH   7  21
ATOM     21  C   UNL     1       1.219   9.198  19.902  0.00  0.00    +0.000 A 
ATOM     22  C   UNL     1       1.396   9.595  18.571  0.00  0.00    +0.000 A 
ATOM     23  N   UNL     1       2.018   8.860  17.618  0.00  0.00    +0.000 NA
ATOM     24  C   UNL     1       2.501   7.659  17.997  0.00  0.00    +0.000 A 
ATOM     25  C   UNL     1       2.402   7.160  19.289  0.00  0.00    +0.000 A 
ATOM     26  C   UNL     1       1.754   7.955  20.241  0.00  0.00    +0.000 A 
BRANCH  25  27
ATOM     27  C   UNL     1       2.986   5.831  19.676  0.00  0.00    +0.000 C 
BRANCH  27  28
ATOM     28  N   UNL     1       2.544   4.710  18.816  0.00  0.00    +0.000 NA
ATOM     29  C   UNL     1       3.679   3.827  18.491  0.00  0.00    +0.000 C 
ATOM     30  C   UNL     1       3.268   2.533  17.790  0.00  0.00    +0.000 C 
ATOM     31  C   UNL     1       2.204   1.797  18.589  0.00  0.00    +0.000 C 
ATOM     32  C   UNL     1       1.012   2.718  18.793  0.00  0.00    +0.000 C 
ATOM     33  C   UNL     1       1.439   4.012  19.487  0.00  0.00    +0.000 C 
ENDBRANCH  27  28
ENDBRANCH  25  27
ENDBRANCH   7  21
TORSDOF 4
ENDMDL
MODEL 6
REMARK VINA RESULT:      -8.5      3.724     10.401
REMARK  Name = 
REMARK  4 active torsions:
REMARK  status: ('A' for Active; 'I' for Inactive)
REMARK    1  A    between atoms: C_6  and  C_7
REMARK    2  A    between atoms: C_13  and  C_14
REMARK    3  A    between atoms: C_18  and  C_19
REMARK    4  A    between atoms: C_19  and  N_20
REMARK                            x       y       z     vdW  Elec       q    Type
REMARK                         _______ _______ _______ _____ _____    ______ ____
ROOT
ATOM      1  C   UNL     1      -1.234  13.387  21.892  0.00  0.00    +0.000 A 
ATOM      2  N   UNL     1      -1.766  13.535  23.111  0.00  0.00    +0.000 NA
ATOM      3  N   UNL     1      -1.737  12.285  23.613  0.00  0.00    +0.000 N 
ATOM      4  C   UNL     1      -1.071  11.379  22.830  0.00  0.00    +0.000 A 
ATOM      5  C   UNL     1      -0.745  10.037  23.022  0.00  0.00    +0.000 A 
ATOM      6  C   UNL     1       0.008   9.417  22.011  0.00  0.00    +0.000 A 
ATOM      7  C   UNL     1       0.405  10.087  20.838  0.00  0.00    +0.000 A 
ATOM      8  C   UNL     1       0.017  11.428  20.682  0.00  0.00    +0.000 A 
ATOM      9  C   UNL     1      -0.728  12.081  21.684  0.00  0.00    +0.000 A 
ATOM     10  H   UNL     1      -2.165  12.118  24.516  0.00  0.00    +0.000 HD
ENDROOT
BRANCH   1  16
ATOM     11  C   UNL     1      -1.615  18.303  18.473  0.00  0.00    +0.000 A 
ATOM     12  C   UNL     1      -0.384  17.825  18.039  0.00  0.00    +0.000 A 
ATOM     13  N   UNL     1       0.220  16.704  18.478  0.00  0.00    +0.000 NA
ATOM     14  C   UNL     1      -0.484  16.014  19.406  0.00  0.00    +0.000 A 
ATOM     15  C   UNL     1      -0.121  14.835  20.090  0.00  0.00    +0.000 A 
ATOM     16  C   UNL     1      -1.161  14.516  20.937  0.00  0.00    +0.000 A 
ATOM     17  N   UNL     1      -2.160  15.436  20.747  0.00  0.00    +0.000 N 
ATOM     18  C   UNL     1      -1.741  16.405  19.866  0.00  0.00    +0.000 A 
ATOM     19  C   UNL     1      -2.337  17.582  19.421  0.00  0.00    +0.000 A 
ATOM     20  H   UNL     1      -3.035  15.426  21.255  0.00  0.00    +0.000 HD
ENDBRANCH   1  16
BRANCH   7  21
ATOM     21  C   UNL     1       1.168   9.407  19.779  0.00  0.00    +0.000 A 
ATOM     22  C   UNL     1       1.374   9.961  18.510  0.00  0.00    +0.000 A 
ATOM     23  N   UNL     1       2.025   9.348  17.491  0.00  0.00    +0.000 NA
ATOM     24  C   UNL     1       2.509   8.114  17.737  0.00  0.00    +0.000 A 
ATOM     25  C   UNL     1       2.383   7.464  18.958  0.00  0.00    +0.000 A 
ATOM     26  C   UNL     1       1.705   8.136  19.981  0.00  0.00    +0.000 A 
BRANCH  25  27
ATOM     27  C   UNL     1       2.970   6.101  19.198  0.00  0.00    +0.000 C 
BRANCH  27  28
ATOM     28  N   UNL     1       1.972   5.082  19.592  0.00  0.00    +0.000 NA
ATOM     29  C   UNL     1       1.835   4.058  18.541  0.00  0.00    +0.000 C 
ATOM     30  C   UNL     1       0.988   2.857  18.960  0.00  0.00    +0.000 C 
ATOM     31  C   UNL     1       1.506   2.254  20.257  0.00  0.00    +0.000 C 
ATOM     32  C   UNL     1       1.515   3.328  21.333  0.00  0.00    +0.000 C 
ATOM     33  C   UNL     1       2.358   4.526  20.897  0.00  0.00    +0.000 C 
ENDBRANCH  27  28
ENDBRANCH  25  27
ENDBRANCH   7  21
TORSDOF 4
ENDMDL
MODEL 7
REMARK VINA RESULT:      -8.5      1.368      2.005
REMARK  Name = 
REMARK  4 active torsions:
REMARK  status: ('A' for Active; 'I' for Inactive)
REMARK    1  A    between atoms: C_6  and  C_7
REMARK    2  A    between atoms: C_13  and  C_14
REMARK    3  A    between atoms: C_18  and  C_19
REMARK    4  A    between atoms: C_19  and  N_20
REMARK                            x       y       z     vdW  Elec       q    Type
REMARK                         _______ _______ _______ _____ _____    ______ ____
ROOT
ATOM      1  C   UNL     1       4.385   3.996  18.225  0.00  0.00    +0.000 A 
ATOM      2  N   UNL     1       4.337   2.816  18.854  0.00  0.00    +0.000 NA
ATOM      3  N   UNL     1       3.613   3.087  19.959  0.00  0.00    +0.000 N 
ATOM      4  C   UNL     1       3.071   4.345  19.982  0.00  0.00    +0.000 A 
ATOM      5  C   UNL     1       2.208   4.977  20.878  0.00  0.00    +0.000 A 
ATOM      6  C   UNL     1       1.807   6.283  20.556  0.00  0.00    +0.000 A 
ATOM      7  C   UNL     1       2.258   6.957  19.405  0.00  0.00    +0.000 A 
ATOM      8  C   UNL     1       3.155   6.285  18.557  0.00  0.00    +0.000 A 
ATOM      9  C   UNL     1       3.567   4.970  18.848  0.00  0.00    +0.000 A 
ATOM     10  H   UNL     1       3.498   2.356  20.652  0.00  0.00    +0.000 HD
ENDROOT
BRANCH   1  16
ATOM     11  C   UNL     1       6.916   4.376  12.798  0.00  0.00    +0.000 A 
ATOM     12  C   UNL     1       7.782   5.202  13.505  0.00  0.00    +0.000 A 
ATOM     13  N   UNL     1       7.695   5.486  14.819  0.00  0.00    +0.000 NA
ATOM     14  C   UNL     1       6.670   4.875  15.458  0.00  0.00    +0.000 A 
ATOM     15  C   UNL     1       6.280   4.991  16.809  0.00  0.00    +0.000 A 
ATOM     16  C   UNL     1       5.179   4.181  16.988  0.00  0.00    +0.000 A 
ATOM     17  N   UNL     1       4.924   3.542  15.802  0.00  0.00    +0.000 N 
ATOM     18  C   UNL     1       5.781   4.004  14.830  0.00  0.00    +0.000 A 
ATOM     19  C   UNL     1       5.869   3.745  13.466  0.00  0.00    +0.000 A 
ATOM     20  H   UNL     1       4.161   2.892  15.668  0.00  0.00    +0.000 HD
ENDBRANCH   1  16
BRANCH   7  21
ATOM     21  C   UNL     1       1.846   8.337  19.104  0.00  0.00    +0.000 A 
ATOM     22  C   UNL     1       2.186   8.995  17.916  0.00  0.00    +0.000 A 
ATOM     23  N   UNL     1       1.871  10.280  17.622  0.00  0.00    +0.000 NA
ATOM     24  C   UNL     1       1.173  10.962  18.553  0.00  0.00    +0.000 A 
ATOM     25  C   UNL     1       0.765  10.417  19.764  0.00  0.00    +0.000 A 
ATOM     26  C   UNL     1       1.110   9.086  20.022  0.00  0.00    +0.000 A 
BRANCH  25  27
ATOM     27  C   UNL     1      -0.043  11.203  20.758  0.00  0.00    +0.000 C 
BRANCH  27  28
ATOM     28  N   UNL     1       0.711  12.301  21.405  0.00  0.00    +0.000 NA
ATOM     29  C   UNL     1       1.844  12.720  20.561  0.00  0.00    +0.000 C 
ATOM     30  C   UNL     1       2.540  13.988  21.052  0.00  0.00    +0.000 C 
ATOM     31  C   UNL     1       1.540  15.119  21.238  0.00  0.00    +0.000 C 
ATOM     32  C   UNL     1       0.459  14.669  22.208  0.00  0.00    +0.000 C 
ATOM     33  C   UNL     1      -0.223  13.395  21.708  0.00  0.00    +0.000 C 
ENDBRANCH  27  28
ENDBRANCH  25  27
ENDBRANCH   7  21
TORSDOF 4
ENDMDL
MODEL 8
REMARK VINA RESULT:      -8.4      3.191     11.837
REMARK  Name = 
REMARK  4 active torsions:
REMARK  status: ('A' for Active; 'I' for Inactive)
REMARK    1  A    between atoms: C_6  and  C_7
REMARK    2  A    between atoms: C_13  and  C_14
REMARK    3  A    between atoms: C_18  and  C_19
REMARK    4  A    between atoms: C_19  and  N_20
REMARK                            x       y       z     vdW  Elec       q    Type
REMARK                         _______ _______ _______ _____ _____    ______ ____
ROOT
ATOM      1  C   UNL     1      -5.507  12.008  18.453  0.00  0.00    +0.000 A 
ATOM      2  N   UNL     1      -6.376  12.146  17.445  0.00  0.00    +0.000 NA
ATOM      3  N   UNL     1      -5.635  11.848  16.358  0.00  0.00    +0.000 N 
ATOM      4  C   UNL     1      -4.381  11.378  16.644  0.00  0.00    +0.000 A 
ATOM      5  C   UNL     1      -3.358  10.887  15.833  0.00  0.00    +0.000 A 
ATOM      6  C   UNL     1      -2.198  10.432  16.482  0.00  0.00    +0.000 A 
ATOM      7  C   UNL     1      -2.039  10.483  17.880  0.00  0.00    +0.000 A 
ATOM      8  C   UNL     1      -3.087  11.021  18.644  0.00  0.00    +0.000 A 
ATOM      9  C   UNL     1      -4.268  11.474  18.023  0.00  0.00    +0.000 A 
ATOM     10  H   UNL     1      -6.057  11.956  15.443  0.00  0.00    +0.000 HD
ENDROOT
BRANCH   1  16
ATOM     11  C   UNL     1      -6.697  14.152  23.929  0.00  0.00    +0.000 A 
ATOM     12  C   UNL     1      -7.433  12.974  23.987  0.00  0.00    +0.000 A 
ATOM     13  N   UNL     1      -7.528  12.061  23.000  0.00  0.00    +0.000 NA
ATOM     14  C   UNL     1      -6.813  12.358  21.890  0.00  0.00    +0.000 A 
ATOM     15  C   UNL     1      -6.730  11.640  20.679  0.00  0.00    +0.000 A 
ATOM     16  C   UNL     1      -5.880  12.338  19.847  0.00  0.00    +0.000 A 
ATOM     17  N   UNL     1      -5.408  13.426  20.538  0.00  0.00    +0.000 N 
ATOM     18  C   UNL     1      -6.020  13.498  21.767  0.00  0.00    +0.000 A 
ATOM     19  C   UNL     1      -5.956  14.444  22.786  0.00  0.00    +0.000 A 
ATOM     20  H   UNL     1      -4.768  14.103  20.146  0.00  0.00    +0.000 HD
ENDBRANCH   1  16
BRANCH   7  21
ATOM     21  C   UNL     1      -0.801  10.027  18.534  0.00  0.00    +0.000 A 
ATOM     22  C   UNL     1      -0.584  10.130  19.913  0.00  0.00    +0.000 A 
ATOM     23  N   UNL     1       0.558   9.771  20.549  0.00  0.00    +0.000 NA
ATOM     24  C   UNL     1       1.549   9.276  19.780  0.00  0.00    +0.000 A 
ATOM     25  C   UNL     1       1.451   9.112  18.405  0.00  0.00    +0.000 A 
ATOM     26  C   UNL     1       0.252   9.493  17.793  0.00  0.00    +0.000 A 
BRANCH  25  27
ATOM     27  C   UNL     1       2.569   8.522  17.591  0.00  0.00    +0.000 C 
BRANCH  27  28
ATOM     28  N   UNL     1       3.113   7.263  18.147  0.00  0.00    +0.000 NA
ATOM     29  C   UNL     1       2.100   6.194  18.097  0.00  0.00    +0.000 C 
ATOM     30  C   UNL     1       2.648   4.812  18.449  0.00  0.00    +0.000 C 
ATOM     31  C   UNL     1       3.855   4.471  17.590  0.00  0.00    +0.000 C 
ATOM     32  C   UNL     1       4.912   5.549  17.771  0.00  0.00    +0.000 C 
ATOM     33  C   UNL     1       4.348   6.926  17.424  0.00  0.00    +0.000 C 
ENDBRANCH  27  28
ENDBRANCH  25  27
ENDBRANCH   7  21
TORSDOF 4
ENDMDL
MODEL 9
REMARK VINA RESULT:      -8.4      3.873      9.746
REMARK  Name = 
REMARK  4 active torsions:
REMARK  status: ('A' for Active; 'I' for Inactive)
REMARK    1  A    between atoms: C_6  and  C_7
REMARK    2  A    between atoms: C_13  and  C_14
REMARK    3  A    between atoms: C_18  and  C_19
REMARK    4  A    between atoms: C_19  and  N_20
REMARK                            x       y       z     vdW  Elec       q    Type
REMARK                         _______ _______ _______ _____ _____    ______ ____
ROOT
ATOM      1  C   UNL     1       1.411  14.501  18.631  0.00  0.00    +0.000 A 
ATOM      2  N   UNL     1       0.399  15.375  18.666  0.00  0.00    +0.000 NA
ATOM      3  N   UNL     1      -0.691  14.586  18.577  0.00  0.00    +0.000 N 
ATOM      4  C   UNL     1      -0.421  13.245  18.642  0.00  0.00    +0.000 A 
ATOM      5  C   UNL     1      -1.250  12.124  18.675  0.00  0.00    +0.000 A 
ATOM      6  C   UNL     1      -0.621  10.874  18.800  0.00  0.00    +0.000 A 
ATOM      7  C   UNL     1       0.778  10.729  18.865  0.00  0.00    +0.000 A 
ATOM      8  C   UNL     1       1.565  11.890  18.791  0.00  0.00    +0.000 A 
ATOM      9  C   UNL     1       0.963  13.159  18.677  0.00  0.00    +0.000 A 
ATOM     10  H   UNL     1      -1.601  15.027  18.505  0.00  0.00    +0.000 HD
ENDROOT
BRANCH   1  16
ATOM     11  C   UNL     1       7.268  15.640  17.990  0.00  0.00    +0.000 A 
ATOM     12  C   UNL     1       6.873  16.832  18.586  0.00  0.00    +0.000 A 
ATOM     13  N   UNL     1       5.618  17.139  18.970  0.00  0.00    +0.000 NA
ATOM     14  C   UNL     1       4.710  16.160  18.749  0.00  0.00    +0.000 A 
ATOM     15  C   UNL     1       3.321  16.176  18.996  0.00  0.00    +0.000 A 
ATOM     16  C   UNL     1       2.822  14.952  18.606  0.00  0.00    +0.000 A 
ATOM     17  N   UNL     1       3.873  14.180  18.181  0.00  0.00    +0.000 N 
ATOM     18  C   UNL     1       5.031  14.923  18.193  0.00  0.00    +0.000 A 
ATOM     19  C   UNL     1       6.327  14.635  17.776  0.00  0.00    +0.000 A 
ATOM     20  H   UNL     1       3.771  13.235  17.837  0.00  0.00    +0.000 HD
ENDBRANCH   1  16
BRANCH   7  21
ATOM     21  C   UNL     1       1.415   9.406  18.965  0.00  0.00    +0.000 A 
ATOM     22  C   UNL     1       1.289   8.581  20.089  0.00  0.00    +0.000 A 
ATOM     23  N   UNL     1       1.899   7.381  20.245  0.00  0.00    +0.000 NA
ATOM     24  C   UNL     1       2.680   6.962  19.228  0.00  0.00    +0.000 A 
ATOM     25  C   UNL     1       2.873   7.682  18.056  0.00  0.00    +0.000 A 
ATOM     26  C   UNL     1       2.221   8.914  17.940  0.00  0.00    +0.000 A 
BRANCH  25  27
ATOM     27  C   UNL     1       3.726   7.160  16.933  0.00  0.00    +0.000 C 
BRANCH  27  28
ATOM     28  N   UNL     1       4.792   6.233  17.374  0.00  0.00    +0.000 NA
ATOM     29  C   UNL     1       4.723   4.968  16.620  0.00  0.00    +0.000 C 
ATOM     30  C   UNL     1       5.917   4.045  16.859  0.00  0.00    +0.000 C 
ATOM     31  C   UNL     1       7.227   4.773  16.601  0.00  0.00    +0.000 C 
ATOM     32  C   UNL     1       7.292   6.005  17.490  0.00  0.00    +0.000 C 
ATOM     33  C   UNL     1       6.088   6.914  17.246  0.00  0.00    +0.000 C 
ENDBRANCH  27  28
ENDBRANCH  25  27
ENDBRANCH   7  21
TORSDOF 4
ENDMDL
