MODEL 1
REMARK VINA RESULT:      -9.0      0.000      0.000
REMARK  Name = 
REMARK  11 active torsions:
REMARK  status: ('A' for Active; 'I' for Inactive)
REMARK    1  A    between atoms: C_1  and  C_2
REMARK    2  A    between atoms: C_4  and  C_5
REMARK    3  A    between atoms: C_7  and  C_8
REMARK    4  A    between atoms: C_8  and  O_9
REMARK    5  A    between atoms: O_9  and  C_10
REMARK    6  A    between atoms: C_10  and  C_12
REMARK    7  A    between atoms: C_14  and  N_15
REMARK    8  A    between atoms: C_16  and  C_17
REMARK    9  A    between atoms: C_19  and  O_20
REMARK   10  A    between atoms: C_23  and  O_24
REMARK   11  A    between atoms: C_27  and  O_28
REMARK                            x       y       z     vdW  Elec       q    Type
REMARK                         _______ _______ _______ _____ _____    ______ ____
ROOT
ATOM      1  C   UNL     1       6.734   6.095  17.093  0.00  0.00    +0.000 A 
ATOM      2  C   UNL     1       7.134   7.445  17.123  0.00  0.00    +0.000 A 
ATOM      3  C   UNL     1       7.958   7.940  18.141  0.00  0.00    +0.000 A 
ATOM      4  C   UNL     1       8.406   7.042  19.119  0.00  0.00    +0.000 A 
ATOM      5  C   UNL     1       8.028   5.696  19.097  0.00  0.00    +0.000 A 
ATOM      6  C   UNL     1       7.197   5.223  18.085  0.00  0.00    +0.000 A 
ENDROOT
BRANCH   1   7
ATOM      7  C   UNL     1       5.857   5.664  15.973  0.00  0.00    +0.000 C 
ATOM      8  O   UNL     1       6.297   5.372  14.871  0.00  0.00    +0.000 OA
BRANCH   7   9
ATOM      9  O   UNL     1       4.550   5.751  16.317  0.00  0.00    +0.000 OA
BRANCH   9  10
ATOM     10  C   UNL     1       3.951   4.570  16.867  0.00  0.00    +0.000 C 
BRANCH  10  17
ATOM     11  C   UNL     1       2.316   2.970  21.349  0.00  0.00    +0.000 C 
ATOM     12  C   UNL     1       2.516   4.094  20.376  0.00  0.00    +0.000 A 
ATOM     13  C   UNL     1       2.104   5.396  20.684  0.00  0.00    +0.000 A 
ATOM     14  C   UNL     1       2.289   6.439  19.769  0.00  0.00    +0.000 A 
ATOM     15  C   UNL     1       1.847   7.835  20.102  0.00  0.00    +0.000 C 
ATOM     16  C   UNL     1       2.899   6.170  18.535  0.00  0.00    +0.000 A 
ATOM     17  C   UNL     1       3.320   4.871  18.207  0.00  0.00    +0.000 A 
ATOM     18  C   UNL     1       3.120   3.842  19.137  0.00  0.00    +0.000 A 
ENDBRANCH  10  17
ENDBRANCH   9  10
ENDBRANCH   7   9
ENDBRANCH   1   7
BRANCH   3  19
ATOM     19  N   UNL     1       8.353   9.293  18.087  0.00  0.00    +0.000 NA
ATOM     20  C   UNL     1       9.138   9.761  19.009  0.00  0.00    +0.000 C 
BRANCH  20  21
ATOM     21  C   UNL     1       9.639  11.154  19.007  0.00  0.00    +0.000 A 
ATOM     22  C   UNL     1       9.903  11.817  17.803  0.00  0.00    +0.000 A 
ATOM     23  C   UNL     1      10.408  13.115  17.838  0.00  0.00    +0.000 A 
ATOM     24  C   UNL     1      10.653  13.759  19.048  0.00  0.00    +0.000 A 
ATOM     25  C   UNL     1      10.382  13.106  20.249  0.00  0.00    +0.000 A 
ATOM     26  C   UNL     1       9.873  11.806  20.227  0.00  0.00    +0.000 A 
BRANCH  23  27
ATOM     27  O   UNL     1      10.685  13.805  16.694  0.00  0.00    +0.000 OA
ATOM     28  H   UNL     1      11.279  13.271  16.142  0.00  0.00    +0.000 HD
ENDBRANCH  23  27
BRANCH  26  29
ATOM     29  O   UNL     1       9.615  11.165  21.408  0.00  0.00    +0.000 OA
ATOM     30  H   UNL     1       9.783  10.214  21.295  0.00  0.00    +0.000 HD
ENDBRANCH  26  29
ENDBRANCH  20  21
ENDBRANCH   3  19
BRANCH   6  31
ATOM     31  O   UNL     1       6.882   3.894  18.055  0.00  0.00    +0.000 OA
ATOM     32  H   UNL     1       7.675   3.361  18.241  0.00  0.00    +0.000 HD
ENDBRANCH   6  31
TORSDOF 9
ENDMDL
MODEL 2
REMARK VINA RESULT:      -9.0      0.934      1.813
REMARK  Name = 
REMARK  11 active torsions:
REMARK  status: ('A' for Active; 'I' for Inactive)
REMARK    1  A    between atoms: C_1  and  C_2
REMARK    2  A    between atoms: C_4  and  C_5
REMARK    3  A    between atoms: C_7  and  C_8
REMARK    4  A    between atoms: C_8  and  O_9
REMARK    5  A    between atoms: O_9  and  C_10
REMARK    6  A    between atoms: C_10  and  C_12
REMARK    7  A    between atoms: C_14  and  N_15
REMARK    8  A    between atoms: C_16  and  C_17
REMARK    9  A    between atoms: C_19  and  O_20
REMARK   10  A    between atoms: C_23  and  O_24
REMARK   11  A    between atoms: C_27  and  O_28
REMARK                            x       y       z     vdW  Elec       q    Type
REMARK                         _______ _______ _______ _____ _____    ______ ____
ROOT
ATOM      1  C   UNL     1       7.181   6.113  16.889  0.00  0.00    +0.000 A 
ATOM      2  C   UNL     1       7.492   7.487  16.881  0.00  0.00    +0.000 A 
ATOM      3  C   UNL     1       8.045   8.117  18.002  0.00  0.00    +0.000 A 
ATOM      4  C   UNL     1       8.316   7.332  19.131  0.00  0.00    +0.000 A 
ATOM      5  C   UNL     1       8.025   5.964  19.151  0.00  0.00    +0.000 A 
ATOM      6  C   UNL     1       7.462   5.356  18.032  0.00  0.00    +0.000 A 
ENDROOT
BRANCH   1   7
ATOM      7  C   UNL     1       6.595   5.535  15.652  0.00  0.00    +0.000 C 
ATOM      8  O   UNL     1       7.269   5.278  14.666  0.00  0.00    +0.000 OA
BRANCH   7   9
ATOM      9  O   UNL     1       5.247   5.449  15.746  0.00  0.00    +0.000 OA
BRANCH   9  10
ATOM     10  C   UNL     1       4.708   4.170  16.103  0.00  0.00    +0.000 C 
BRANCH  10  17
ATOM     11  C   UNL     1       2.437   6.969  19.615  0.00  0.00    +0.000 C 
ATOM     12  C   UNL     1       2.537   5.674  18.864  0.00  0.00    +0.000 A 
ATOM     13  C   UNL     1       1.670   4.611  19.143  0.00  0.00    +0.000 A 
ATOM     14  C   UNL     1       1.771   3.404  18.441  0.00  0.00    +0.000 A 
ATOM     15  C   UNL     1       0.840   2.266  18.741  0.00  0.00    +0.000 C 
ATOM     16  C   UNL     1       2.752   3.268  17.448  0.00  0.00    +0.000 A 
ATOM     17  C   UNL     1       3.631   4.323  17.153  0.00  0.00    +0.000 A 
ATOM     18  C   UNL     1       3.513   5.520  17.871  0.00  0.00    +0.000 A 
ENDBRANCH  10  17
ENDBRANCH   9  10
ENDBRANCH   7   9
ENDBRANCH   1   7
BRANCH   3  19
ATOM     19  N   UNL     1       8.369   9.487  17.912  0.00  0.00    +0.000 NA
ATOM     20  C   UNL     1       9.210   9.996  18.759  0.00  0.00    +0.000 C 
BRANCH  20  21
ATOM     21  C   UNL     1       9.642  11.412  18.711  0.00  0.00    +0.000 A 
ATOM     22  C   UNL     1      10.152  11.963  17.529  0.00  0.00    +0.000 A 
ATOM     23  C   UNL     1      10.583  13.288  17.529  0.00  0.00    +0.000 A 
ATOM     24  C   UNL     1      10.515  14.068  18.680  0.00  0.00    +0.000 A 
ATOM     25  C   UNL     1       9.998  13.525  19.856  0.00  0.00    +0.000 A 
ATOM     26  C   UNL     1       9.561  12.200  19.869  0.00  0.00    +0.000 A 
BRANCH  23  27
ATOM     27  O   UNL     1      11.091  13.874  16.406  0.00  0.00    +0.000 OA
ATOM     28  H   UNL     1      11.380  14.775  16.625  0.00  0.00    +0.000 HD
ENDBRANCH  23  27
BRANCH  26  29
ATOM     29  O   UNL     1       9.061  11.667  21.026  0.00  0.00    +0.000 OA
ATOM     30  H   UNL     1       9.773  11.197  21.492  0.00  0.00    +0.000 HD
ENDBRANCH  26  29
ENDBRANCH  20  21
ENDBRANCH   3  19
BRANCH   6  31
ATOM     31  O   UNL     1       7.234   4.010  18.056  0.00  0.00    +0.000 OA
ATOM     32  H   UNL     1       7.824   3.561  17.425  0.00  0.00    +0.000 HD
ENDBRANCH   6  31
TORSDOF 9
ENDMDL
MODEL 3
REMARK VINA RESULT:      -8.7      0.620      1.722
REMARK  Name = 
REMARK  11 active torsions:
REMARK  status: ('A' for Active; 'I' for Inactive)
REMARK    1  A    between atoms: C_1  and  C_2
REMARK    2  A    between atoms: C_4  and  C_5
REMARK    3  A    between atoms: C_7  and  C_8
REMARK    4  A    between atoms: C_8  and  O_9
REMARK    5  A    between atoms: O_9  and  C_10
REMARK    6  A    between atoms: C_10  and  C_12
REMARK    7  A    between atoms: C_14  and  N_15
REMARK    8  A    between atoms: C_16  and  C_17
REMARK    9  A    between atoms: C_19  and  O_20
REMARK   10  A    between atoms: C_23  and  O_24
REMARK   11  A    between atoms: C_27  and  O_28
REMARK                            x       y       z     vdW  Elec       q    Type
REMARK                         _______ _______ _______ _____ _____    ______ ____
ROOT
ATOM      1  C   UNL     1       6.517   6.103  17.354  0.00  0.00    +0.000 A 
ATOM      2  C   UNL     1       6.999   7.422  17.234  0.00  0.00    +0.000 A 
ATOM      3  C   UNL     1       7.940   7.940  18.131  0.00  0.00    +0.000 A 
ATOM      4  C   UNL     1       8.421   7.095  19.140  0.00  0.00    +0.000 A 
ATOM      5  C   UNL     1       7.962   5.780  19.266  0.00  0.00    +0.000 A 
ATOM      6  C   UNL     1       7.016   5.284  18.374  0.00  0.00    +0.000 A 
ENDROOT
BRANCH   1   7
ATOM      7  C   UNL     1       5.517   5.644  16.355  0.00  0.00    +0.000 C 
ATOM      8  O   UNL     1       5.176   6.333  15.405  0.00  0.00    +0.000 OA
BRANCH   7   9
ATOM      9  O   UNL     1       4.988   4.450  16.710  0.00  0.00    +0.000 OA
BRANCH   9  10
ATOM     10  C   UNL     1       3.558   4.364  16.739  0.00  0.00    +0.000 C 
BRANCH  10  17
ATOM     11  C   UNL     1       1.894   7.658  20.160  0.00  0.00    +0.000 C 
ATOM     12  C   UNL     1       2.243   6.246  19.794  0.00  0.00    +0.000 A 
ATOM     13  C   UNL     1       2.119   5.208  20.724  0.00  0.00    +0.000 A 
ATOM     14  C   UNL     1       2.450   3.893  20.376  0.00  0.00    +0.000 A 
ATOM     15  C   UNL     1       2.315   2.782  21.376  0.00  0.00    +0.000 C 
ATOM     16  C   UNL     1       2.907   3.621  19.079  0.00  0.00    +0.000 A 
ATOM     17  C   UNL     1       3.038   4.648  18.130  0.00  0.00    +0.000 A 
ATOM     18  C   UNL     1       2.704   5.957  18.503  0.00  0.00    +0.000 A 
ENDBRANCH  10  17
ENDBRANCH   9  10
ENDBRANCH   7   9
ENDBRANCH   1   7
BRANCH   3  19
ATOM     19  N   UNL     1       8.409   9.255  17.928  0.00  0.00    +0.000 NA
ATOM     20  C   UNL     1       9.190   9.792  18.814  0.00  0.00    +0.000 C 
BRANCH  20  21
ATOM     21  C   UNL     1       9.765  11.148  18.662  0.00  0.00    +0.000 A 
ATOM     22  C   UNL     1      10.469  11.500  17.503  0.00  0.00    +0.000 A 
ATOM     23  C   UNL     1      11.028  12.772  17.408  0.00  0.00    +0.000 A 
ATOM     24  C   UNL     1      10.898  13.694  18.443  0.00  0.00    +0.000 A 
ATOM     25  C   UNL     1      10.190  13.351  19.594  0.00  0.00    +0.000 A 
ATOM     26  C   UNL     1       9.623  12.081  19.700  0.00  0.00    +0.000 A 
BRANCH  23  27
ATOM     27  O   UNL     1      11.725  13.165  16.303  0.00  0.00    +0.000 OA
ATOM     28  H   UNL     1      11.987  14.094  16.412  0.00  0.00    +0.000 HD
ENDBRANCH  23  27
BRANCH  26  29
ATOM     29  O   UNL     1       8.935  11.744  20.834  0.00  0.00    +0.000 OA
ATOM     30  H   UNL     1       8.314  11.025  20.626  0.00  0.00    +0.000 HD
ENDBRANCH  26  29
ENDBRANCH  20  21
ENDBRANCH   3  19
BRANCH   6  31
ATOM     31  O   UNL     1       6.621   3.982  18.484  0.00  0.00    +0.000 OA
ATOM     32  H   UNL     1       6.246   3.675  17.639  0.00  0.00    +0.000 HD
ENDBRANCH   6  31
TORSDOF 9
ENDMDL
MODEL 4
REMARK VINA RESULT:      -8.4      5.024      7.540
REMARK  Name = 
REMARK  11 active torsions:
REMARK  status: ('A' for Active; 'I' for Inactive)
REMARK    1  A    between atoms: C_1  and  C_2
REMARK    2  A    between atoms: C_4  and  C_5
REMARK    3  A    between atoms: C_7  and  C_8
REMARK    4  A    between atoms: C_8  and  O_9
REMARK    5  A    between atoms: O_9  and  C_10
REMARK    6  A    between atoms: C_10  and  C_12
REMARK    7  A    between atoms: C_14  and  N_15
REMARK    8  A    between atoms: C_16  and  C_17
REMARK    9  A    between atoms: C_19  and  O_20
REMARK   10  A    between atoms: C_23  and  O_24
REMARK   11  A    between atoms: C_27  and  O_28
REMARK                            x       y       z     vdW  Elec       q    Type
REMARK                         _______ _______ _______ _____ _____    ______ ____
ROOT
ATOM      1  C   UNL     1       4.908   4.905  18.816  0.00  0.00    +0.000 A 
ATOM      2  C   UNL     1       4.150   6.090  18.726  0.00  0.00    +0.000 A 
ATOM      3  C   UNL     1       2.877   6.187  19.301  0.00  0.00    +0.000 A 
ATOM      4  C   UNL     1       2.386   5.079  20.004  0.00  0.00    +0.000 A 
ATOM      5  C   UNL     1       3.131   3.900  20.112  0.00  0.00    +0.000 A 
ATOM      6  C   UNL     1       4.389   3.815  19.524  0.00  0.00    +0.000 A 
ENDROOT
BRANCH   1   7
ATOM      7  C   UNL     1       6.247   4.897  18.172  0.00  0.00    +0.000 C 
ATOM      8  O   UNL     1       7.277   4.718  18.804  0.00  0.00    +0.000 OA
BRANCH   7   9
ATOM      9  O   UNL     1       6.158   5.216  16.859  0.00  0.00    +0.000 OA
BRANCH   9  10
ATOM     10  C   UNL     1       5.401   4.323  16.032  0.00  0.00    +0.000 C 
BRANCH  10  17
ATOM     11  C   UNL     1       5.410   2.353  11.401  0.00  0.00    +0.000 C 
ATOM     12  C   UNL     1       5.985   3.323  12.390  0.00  0.00    +0.000 A 
ATOM     13  C   UNL     1       7.049   4.163  12.041  0.00  0.00    +0.000 A 
ATOM     14  C   UNL     1       7.583   5.062  12.971  0.00  0.00    +0.000 A 
ATOM     15  C   UNL     1       8.724   5.963  12.594  0.00  0.00    +0.000 C 
ATOM     16  C   UNL     1       7.039   5.119  14.263  0.00  0.00    +0.000 A 
ATOM     17  C   UNL     1       5.971   4.285  14.632  0.00  0.00    +0.000 A 
ATOM     18  C   UNL     1       5.456   3.390  13.686  0.00  0.00    +0.000 A 
ENDBRANCH  10  17
ENDBRANCH   9  10
ENDBRANCH   7   9
ENDBRANCH   1   7
BRANCH   3  19
ATOM     19  N   UNL     1       2.190   7.416  19.208  0.00  0.00    +0.000 NA
ATOM     20  C   UNL     1       1.695   7.947  20.283  0.00  0.00    +0.000 C 
BRANCH  20  21
ATOM     21  C   UNL     1       0.999   9.254  20.286  0.00  0.00    +0.000 A 
ATOM     22  C   UNL     1       0.529   9.817  19.093  0.00  0.00    +0.000 A 
ATOM     23  C   UNL     1      -0.090  11.064  19.127  0.00  0.00    +0.000 A 
ATOM     24  C   UNL     1      -0.246  11.757  20.324  0.00  0.00    +0.000 A 
ATOM     25  C   UNL     1       0.211  11.196  21.516  0.00  0.00    +0.000 A 
ATOM     26  C   UNL     1       0.830   9.945  21.495  0.00  0.00    +0.000 A 
BRANCH  23  27
ATOM     27  O   UNL     1      -0.563  11.659  17.994  0.00  0.00    +0.000 OA
ATOM     28  H   UNL     1       0.182  12.060  17.516  0.00  0.00    +0.000 HD
ENDBRANCH  23  27
BRANCH  26  29
ATOM     29  O   UNL     1       1.285   9.400  22.665  0.00  0.00    +0.000 OA
ATOM     30  H   UNL     1       2.000   8.772  22.465  0.00  0.00    +0.000 HD
ENDBRANCH  26  29
ENDBRANCH  20  21
ENDBRANCH   3  19
BRANCH   6  31
ATOM     31  O   UNL     1       5.120   2.672  19.686  0.00  0.00    +0.000 OA
ATOM     32  H   UNL     1       4.992   2.321  20.586  0.00  0.00    +0.000 HD
ENDBRANCH   6  31
TORSDOF 9
ENDMDL
MODEL 5
REMARK VINA RESULT:      -8.4      5.364      7.912
REMARK  Name = 
REMARK  11 active torsions:
REMARK  status: ('A' for Active; 'I' for Inactive)
REMARK    1  A    between atoms: C_1  and  C_2
REMARK    2  A    between atoms: C_4  and  C_5
REMARK    3  A    between atoms: C_7  and  C_8
REMARK    4  A    between atoms: C_8  and  O_9
REMARK    5  A    between atoms: O_9  and  C_10
REMARK    6  A    between atoms: C_10  and  C_12
REMARK    7  A    between atoms: C_14  and  N_15
REMARK    8  A    between atoms: C_16  and  C_17
REMARK    9  A    between atoms: C_19  and  O_20
REMARK   10  A    between atoms: C_23  and  O_24
REMARK   11  A    between atoms: C_27  and  O_28
REMARK                            x       y       z     vdW  Elec       q    Type
REMARK                         _______ _______ _______ _____ _____    ______ ____
ROOT
ATOM      1  C   UNL     1       2.709   6.614  19.250  0.00  0.00    +0.000 A 
ATOM      2  C   UNL     1       3.358   6.570  18.000  0.00  0.00    +0.000 A 
ATOM      3  C   UNL     1       4.083   5.445  17.593  0.00  0.00    +0.000 A 
ATOM      4  C   UNL     1       4.119   4.338  18.453  0.00  0.00    +0.000 A 
ATOM      5  C   UNL     1       3.470   4.361  19.692  0.00  0.00    +0.000 A 
ATOM      6  C   UNL     1       2.765   5.494  20.088  0.00  0.00    +0.000 A 
ENDROOT
BRANCH   1   7
ATOM      7  C   UNL     1       1.967   7.855  19.595  0.00  0.00    +0.000 C 
ATOM      8  O   UNL     1       1.656   8.134  20.743  0.00  0.00    +0.000 OA
BRANCH   7   9
ATOM      9  O   UNL     1       1.609   8.533  18.479  0.00  0.00    +0.000 OA
BRANCH   9  10
ATOM     10  C   UNL     1       1.544   9.961  18.589  0.00  0.00    +0.000 C 
BRANCH  10  17
ATOM     11  C   UNL     1      -3.079   9.803  16.605  0.00  0.00    +0.000 C 
ATOM     12  C   UNL     1      -2.133  10.360  17.628  0.00  0.00    +0.000 A 
ATOM     13  C   UNL     1      -2.558  11.315  18.559  0.00  0.00    +0.000 A 
ATOM     14  C   UNL     1      -1.669  11.833  19.508  0.00  0.00    +0.000 A 
ATOM     15  C   UNL     1      -2.129  12.856  20.506  0.00  0.00    +0.000 C 
ATOM     16  C   UNL     1      -0.340  11.384  19.521  0.00  0.00    +0.000 A 
ATOM     17  C   UNL     1       0.106  10.426  18.596  0.00  0.00    +0.000 A 
ATOM     18  C   UNL     1      -0.802   9.925  17.653  0.00  0.00    +0.000 A 
ENDBRANCH  10  17
ENDBRANCH   9  10
ENDBRANCH   7   9
ENDBRANCH   1   7
BRANCH   3  19
ATOM     19  N   UNL     1       4.674   5.453  16.312  0.00  0.00    +0.000 NA
ATOM     20  C   UNL     1       5.286   4.389  15.890  0.00  0.00    +0.000 C 
BRANCH  20  21
ATOM     21  C   UNL     1       5.895   4.293  14.544  0.00  0.00    +0.000 A 
ATOM     22  C   UNL     1       5.327   3.476  13.559  0.00  0.00    +0.000 A 
ATOM     23  C   UNL     1       5.946   3.381  12.315  0.00  0.00    +0.000 A 
ATOM     24  C   UNL     1       7.116   4.083  12.038  0.00  0.00    +0.000 A 
ATOM     25  C   UNL     1       7.679   4.905  13.012  0.00  0.00    +0.000 A 
ATOM     26  C   UNL     1       7.067   5.011  14.262  0.00  0.00    +0.000 A 
BRANCH  23  27
ATOM     27  O   UNL     1       5.436   2.597  11.321  0.00  0.00    +0.000 OA
ATOM     28  H   UNL     1       4.473   2.718  11.290  0.00  0.00    +0.000 HD
ENDBRANCH  23  27
BRANCH  26  29
ATOM     29  O   UNL     1       7.626   5.813  15.219  0.00  0.00    +0.000 OA
ATOM     30  H   UNL     1       8.034   5.255  15.903  0.00  0.00    +0.000 HD
ENDBRANCH  26  29
ENDBRANCH  20  21
ENDBRANCH   3  19
BRANCH   6  31
ATOM     31  O   UNL     1       2.097   5.475  21.279  0.00  0.00    +0.000 OA
ATOM     32  H   UNL     1       1.994   4.557  21.587  0.00  0.00    +0.000 HD
ENDBRANCH   6  31
TORSDOF 9
ENDMDL
MODEL 6
REMARK VINA RESULT:      -8.3      1.384      2.137
REMARK  Name = 
REMARK  11 active torsions:
REMARK  status: ('A' for Active; 'I' for Inactive)
REMARK    1  A    between atoms: C_1  and  C_2
REMARK    2  A    between atoms: C_4  and  C_5
REMARK    3  A    between atoms: C_7  and  C_8
REMARK    4  A    between atoms: C_8  and  O_9
REMARK    5  A    between atoms: O_9  and  C_10
REMARK    6  A    between atoms: C_10  and  C_12
REMARK    7  A    between atoms: C_14  and  N_15
REMARK    8  A    between atoms: C_16  and  C_17
REMARK    9  A    between atoms: C_19  and  O_20
REMARK   10  A    between atoms: C_23  and  O_24
REMARK   11  A    between atoms: C_27  and  O_28
REMARK                            x       y       z     vdW  Elec       q    Type
REMARK                         _______ _______ _______ _____ _____    ______ ____
ROOT
ATOM      1  C   UNL     1       6.779   6.326  17.137  0.00  0.00    +0.000 A 
ATOM      2  C   UNL     1       7.089   7.694  16.999  0.00  0.00    +0.000 A 
ATOM      3  C   UNL     1       7.922   8.350  17.913  0.00  0.00    +0.000 A 
ATOM      4  C   UNL     1       8.474   7.597  18.959  0.00  0.00    +0.000 A 
ATOM      5  C   UNL     1       8.186   6.236  19.103  0.00  0.00    +0.000 A 
ATOM      6  C   UNL     1       7.345   5.601  18.193  0.00  0.00    +0.000 A 
ENDROOT
BRANCH   1   7
ATOM      7  C   UNL     1       5.884   5.719  16.119  0.00  0.00    +0.000 C 
ATOM      8  O   UNL     1       6.209   5.603  14.947  0.00  0.00    +0.000 OA
BRANCH   7   9
ATOM      9  O   UNL     1       4.671   5.433  16.646  0.00  0.00    +0.000 OA
BRANCH   9  10
ATOM     10  C   UNL     1       3.885   6.546  17.091  0.00  0.00    +0.000 C 
BRANCH  10  17
ATOM     11  C   UNL     1       1.244   7.974  21.129  0.00  0.00    +0.000 C 
ATOM     12  C   UNL     1       1.836   6.874  20.299  0.00  0.00    +0.000 A 
ATOM     13  C   UNL     1       1.698   5.533  20.676  0.00  0.00    +0.000 A 
ATOM     14  C   UNL     1       2.256   4.512  19.898  0.00  0.00    +0.000 A 
ATOM     15  C   UNL     1       2.105   3.074  20.304  0.00  0.00    +0.000 C 
ATOM     16  C   UNL     1       2.957   4.843  18.729  0.00  0.00    +0.000 A 
ATOM     17  C   UNL     1       3.106   6.182  18.334  0.00  0.00    +0.000 A 
ATOM     18  C   UNL     1       2.542   7.188  19.131  0.00  0.00    +0.000 A 
ENDBRANCH  10  17
ENDBRANCH   9  10
ENDBRANCH   7   9
ENDBRANCH   1   7
BRANCH   3  19
ATOM     19  N   UNL     1       8.222   9.710  17.692  0.00  0.00    +0.000 NA
ATOM     20  C   UNL     1       9.279  10.224  18.244  0.00  0.00    +0.000 C 
BRANCH  20  21
ATOM     21  C   UNL     1       9.695  11.628  18.030  0.00  0.00    +0.000 A 
ATOM     22  C   UNL     1       8.745  12.656  17.979  0.00  0.00    +0.000 A 
ATOM     23  C   UNL     1       9.168  13.961  17.741  0.00  0.00    +0.000 A 
ATOM     24  C   UNL     1      10.515  14.258  17.554  0.00  0.00    +0.000 A 
ATOM     25  C   UNL     1      11.466  13.240  17.614  0.00  0.00    +0.000 A 
ATOM     26  C   UNL     1      11.054  11.928  17.855  0.00  0.00    +0.000 A 
BRANCH  23  27
ATOM     27  O   UNL     1       8.284  14.998  17.678  0.00  0.00    +0.000 OA
ATOM     28  H   UNL     1       7.400  14.646  17.483  0.00  0.00    +0.000 HD
ENDBRANCH  23  27
BRANCH  26  29
ATOM     29  O   UNL     1      11.988  10.929  17.907  0.00  0.00    +0.000 OA
ATOM     30  H   UNL     1      11.822  10.380  18.692  0.00  0.00    +0.000 HD
ENDBRANCH  26  29
ENDBRANCH  20  21
ENDBRANCH   3  19
BRANCH   6  31
ATOM     31  O   UNL     1       7.119   4.261  18.324  0.00  0.00    +0.000 OA
ATOM     32  H   UNL     1       7.173   4.005  19.262  0.00  0.00    +0.000 HD
ENDBRANCH   6  31
TORSDOF 9
ENDMDL
MODEL 7
REMARK VINA RESULT:      -8.3      1.058      2.048
REMARK  Name = 
REMARK  11 active torsions:
REMARK  status: ('A' for Active; 'I' for Inactive)
REMARK    1  A    between atoms: C_1  and  C_2
REMARK    2  A    between atoms: C_4  and  C_5
REMARK    3  A    between atoms: C_7  and  C_8
REMARK    4  A    between atoms: C_8  and  O_9
REMARK    5  A    between atoms: O_9  and  C_10
REMARK    6  A    between atoms: C_10  and  C_12
REMARK    7  A    between atoms: C_14  and  N_15
REMARK    8  A    between atoms: C_16  and  C_17
REMARK    9  A    between atoms: C_19  and  O_20
REMARK   10  A    between atoms: C_23  and  O_24
REMARK   11  A    between atoms: C_27  and  O_28
REMARK                            x       y       z     vdW  Elec       q    Type
REMARK                         _______ _______ _______ _____ _____    ______ ____
ROOT
ATOM      1  C   UNL     1       6.202   6.328  17.178  0.00  0.00    +0.000 A 
ATOM      2  C   UNL     1       6.980   7.439  17.562  0.00  0.00    +0.000 A 
ATOM      3  C   UNL     1       8.034   7.312  18.474  0.00  0.00    +0.000 A 
ATOM      4  C   UNL     1       8.322   6.034  18.973  0.00  0.00    +0.000 A 
ATOM      5  C   UNL     1       7.567   4.920  18.593  0.00  0.00    +0.000 A 
ATOM      6  C   UNL     1       6.513   5.065  17.695  0.00  0.00    +0.000 A 
ENDROOT
BRANCH   1   7
ATOM      7  C   UNL     1       5.103   6.563  16.206  0.00  0.00    +0.000 C 
ATOM      8  O   UNL     1       5.307   6.962  15.070  0.00  0.00    +0.000 OA
BRANCH   7   9
ATOM      9  O   UNL     1       3.893   6.382  16.787  0.00  0.00    +0.000 OA
BRANCH   9  10
ATOM     10  C   UNL     1       3.320   7.519  17.445  0.00  0.00    +0.000 C 
BRANCH  10  17
ATOM     11  C   UNL     1       0.821   8.750  21.637  0.00  0.00    +0.000 C 
ATOM     12  C   UNL     1       1.411   7.692  20.751  0.00  0.00    +0.000 A 
ATOM     13  C   UNL     1       1.336   6.339  21.097  0.00  0.00    +0.000 A 
ATOM     14  C   UNL     1       1.893   5.357  20.268  0.00  0.00    +0.000 A 
ATOM     15  C   UNL     1       1.811   3.905  20.641  0.00  0.00    +0.000 C 
ATOM     16  C   UNL     1       2.528   5.743  19.078  0.00  0.00    +0.000 A 
ATOM     17  C   UNL     1       2.613   7.096  18.713  0.00  0.00    +0.000 A 
ATOM     18  C   UNL     1       2.051   8.061  19.561  0.00  0.00    +0.000 A 
ENDBRANCH  10  17
ENDBRANCH   9  10
ENDBRANCH   7   9
ENDBRANCH   1   7
BRANCH   3  19
ATOM     19  N   UNL     1       8.796   8.458  18.783  0.00  0.00    +0.000 NA
ATOM     20  C   UNL     1       8.448   9.604  18.285  0.00  0.00    +0.000 C 
BRANCH  20  21
ATOM     21  C   UNL     1       9.162  10.865  18.592  0.00  0.00    +0.000 A 
ATOM     22  C   UNL     1       9.451  11.787  17.580  0.00  0.00    +0.000 A 
ATOM     23  C   UNL     1      10.156  12.946  17.897  0.00  0.00    +0.000 A 
ATOM     24  C   UNL     1      10.575  13.199  19.200  0.00  0.00    +0.000 A 
ATOM     25  C   UNL     1      10.280  12.287  20.213  0.00  0.00    +0.000 A 
ATOM     26  C   UNL     1       9.573  11.124  19.908  0.00  0.00    +0.000 A 
BRANCH  23  27
ATOM     27  O   UNL     1      10.467  13.875  16.948  0.00  0.00    +0.000 OA
ATOM     28  H   UNL     1      10.113  13.581  16.093  0.00  0.00    +0.000 HD
ENDBRANCH  23  27
BRANCH  26  29
ATOM     29  O   UNL     1       9.290  10.228  20.903  0.00  0.00    +0.000 OA
ATOM     30  H   UNL     1       8.358   9.960  20.834  0.00  0.00    +0.000 HD
ENDBRANCH  26  29
ENDBRANCH  20  21
ENDBRANCH   3  19
BRANCH   6  31
ATOM     31  O   UNL     1       5.824   3.955  17.299  0.00  0.00    +0.000 OA
ATOM     32  H   UNL     1       5.063   3.809  17.889  0.00  0.00    +0.000 HD
ENDBRANCH   6  31
TORSDOF 9
ENDMDL
MODEL 8
REMARK VINA RESULT:      -8.3      5.101      7.801
REMARK  Name = 
REMARK  11 active torsions:
REMARK  status: ('A' for Active; 'I' for Inactive)
REMARK    1  A    between atoms: C_1  and  C_2
REMARK    2  A    between atoms: C_4  and  C_5
REMARK    3  A    between atoms: C_7  and  C_8
REMARK    4  A    between atoms: C_8  and  O_9
REMARK    5  A    between atoms: O_9  and  C_10
REMARK    6  A    between atoms: C_10  and  C_12
REMARK    7  A    between atoms: C_14  and  N_15
REMARK    8  A    between atoms: C_16  and  C_17
REMARK    9  A    between atoms: C_19  and  O_20
REMARK   10  A    between atoms: C_23  and  O_24
REMARK   11  A    between atoms: C_27  and  O_28
REMARK                            x       y       z     vdW  Elec       q    Type
REMARK                         _______ _______ _______ _____ _____    ______ ____
ROOT
ATOM      1  C   UNL     1       4.714   4.630  19.021  0.00  0.00    +0.000 A 
ATOM      2  C   UNL     1       3.798   5.696  19.122  0.00  0.00    +0.000 A 
ATOM      3  C   UNL     1       2.556   5.535  19.746  0.00  0.00    +0.000 A 
ATOM      4  C   UNL     1       2.257   4.284  20.304  0.00  0.00    +0.000 A 
ATOM      5  C   UNL     1       3.160   3.219  20.223  0.00  0.00    +0.000 A 
ATOM      6  C   UNL     1       4.386   3.392  19.588  0.00  0.00    +0.000 A 
ENDROOT
BRANCH   1   7
ATOM      7  C   UNL     1       6.007   4.897  18.339  0.00  0.00    +0.000 C 
ATOM      8  O   UNL     1       7.066   4.964  18.945  0.00  0.00    +0.000 OA
BRANCH   7   9
ATOM      9  O   UNL     1       5.818   5.155  17.023  0.00  0.00    +0.000 OA
BRANCH   9  10
ATOM     10  C   UNL     1       5.297   4.082  16.228  0.00  0.00    +0.000 C 
BRANCH  10  17
ATOM     11  C   UNL     1       5.163   2.571  11.429  0.00  0.00    +0.000 C 
ATOM     12  C   UNL     1       5.808   3.396  12.503  0.00  0.00    +0.000 A 
ATOM     13  C   UNL     1       6.931   4.184  12.230  0.00  0.00    +0.000 A 
ATOM     14  C   UNL     1       7.530   4.949  13.238  0.00  0.00    +0.000 A 
ATOM     15  C   UNL     1       8.735   5.794  12.942  0.00  0.00    +0.000 C 
ATOM     16  C   UNL     1       6.991   4.921  14.533  0.00  0.00    +0.000 A 
ATOM     17  C   UNL     1       5.864   4.137  14.827  0.00  0.00    +0.000 A 
ATOM     18  C   UNL     1       5.284   3.377  13.803  0.00  0.00    +0.000 A 
ENDBRANCH  10  17
ENDBRANCH   9  10
ENDBRANCH   7   9
ENDBRANCH   1   7
BRANCH   3  19
ATOM     19  N   UNL     1       1.705   6.655  19.847  0.00  0.00    +0.000 NA
ATOM     20  C   UNL     1       1.986   7.589  20.703  0.00  0.00    +0.000 C 
BRANCH  20  21
ATOM     21  C   UNL     1       1.174   8.820  20.846  0.00  0.00    +0.000 A 
ATOM     22  C   UNL     1       0.638   9.183  22.087  0.00  0.00    +0.000 A 
ATOM     23  C   UNL     1      -0.150  10.327  22.178  0.00  0.00    +0.000 A 
ATOM     24  C   UNL     1      -0.412  11.112  21.058  0.00  0.00    +0.000 A 
ATOM     25  C   UNL     1       0.128  10.759  19.822  0.00  0.00    +0.000 A 
ATOM     26  C   UNL     1       0.922   9.616  19.719  0.00  0.00    +0.000 A 
BRANCH  23  27
ATOM     27  O   UNL     1      -0.699  10.724  23.362  0.00  0.00    +0.000 OA
ATOM     28  H   UNL     1      -0.309  11.576  23.619  0.00  0.00    +0.000 HD
ENDBRANCH  23  27
BRANCH  26  29
ATOM     29  O   UNL     1       1.445   9.268  18.503  0.00  0.00    +0.000 OA
ATOM     30  H   UNL     1       1.443  10.048  17.922  0.00  0.00    +0.000 HD
ENDBRANCH  26  29
ENDBRANCH  20  21
ENDBRANCH   3  19
BRANCH   6  31
ATOM     31  O   UNL     1       5.273   2.353  19.566  0.00  0.00    +0.000 OA
ATOM     32  H   UNL     1       5.131   1.780  20.339  0.00  0.00    +0.000 HD
ENDBRANCH   6  31
TORSDOF 9
ENDMDL
MODEL 9
REMARK VINA RESULT:      -8.3      2.897      7.762
REMARK  Name = 
REMARK  11 active torsions:
REMARK  status: ('A' for Active; 'I' for Inactive)
REMARK    1  A    between atoms: C_1  and  C_2
REMARK    2  A    between atoms: C_4  and  C_5
REMARK    3  A    between atoms: C_7  and  C_8
REMARK    4  A    between atoms: C_8  and  O_9
REMARK    5  A    between atoms: O_9  and  C_10
REMARK    6  A    between atoms: C_10  and  C_12
REMARK    7  A    between atoms: C_14  and  N_15
REMARK    8  A    between atoms: C_16  and  C_17
REMARK    9  A    between atoms: C_19  and  O_20
REMARK   10  A    between atoms: C_23  and  O_24
REMARK   11  A    between atoms: C_27  and  O_28
REMARK                            x       y       z     vdW  Elec       q    Type
REMARK                         _______ _______ _______ _____ _____    ______ ____
ROOT
ATOM      1  C   UNL     1       5.958   5.998  17.653  0.00  0.00    +0.000 A 
ATOM      2  C   UNL     1       4.765   6.664  18.003  0.00  0.00    +0.000 A 
ATOM      3  C   UNL     1       3.776   6.036  18.768  0.00  0.00    +0.000 A 
ATOM      4  C   UNL     1       4.018   4.728  19.212  0.00  0.00    +0.000 A 
ATOM      5  C   UNL     1       5.201   4.058  18.884  0.00  0.00    +0.000 A 
ATOM      6  C   UNL     1       6.170   4.692  18.110  0.00  0.00    +0.000 A 
ENDROOT
BRANCH   1   7
ATOM      7  C   UNL     1       6.947   6.747  16.836  0.00  0.00    +0.000 C 
ATOM      8  O   UNL     1       7.547   6.235  15.903  0.00  0.00    +0.000 OA
BRANCH   7   9
ATOM      9  O   UNL     1       7.150   7.989  17.335  0.00  0.00    +0.000 OA
BRANCH   9  10
ATOM     10  C   UNL     1       8.242   8.142  18.251  0.00  0.00    +0.000 C 
BRANCH  10  17
ATOM     11  C   UNL     1      10.983  11.722  20.487  0.00  0.00    +0.000 C 
ATOM     12  C   UNL     1       9.928  11.339  19.491  0.00  0.00    +0.000 A 
ATOM     13  C   UNL     1       9.272  12.311  18.727  0.00  0.00    +0.000 A 
ATOM     14  C   UNL     1       8.286  11.946  17.802  0.00  0.00    +0.000 A 
ATOM     15  C   UNL     1       7.584  12.991  16.984  0.00  0.00    +0.000 C 
ATOM     16  C   UNL     1       7.961  10.591  17.643  0.00  0.00    +0.000 A 
ATOM     17  C   UNL     1       8.609   9.601  18.399  0.00  0.00    +0.000 A 
ATOM     18  C   UNL     1       9.590   9.990  19.322  0.00  0.00    +0.000 A 
ENDBRANCH  10  17
ENDBRANCH   9  10
ENDBRANCH   7   9
ENDBRANCH   1   7
BRANCH   3  19
ATOM     19  N   UNL     1       2.626   6.774  19.116  0.00  0.00    +0.000 NA
ATOM     20  C   UNL     1       2.545   8.022  18.770  0.00  0.00    +0.000 C 
BRANCH  20  21
ATOM     21  C   UNL     1       1.357   8.860  19.052  0.00  0.00    +0.000 A 
ATOM     22  C   UNL     1       0.670   9.499  18.013  0.00  0.00    +0.000 A 
ATOM     23  C   UNL     1      -0.422  10.308  18.318  0.00  0.00    +0.000 A 
ATOM     24  C   UNL     1      -0.837  10.491  19.634  0.00  0.00    +0.000 A 
ATOM     25  C   UNL     1      -0.162   9.848  20.671  0.00  0.00    +0.000 A 
ATOM     26  C   UNL     1       0.932   9.033  20.378  0.00  0.00    +0.000 A 
BRANCH  23  27
ATOM     27  O   UNL     1      -1.124  10.956  17.344  0.00  0.00    +0.000 OA
ATOM     28  H   UNL     1      -1.436  10.304  16.696  0.00  0.00    +0.000 HD
ENDBRANCH  23  27
BRANCH  26  29
ATOM     29  O   UNL     1       1.598   8.408  21.398  0.00  0.00    +0.000 OA
ATOM     30  H   UNL     1       1.842   7.511  21.114  0.00  0.00    +0.000 HD
ENDBRANCH  26  29
ENDBRANCH  20  21
ENDBRANCH   3  19
BRANCH   6  31
ATOM     31  O   UNL     1       7.338   4.037  17.846  0.00  0.00    +0.000 OA
ATOM     32  H   UNL     1       7.421   3.259  18.424  0.00  0.00    +0.000 HD
ENDBRANCH   6  31
TORSDOF 9
ENDMDL
