MODEL 1
REMARK VINA RESULT:      -7.8      0.000      0.000
REMARK  Name = 
REMARK  8 active torsions:
REMARK  status: ('A' for Active; 'I' for Inactive)
REMARK    1  A    between atoms: C_1  and  O_2
REMARK    2  A    between atoms: O_2  and  C_3
REMARK    3  A    between atoms: C_7  and  C_8
REMARK    4  A    between atoms: N_10  and  C_11
REMARK    5  A    between atoms: C_11  and  N_13
REMARK    6  A    between atoms: N_13  and  C_14
REMARK    7  A    between atoms: C_17  and  N_18
REMARK    8  A    between atoms: C_22  and  C_23
REMARK                            x       y       z     vdW  Elec       q    Type
REMARK                         _______ _______ _______ _____ _____    ______ ____
ROOT
ATOM      1  C   UNL     1       3.619   3.819  17.892  0.00  0.00    +0.000 C 
ATOM      2  S   UNL     1       2.451   2.612  17.897  0.00  0.00    +0.000 S 
ENDROOT
BRANCH   1   5
ATOM      3  C   UNL     1       2.834   5.726  19.318  0.00  0.00    +0.000 C 
ATOM      4  O   UNL     1       2.893   5.164  20.410  0.00  0.00    +0.000 OA
ATOM      5  N   UNL     1       3.382   5.180  18.158  0.00  0.00    +0.000 N 
ATOM      6  H   UNL     1       3.434   5.756  17.336  0.00  0.00    +0.000 HD
BRANCH   3  11
ATOM      7  C   UNL     1       1.173   9.074  20.221  0.00  0.00    +0.000 A 
ATOM      8  C   UNL     1       1.212   9.694  18.967  0.00  0.00    +0.000 A 
ATOM      9  C   UNL     1       1.786   9.051  17.880  0.00  0.00    +0.000 A 
ATOM     10  C   UNL     1       2.313   7.773  18.043  0.00  0.00    +0.000 A 
ATOM     11  C   UNL     1       2.276   7.119  19.289  0.00  0.00    +0.000 A 
ATOM     12  C   UNL     1       1.713   7.787  20.387  0.00  0.00    +0.000 A 
BRANCH   7  14
ATOM     13  C   UNL     1       0.538   9.313  22.508  0.00  0.00    +0.000 C 
ATOM     14  O   UNL     1       0.570   9.831  21.188  0.00  0.00    +0.000 OA
ENDBRANCH   7  14
ENDBRANCH   3  11
ENDBRANCH   1   5
BRANCH   1  15
ATOM     15  N   UNL     1       4.992   3.607  17.686  0.00  0.00    +0.000 N 
ATOM     16  H   UNL     1       5.336   2.787  18.172  0.00  0.00    +0.000 HD
BRANCH  15  17
ATOM     17  C   UNL     1       5.739   4.006  16.544  0.00  0.00    +0.000 A 
ATOM     18  C   UNL     1       5.234   3.733  15.262  0.00  0.00    +0.000 A 
ATOM     19  C   UNL     1       5.928   4.111  14.112  0.00  0.00    +0.000 A 
ATOM     20  C   UNL     1       7.129   4.807  14.241  0.00  0.00    +0.000 A 
ATOM     21  C   UNL     1       7.629   5.130  15.509  0.00  0.00    +0.000 A 
ATOM     22  C   UNL     1       6.944   4.727  16.676  0.00  0.00    +0.000 A 
ATOM     23  C   UNL     1       7.551   5.087  18.004  0.00  0.00    +0.000 C 
BRANCH  20  24
ATOM     24  N   UNL     1       7.865   5.212  13.035  0.00  0.00    +0.000 N 
ATOM     25  O   UNL     1       7.500   4.738  11.948  0.00  0.00    +0.000 OA
ATOM     26  O   UNL     1       8.800   6.013  13.175  0.00  0.00    +0.000 OA
ENDBRANCH  20  24
ENDBRANCH  15  17
ENDBRANCH   1  15
TORSDOF 6
ENDMDL
MODEL 2
REMARK VINA RESULT:      -7.7      1.408      1.589
REMARK  Name = 
REMARK  8 active torsions:
REMARK  status: ('A' for Active; 'I' for Inactive)
REMARK    1  A    between atoms: C_1  and  O_2
REMARK    2  A    between atoms: O_2  and  C_3
REMARK    3  A    between atoms: C_7  and  C_8
REMARK    4  A    between atoms: N_10  and  C_11
REMARK    5  A    between atoms: C_11  and  N_13
REMARK    6  A    between atoms: N_13  and  C_14
REMARK    7  A    between atoms: C_17  and  N_18
REMARK    8  A    between atoms: C_22  and  C_23
REMARK                            x       y       z     vdW  Elec       q    Type
REMARK                         _______ _______ _______ _____ _____    ______ ____
ROOT
ATOM      1  C   UNL     1       3.814   4.628  19.895  0.00  0.00    +0.000 C 
ATOM      2  S   UNL     1       3.331   3.049  20.201  0.00  0.00    +0.000 S 
ENDROOT
BRANCH   1   5
ATOM      3  C   UNL     1       2.343   6.494  19.095  0.00  0.00    +0.000 C 
ATOM      4  O   UNL     1       1.996   5.998  18.026  0.00  0.00    +0.000 OA
ATOM      5  N   UNL     1       3.015   5.771  20.080  0.00  0.00    +0.000 N 
ATOM      6  H   UNL     1       3.133   6.191  20.986  0.00  0.00    +0.000 HD
BRANCH   3  11
ATOM      7  C   UNL     1       0.997   9.677  20.780  0.00  0.00    +0.000 A 
ATOM      8  C   UNL     1       0.972  10.530  19.670  0.00  0.00    +0.000 A 
ATOM      9  C   UNL     1       1.407  10.086  18.430  0.00  0.00    +0.000 A 
ATOM     10  C   UNL     1       1.857   8.776  18.293  0.00  0.00    +0.000 A 
ATOM     11  C   UNL     1       1.881   7.892  19.388  0.00  0.00    +0.000 A 
ATOM     12  C   UNL     1       1.460   8.357  20.642  0.00  0.00    +0.000 A 
BRANCH   7  14
ATOM     13  C   UNL     1       0.303   9.417  23.047  0.00  0.00    +0.000 C 
ATOM     14  O   UNL     1       0.530  10.258  21.927  0.00  0.00    +0.000 OA
ENDBRANCH   7  14
ENDBRANCH   3  11
ENDBRANCH   1   5
BRANCH   1  15
ATOM     15  N   UNL     1       5.100   5.009  19.478  0.00  0.00    +0.000 N 
ATOM     16  H   UNL     1       5.790   4.915  20.214  0.00  0.00    +0.000 HD
BRANCH  15  17
ATOM     17  C   UNL     1       5.602   4.947  18.150  0.00  0.00    +0.000 A 
ATOM     18  C   UNL     1       4.810   4.376  17.140  0.00  0.00    +0.000 A 
ATOM     19  C   UNL     1       5.259   4.299  15.821  0.00  0.00    +0.000 A 
ATOM     20  C   UNL     1       6.503   4.834  15.494  0.00  0.00    +0.000 A 
ATOM     21  C   UNL     1       7.292   5.449  16.476  0.00  0.00    +0.000 A 
ATOM     22  C   UNL     1       6.854   5.506  17.816  0.00  0.00    +0.000 A 
ATOM     23  C   UNL     1       7.762   6.159  18.823  0.00  0.00    +0.000 C 
BRANCH  20  24
ATOM     24  N   UNL     1       6.982   4.761  14.106  0.00  0.00    +0.000 N 
ATOM     25  O   UNL     1       6.421   3.961  13.342  0.00  0.00    +0.000 OA
ATOM     26  O   UNL     1       7.911   5.513  13.779  0.00  0.00    +0.000 OA
ENDBRANCH  20  24
ENDBRANCH  15  17
ENDBRANCH   1  15
TORSDOF 6
ENDMDL
MODEL 3
REMARK VINA RESULT:      -7.7      1.645      2.143
REMARK  Name = 
REMARK  8 active torsions:
REMARK  status: ('A' for Active; 'I' for Inactive)
REMARK    1  A    between atoms: C_1  and  O_2
REMARK    2  A    between atoms: O_2  and  C_3
REMARK    3  A    between atoms: C_7  and  C_8
REMARK    4  A    between atoms: N_10  and  C_11
REMARK    5  A    between atoms: C_11  and  N_13
REMARK    6  A    between atoms: N_13  and  C_14
REMARK    7  A    between atoms: C_17  and  N_18
REMARK    8  A    between atoms: C_22  and  C_23
REMARK                            x       y       z     vdW  Elec       q    Type
REMARK                         _______ _______ _______ _____ _____    ______ ____
ROOT
ATOM      1  C   UNL     1       3.400   4.918  19.914  0.00  0.00    +0.000 C 
ATOM      2  S   UNL     1       3.137   3.278  20.165  0.00  0.00    +0.000 S 
ENDROOT
BRANCH   1   5
ATOM      3  C   UNL     1       2.295   7.113  19.417  0.00  0.00    +0.000 C 
ATOM      4  O   UNL     1       2.637   7.219  18.241  0.00  0.00    +0.000 OA
ATOM      5  N   UNL     1       2.457   5.936  20.147  0.00  0.00    +0.000 N 
ATOM      6  H   UNL     1       2.020   5.868  21.050  0.00  0.00    +0.000 HD
BRANCH   3  11
ATOM      7  C   UNL     1       0.305   9.413  21.768  0.00  0.00    +0.000 A 
ATOM      8  C   UNL     1       0.075  10.486  20.899  0.00  0.00    +0.000 A 
ATOM      9  C   UNL     1       0.579  10.465  19.607  0.00  0.00    +0.000 A 
ATOM     10  C   UNL     1       1.305   9.360  19.174  0.00  0.00    +0.000 A 
ATOM     11  C   UNL     1       1.541   8.261  20.022  0.00  0.00    +0.000 A 
ATOM     12  C   UNL     1       1.046   8.301  21.334  0.00  0.00    +0.000 A 
BRANCH   7  14
ATOM     13  C   UNL     1      -1.072  10.724  23.210  0.00  0.00    +0.000 C 
ATOM     14  O   UNL     1      -0.261   9.578  23.003  0.00  0.00    +0.000 OA
ENDBRANCH   7  14
ENDBRANCH   3  11
ENDBRANCH   1   5
BRANCH   1  15
ATOM     15  N   UNL     1       4.618   5.482  19.502  0.00  0.00    +0.000 N 
ATOM     16  H   UNL     1       5.240   5.673  20.279  0.00  0.00    +0.000 HD
BRANCH  15  17
ATOM     17  C   UNL     1       5.246   5.289  18.242  0.00  0.00    +0.000 A 
ATOM     18  C   UNL     1       4.462   4.958  17.125  0.00  0.00    +0.000 A 
ATOM     19  C   UNL     1       5.034   4.766  15.866  0.00  0.00    +0.000 A 
ATOM     20  C   UNL     1       6.408   4.941  15.710  0.00  0.00    +0.000 A 
ATOM     21  C   UNL     1       7.204   5.315  16.801  0.00  0.00    +0.000 A 
ATOM     22  C   UNL     1       6.634   5.487  18.081  0.00  0.00    +0.000 A 
ATOM     23  C   UNL     1       7.552   5.864  19.211  0.00  0.00    +0.000 C 
BRANCH  20  24
ATOM     24  N   UNL     1       7.018   4.744  14.387  0.00  0.00    +0.000 N 
ATOM     25  O   UNL     1       7.986   5.458  14.084  0.00  0.00    +0.000 OA
ATOM     26  O   UNL     1       6.535   3.865  13.658  0.00  0.00    +0.000 OA
ENDBRANCH  20  24
ENDBRANCH  15  17
ENDBRANCH   1  15
TORSDOF 6
ENDMDL
MODEL 4
REMARK VINA RESULT:      -7.6      2.222      7.989
REMARK  Name = 
REMARK  8 active torsions:
REMARK  status: ('A' for Active; 'I' for Inactive)
REMARK    1  A    between atoms: C_1  and  O_2
REMARK    2  A    between atoms: O_2  and  C_3
REMARK    3  A    between atoms: C_7  and  C_8
REMARK    4  A    between atoms: N_10  and  C_11
REMARK    5  A    between atoms: C_11  and  N_13
REMARK    6  A    between atoms: N_13  and  C_14
REMARK    7  A    between atoms: C_17  and  N_18
REMARK    8  A    between atoms: C_22  and  C_23
REMARK                            x       y       z     vdW  Elec       q    Type
REMARK                         _______ _______ _______ _____ _____    ______ ____
ROOT
ATOM      1  C   UNL     1       2.486   4.897  19.682  0.00  0.00    +0.000 C 
ATOM      2  S   UNL     1       1.263   3.940  20.320  0.00  0.00    +0.000 S 
ENDROOT
BRANCH   1   5
ATOM      3  C   UNL     1       4.655   4.421  18.519  0.00  0.00    +0.000 C 
ATOM      4  O   UNL     1       5.320   4.118  19.506  0.00  0.00    +0.000 OA
ATOM      5  N   UNL     1       3.270   4.573  18.560  0.00  0.00    +0.000 N 
ATOM      6  H   UNL     1       2.772   4.669  17.691  0.00  0.00    +0.000 HD
BRANCH   3  11
ATOM      7  C   UNL     1       5.569   4.243  14.788  0.00  0.00    +0.000 A 
ATOM      8  C   UNL     1       6.930   4.560  14.871  0.00  0.00    +0.000 A 
ATOM      9  C   UNL     1       7.513   4.848  16.096  0.00  0.00    +0.000 A 
ATOM     10  C   UNL     1       6.736   4.806  17.249  0.00  0.00    +0.000 A 
ATOM     11  C   UNL     1       5.367   4.479  17.199  0.00  0.00    +0.000 A 
ATOM     12  C   UNL     1       4.782   4.210  15.953  0.00  0.00    +0.000 A 
BRANCH   7  14
ATOM     13  C   UNL     1       6.096   3.465  12.596  0.00  0.00    +0.000 C 
ATOM     14  O   UNL     1       5.145   3.977  13.515  0.00  0.00    +0.000 OA
ENDBRANCH   7  14
ENDBRANCH   3  11
ENDBRANCH   1   5
BRANCH   1  15
ATOM     15  N   UNL     1       2.833   6.175  20.150  0.00  0.00    +0.000 N 
ATOM     16  H   UNL     1       3.835   6.311  20.202  0.00  0.00    +0.000 HD
BRANCH  15  17
ATOM     17  C   UNL     1       2.056   7.358  20.010  0.00  0.00    +0.000 A 
ATOM     18  C   UNL     1       1.214   7.757  21.060  0.00  0.00    +0.000 A 
ATOM     19  C   UNL     1       0.438   8.914  20.970  0.00  0.00    +0.000 A 
ATOM     20  C   UNL     1       0.531   9.708  19.828  0.00  0.00    +0.000 A 
ATOM     21  C   UNL     1       1.399   9.353  18.786  0.00  0.00    +0.000 A 
ATOM     22  C   UNL     1       2.166   8.170  18.862  0.00  0.00    +0.000 A 
ATOM     23  C   UNL     1       3.058   7.839  17.696  0.00  0.00    +0.000 C 
BRANCH  20  24
ATOM     24  N   UNL     1      -0.279  10.929  19.726  0.00  0.00    +0.000 N 
ATOM     25  O   UNL     1      -0.684  11.444  20.779  0.00  0.00    +0.000 OA
ATOM     26  O   UNL     1      -0.500  11.379  18.592  0.00  0.00    +0.000 OA
ENDBRANCH  20  24
ENDBRANCH  15  17
ENDBRANCH   1  15
TORSDOF 6
ENDMDL
MODEL 5
REMARK VINA RESULT:      -7.6      1.635      2.237
REMARK  Name = 
REMARK  8 active torsions:
REMARK  status: ('A' for Active; 'I' for Inactive)
REMARK    1  A    between atoms: C_1  and  O_2
REMARK    2  A    between atoms: O_2  and  C_3
REMARK    3  A    between atoms: C_7  and  C_8
REMARK    4  A    between atoms: N_10  and  C_11
REMARK    5  A    between atoms: C_11  and  N_13
REMARK    6  A    between atoms: N_13  and  C_14
REMARK    7  A    between atoms: C_17  and  N_18
REMARK    8  A    between atoms: C_22  and  C_23
REMARK                            x       y       z     vdW  Elec       q    Type
REMARK                         _______ _______ _______ _____ _____    ______ ____
ROOT
ATOM      1  C   UNL     1       3.613   4.734  19.774  0.00  0.00    +0.000 C 
ATOM      2  S   UNL     1       3.284   3.094  19.917  0.00  0.00    +0.000 S 
ENDROOT
BRANCH   1   5
ATOM      3  C   UNL     1       2.326   6.833  19.300  0.00  0.00    +0.000 C 
ATOM      4  O   UNL     1       2.337   6.772  18.073  0.00  0.00    +0.000 OA
ATOM      5  N   UNL     1       2.726   5.773  20.112  0.00  0.00    +0.000 N 
ATOM      6  H   UNL     1       2.549   5.832  21.100  0.00  0.00    +0.000 HD
BRANCH   3  11
ATOM      7  C   UNL     1       0.873  10.333  19.948  0.00  0.00    +0.000 A 
ATOM      8  C   UNL     1       0.663  10.242  21.328  0.00  0.00    +0.000 A 
ATOM      9  C   UNL     1       0.958   9.071  22.010  0.00  0.00    +0.000 A 
ATOM     10  C   UNL     1       1.481   7.987  21.311  0.00  0.00    +0.000 A 
ATOM     11  C   UNL     1       1.715   8.054  19.924  0.00  0.00    +0.000 A 
ATOM     12  C   UNL     1       1.392   9.235  19.240  0.00  0.00    +0.000 A 
BRANCH   7  14
ATOM     13  C   UNL     1       0.848  12.706  20.188  0.00  0.00    +0.000 C 
ATOM     14  O   UNL     1       0.541  11.552  19.423  0.00  0.00    +0.000 OA
ENDBRANCH   7  14
ENDBRANCH   3  11
ENDBRANCH   1   5
BRANCH   1  15
ATOM     15  N   UNL     1       4.842   5.274  19.361  0.00  0.00    +0.000 N 
ATOM     16  H   UNL     1       5.496   5.381  20.127  0.00  0.00    +0.000 HD
BRANCH  15  17
ATOM     17  C   UNL     1       5.421   5.145  18.069  0.00  0.00    +0.000 A 
ATOM     18  C   UNL     1       4.629   4.692  17.002  0.00  0.00    +0.000 A 
ATOM     19  C   UNL     1       5.151   4.556  15.715  0.00  0.00    +0.000 A 
ATOM     20  C   UNL     1       6.478   4.913  15.479  0.00  0.00    +0.000 A 
ATOM     21  C   UNL     1       7.274   5.411  16.519  0.00  0.00    +0.000 A 
ATOM     22  C   UNL     1       6.758   5.526  17.827  0.00  0.00    +0.000 A 
ATOM     23  C   UNL     1       7.677   6.044  18.900  0.00  0.00    +0.000 C 
BRANCH  20  24
ATOM     24  N   UNL     1       7.036   4.777  14.126  0.00  0.00    +0.000 N 
ATOM     25  O   UNL     1       6.543   3.915  13.382  0.00  0.00    +0.000 OA
ATOM     26  O   UNL     1       7.959   5.540  13.806  0.00  0.00    +0.000 OA
ENDBRANCH  20  24
ENDBRANCH  15  17
ENDBRANCH   1  15
TORSDOF 6
ENDMDL
MODEL 6
REMARK VINA RESULT:      -7.5      1.519      2.151
REMARK  Name = 
REMARK  8 active torsions:
REMARK  status: ('A' for Active; 'I' for Inactive)
REMARK    1  A    between atoms: C_1  and  O_2
REMARK    2  A    between atoms: O_2  and  C_3
REMARK    3  A    between atoms: C_7  and  C_8
REMARK    4  A    between atoms: N_10  and  C_11
REMARK    5  A    between atoms: C_11  and  N_13
REMARK    6  A    between atoms: N_13  and  C_14
REMARK    7  A    between atoms: C_17  and  N_18
REMARK    8  A    between atoms: C_22  and  C_23
REMARK                            x       y       z     vdW  Elec       q    Type
REMARK                         _______ _______ _______ _____ _____    ______ ____
ROOT
ATOM      1  C   UNL     1       4.149   4.118  19.798  0.00  0.00    +0.000 C 
ATOM      2  S   UNL     1       3.730   2.510  20.034  0.00  0.00    +0.000 S 
ENDROOT
BRANCH   1   5
ATOM      3  C   UNL     1       2.480   5.867  19.133  0.00  0.00    +0.000 C 
ATOM      4  O   UNL     1       2.034   5.312  18.131  0.00  0.00    +0.000 OA
ATOM      5  N   UNL     1       3.312   5.221  20.047  0.00  0.00    +0.000 N 
ATOM      6  H   UNL     1       3.514   5.680  20.918  0.00  0.00    +0.000 HD
BRANCH   3  11
ATOM      7  C   UNL     1       1.521   9.586  18.964  0.00  0.00    +0.000 A 
ATOM      8  C   UNL     1       1.061   9.764  20.274  0.00  0.00    +0.000 A 
ATOM      9  C   UNL     1       1.039   8.700  21.163  0.00  0.00    +0.000 A 
ATOM     10  C   UNL     1       1.494   7.452  20.747  0.00  0.00    +0.000 A 
ATOM     11  C   UNL     1       1.974   7.246  19.440  0.00  0.00    +0.000 A 
ATOM     12  C   UNL     1       1.971   8.324  18.541  0.00  0.00    +0.000 A 
BRANCH   7  14
ATOM     13  C   UNL     1       1.525  11.971  18.897  0.00  0.00    +0.000 C 
ATOM     14  O   UNL     1       1.487  10.729  18.212  0.00  0.00    +0.000 OA
ENDBRANCH   7  14
ENDBRANCH   3  11
ENDBRANCH   1   5
BRANCH   1  15
ATOM     15  N   UNL     1       5.415   4.567  19.384  0.00  0.00    +0.000 N 
ATOM     16  H   UNL     1       6.129   4.414  20.087  0.00  0.00    +0.000 HD
BRANCH  15  17
ATOM     17  C   UNL     1       5.876   4.649  18.043  0.00  0.00    +0.000 A 
ATOM     18  C   UNL     1       5.162   3.992  17.027  0.00  0.00    +0.000 A 
ATOM     19  C   UNL     1       5.572   4.051  15.695  0.00  0.00    +0.000 A 
ATOM     20  C   UNL     1       6.695   4.807  15.362  0.00  0.00    +0.000 A 
ATOM     21  C   UNL     1       7.397   5.508  16.352  0.00  0.00    +0.000 A 
ATOM     22  C   UNL     1       7.000   5.431  17.704  0.00  0.00    +0.000 A 
ATOM     23  C   UNL     1       7.815   6.189  18.717  0.00  0.00    +0.000 C 
BRANCH  20  24
ATOM     24  N   UNL     1       7.133   4.877  13.961  0.00  0.00    +0.000 N 
ATOM     25  O   UNL     1       8.050   5.664  13.680  0.00  0.00    +0.000 OA
ATOM     26  O   UNL     1       6.566   4.136  13.145  0.00  0.00    +0.000 OA
ENDBRANCH  20  24
ENDBRANCH  15  17
ENDBRANCH   1  15
TORSDOF 6
ENDMDL
MODEL 7
REMARK VINA RESULT:      -7.3      1.025      1.226
REMARK  Name = 
REMARK  8 active torsions:
REMARK  status: ('A' for Active; 'I' for Inactive)
REMARK    1  A    between atoms: C_1  and  O_2
REMARK    2  A    between atoms: O_2  and  C_3
REMARK    3  A    between atoms: C_7  and  C_8
REMARK    4  A    between atoms: N_10  and  C_11
REMARK    5  A    between atoms: C_11  and  N_13
REMARK    6  A    between atoms: N_13  and  C_14
REMARK    7  A    between atoms: C_17  and  N_18
REMARK    8  A    between atoms: C_22  and  C_23
REMARK                            x       y       z     vdW  Elec       q    Type
REMARK                         _______ _______ _______ _____ _____    ______ ____
ROOT
ATOM      1  C   UNL     1       3.856   3.493  18.420  0.00  0.00    +0.000 C 
ATOM      2  S   UNL     1       3.335   1.897  18.385  0.00  0.00    +0.000 S 
ENDROOT
BRANCH   1   5
ATOM      3  C   UNL     1       3.165   5.886  18.133  0.00  0.00    +0.000 C 
ATOM      4  O   UNL     1       3.708   6.096  17.051  0.00  0.00    +0.000 OA
ATOM      5  N   UNL     1       3.039   4.608  18.678  0.00  0.00    +0.000 N 
ATOM      6  H   UNL     1       2.453   4.488  19.486  0.00  0.00    +0.000 HD
BRANCH   3  11
ATOM      7  C   UNL     1       1.457   8.228  20.658  0.00  0.00    +0.000 A 
ATOM      8  C   UNL     1       1.139   9.291  19.805  0.00  0.00    +0.000 A 
ATOM      9  C   UNL     1       1.497   9.251  18.466  0.00  0.00    +0.000 A 
ATOM     10  C   UNL     1       2.165   8.136  17.970  0.00  0.00    +0.000 A 
ATOM     11  C   UNL     1       2.487   7.046  18.801  0.00  0.00    +0.000 A 
ATOM     12  C   UNL     1       2.140   7.106  20.159  0.00  0.00    +0.000 A 
BRANCH   7  14
ATOM     13  C   UNL     1       0.259   9.569  22.226  0.00  0.00    +0.000 C 
ATOM     14  O   UNL     1       1.031   8.413  21.945  0.00  0.00    +0.000 OA
ENDBRANCH   7  14
ENDBRANCH   3  11
ENDBRANCH   1   5
BRANCH   1  15
ATOM     15  N   UNL     1       5.189   3.906  18.261  0.00  0.00    +0.000 N 
ATOM     16  H   UNL     1       5.792   3.567  19.002  0.00  0.00    +0.000 HD
BRANCH  15  17
ATOM     17  C   UNL     1       5.832   4.202  17.029  0.00  0.00    +0.000 A 
ATOM     18  C   UNL     1       5.365   3.605  15.847  0.00  0.00    +0.000 A 
ATOM     19  C   UNL     1       5.960   3.870  14.613  0.00  0.00    +0.000 A 
ATOM     20  C   UNL     1       7.018   4.777  14.550  0.00  0.00    +0.000 A 
ATOM     21  C   UNL     1       7.471   5.420  15.709  0.00  0.00    +0.000 A 
ATOM     22  C   UNL     1       6.889   5.135  16.963  0.00  0.00    +0.000 A 
ATOM     23  C   UNL     1       7.443   5.843  18.169  0.00  0.00    +0.000 C 
BRANCH  20  24
ATOM     24  N   UNL     1       7.648   5.065  13.254  0.00  0.00    +0.000 N 
ATOM     25  O   UNL     1       8.582   5.881  13.234  0.00  0.00    +0.000 OA
ATOM     26  O   UNL     1       7.216   4.465  12.259  0.00  0.00    +0.000 OA
ENDBRANCH  20  24
ENDBRANCH  15  17
ENDBRANCH   1  15
TORSDOF 6
ENDMDL
MODEL 8
REMARK VINA RESULT:      -7.3      4.584      6.616
REMARK  Name = 
REMARK  8 active torsions:
REMARK  status: ('A' for Active; 'I' for Inactive)
REMARK    1  A    between atoms: C_1  and  O_2
REMARK    2  A    between atoms: O_2  and  C_3
REMARK    3  A    between atoms: C_7  and  C_8
REMARK    4  A    between atoms: N_10  and  C_11
REMARK    5  A    between atoms: C_11  and  N_13
REMARK    6  A    between atoms: N_13  and  C_14
REMARK    7  A    between atoms: C_17  and  N_18
REMARK    8  A    between atoms: C_22  and  C_23
REMARK                            x       y       z     vdW  Elec       q    Type
REMARK                         _______ _______ _______ _____ _____    ______ ____
ROOT
ATOM      1  C   UNL     1       0.838   8.885  21.197  0.00  0.00    +0.000 C 
ATOM      2  S   UNL     1       0.528   9.351  22.780  0.00  0.00    +0.000 S 
ENDROOT
BRANCH   1   5
ATOM      3  C   UNL     1      -0.252  10.470  19.588  0.00  0.00    +0.000 C 
ATOM      4  O   UNL     1       0.488  11.436  19.766  0.00  0.00    +0.000 OA
ATOM      5  N   UNL     1       0.034   9.199  20.086  0.00  0.00    +0.000 N 
ATOM      6  H   UNL     1      -0.530   8.426  19.777  0.00  0.00    +0.000 HD
BRANCH   3  11
ATOM      7  C   UNL     1      -3.614  11.503  18.037  0.00  0.00    +0.000 A 
ATOM      8  C   UNL     1      -3.543  10.786  16.837  0.00  0.00    +0.000 A 
ATOM      9  C   UNL     1      -2.424  10.021  16.539  0.00  0.00    +0.000 A 
ATOM     10  C   UNL     1      -1.376   9.959  17.452  0.00  0.00    +0.000 A 
ATOM     11  C   UNL     1      -1.426  10.660  18.672  0.00  0.00    +0.000 A 
ATOM     12  C   UNL     1      -2.551  11.448  18.954  0.00  0.00    +0.000 A 
BRANCH   7  14
ATOM     13  C   UNL     1      -5.695  12.202  17.103  0.00  0.00    +0.000 C 
ATOM     14  O   UNL     1      -4.781  12.201  18.188  0.00  0.00    +0.000 OA
ENDBRANCH   7  14
ENDBRANCH   3  11
ENDBRANCH   1   5
BRANCH   1  15
ATOM     15  N   UNL     1       1.977   8.179  20.775  0.00  0.00    +0.000 N 
ATOM     16  H   UNL     1       2.788   8.371  21.352  0.00  0.00    +0.000 HD
BRANCH  15  17
ATOM     17  C   UNL     1       1.984   6.931  20.096  0.00  0.00    +0.000 A 
ATOM     18  C   UNL     1       1.560   5.776  20.773  0.00  0.00    +0.000 A 
ATOM     19  C   UNL     1       1.543   4.530  20.146  0.00  0.00    +0.000 A 
ATOM     20  C   UNL     1       1.921   4.438  18.807  0.00  0.00    +0.000 A 
ATOM     21  C   UNL     1       2.304   5.584  18.098  0.00  0.00    +0.000 A 
ATOM     22  C   UNL     1       2.347   6.842  18.736  0.00  0.00    +0.000 A 
ATOM     23  C   UNL     1       2.792   8.026  17.920  0.00  0.00    +0.000 C 
BRANCH  20  24
ATOM     24  N   UNL     1       1.903   3.130  18.137  0.00  0.00    +0.000 N 
ATOM     25  O   UNL     1       2.231   3.088  16.941  0.00  0.00    +0.000 OA
ATOM     26  O   UNL     1       1.571   2.144  18.811  0.00  0.00    +0.000 OA
ENDBRANCH  20  24
ENDBRANCH  15  17
ENDBRANCH   1  15
TORSDOF 6
ENDMDL
MODEL 9
REMARK VINA RESULT:      -7.3      1.353      1.591
REMARK  Name = 
REMARK  8 active torsions:
REMARK  status: ('A' for Active; 'I' for Inactive)
REMARK    1  A    between atoms: C_1  and  O_2
REMARK    2  A    between atoms: O_2  and  C_3
REMARK    3  A    between atoms: C_7  and  C_8
REMARK    4  A    between atoms: N_10  and  C_11
REMARK    5  A    between atoms: C_11  and  N_13
REMARK    6  A    between atoms: N_13  and  C_14
REMARK    7  A    between atoms: C_17  and  N_18
REMARK    8  A    between atoms: C_22  and  C_23
REMARK                            x       y       z     vdW  Elec       q    Type
REMARK                         _______ _______ _______ _____ _____    ______ ____
ROOT
ATOM      1  C   UNL     1       4.005   4.326  19.795  0.00  0.00    +0.000 C 
ATOM      2  S   UNL     1       3.023   3.063  20.305  0.00  0.00    +0.000 S 
ENDROOT
BRANCH   1   5
ATOM      3  C   UNL     1       2.364   6.216  19.949  0.00  0.00    +0.000 C 
ATOM      4  O   UNL     1       1.460   5.617  20.527  0.00  0.00    +0.000 OA
ATOM      5  N   UNL     1       3.645   5.686  19.799  0.00  0.00    +0.000 N 
ATOM      6  H   UNL     1       4.375   6.287  19.455  0.00  0.00    +0.000 HD
BRANCH   3  11
ATOM      7  C   UNL     1       1.115   9.846  19.738  0.00  0.00    +0.000 A 
ATOM      8  C   UNL     1       1.648  10.199  18.492  0.00  0.00    +0.000 A 
ATOM      9  C   UNL     1       2.409   9.293  17.769  0.00  0.00    +0.000 A 
ATOM     10  C   UNL     1       2.629   8.019  18.286  0.00  0.00    +0.000 A 
ATOM     11  C   UNL     1       2.095   7.632  19.529  0.00  0.00    +0.000 A 
ATOM     12  C   UNL     1       1.345   8.563  20.263  0.00  0.00    +0.000 A 
BRANCH   7  14
ATOM     13  C   UNL     1       1.082  11.815  21.084  0.00  0.00    +0.000 C 
ATOM     14  O   UNL     1       0.383  10.843  20.323  0.00  0.00    +0.000 OA
ENDBRANCH   7  14
ENDBRANCH   3  11
ENDBRANCH   1   5
BRANCH   1  15
ATOM     15  N   UNL     1       5.334   4.187  19.364  0.00  0.00    +0.000 N 
ATOM     16  H   UNL     1       5.866   3.548  19.944  0.00  0.00    +0.000 HD
BRANCH  15  17
ATOM     17  C   UNL     1       5.803   4.346  18.031  0.00  0.00    +0.000 A 
ATOM     18  C   UNL     1       5.027   3.859  16.966  0.00  0.00    +0.000 A 
ATOM     19  C   UNL     1       5.443   3.998  15.641  0.00  0.00    +0.000 A 
ATOM     20  C   UNL     1       6.635   4.668  15.370  0.00  0.00    +0.000 A 
ATOM     21  C   UNL     1       7.403   5.202  16.414  0.00  0.00    +0.000 A 
ATOM     22  C   UNL     1       6.999   5.041  17.757  0.00  0.00    +0.000 A 
ATOM     23  C   UNL     1       7.884   5.619  18.828  0.00  0.00    +0.000 C 
BRANCH  20  24
ATOM     24  N   UNL     1       7.079   4.822  13.977  0.00  0.00    +0.000 N 
ATOM     25  O   UNL     1       8.000   5.621  13.749  0.00  0.00    +0.000 OA
ATOM     26  O   UNL     1       6.512   4.135  13.115  0.00  0.00    +0.000 OA
ENDBRANCH  20  24
ENDBRANCH  15  17
ENDBRANCH   1  15
TORSDOF 6
ENDMDL
