MODEL 1
REMARK VINA RESULT:      -8.6      0.000      0.000
REMARK  Name = 
REMARK  5 active torsions:
REMARK  status: ('A' for Active; 'I' for Inactive)
REMARK    1  A    between atoms: C_1  and  C_2
REMARK    2  A    between atoms: C_3  and  N_4
REMARK    3  A    between atoms: C_5  and  C_7
REMARK    4  A    between atoms: C_10  and  C_11
REMARK    5  A    between atoms: C_22  and  C_23
REMARK                            x       y       z     vdW  Elec       q    Type
REMARK                         _______ _______ _______ _____ _____    ______ ____
ROOT
ATOM      1  C   UNL     1       2.862   8.579  17.991  0.00  0.00    +0.000 C 
ATOM      2  C   UNL     1       2.554   7.466  18.964  0.00  0.00    +0.000 A 
ATOM      3  C   UNL     1       1.602   7.616  20.008  0.00  0.00    +0.000 A 
ATOM      4  C   UNL     1       1.506   6.600  20.976  0.00  0.00    +0.000 A 
ATOM      5  C   UNL     1       2.252   5.422  20.881  0.00  0.00    +0.000 A 
ATOM      6  C   UNL     1       3.127   5.237  19.818  0.00  0.00    +0.000 A 
ATOM      7  C   UNL     1       3.289   6.242  18.848  0.00  0.00    +0.000 A 
ENDROOT
BRANCH   7   8
ATOM      8  C   UNL     1       4.226   5.990  17.747  0.00  0.00    +0.000 A 
ATOM      9  N   UNL     1       5.414   6.520  17.511  0.00  0.00    +0.000 NA
ATOM     10  C   UNL     1       5.891   5.790  16.465  0.00  0.00    +0.000 A 
ATOM     11  N   UNL     1       7.111   5.897  15.892  0.00  0.00    +0.000 NA
ATOM     12  C   UNL     1       7.332   4.992  14.909  0.00  0.00    +0.000 A 
ATOM     13  C   UNL     1       6.434   4.012  14.481  0.00  0.00    +0.000 A 
ATOM     14  C   UNL     1       5.176   3.919  15.076  0.00  0.00    +0.000 A 
ATOM     15  C   UNL     1       4.954   4.849  16.076  0.00  0.00    +0.000 A 
ATOM     16  O   UNL     1       3.855   4.999  16.863  0.00  0.00    +0.000 OA
ENDBRANCH   7   8
BRANCH   3  17
ATOM     17  N   UNL     1       0.798   8.773  20.223  0.00  0.00    +0.000 N 
ATOM     18  C   UNL     1       0.875   9.639  21.336  0.00  0.00    +0.000 C 
ATOM     19  O   UNL     1       1.612   9.466  22.285  0.00  0.00    +0.000 OA
ATOM     20  H   UNL     1       0.422   9.221  19.397  0.00  0.00    +0.000 HD
BRANCH  18  21
ATOM     21  C   UNL     1       0.037  10.840  21.197  0.00  0.00    +0.000 A 
ATOM     22  C   UNL     1       0.110  11.956  20.365  0.00  0.00    +0.000 A 
ATOM     23  C   UNL     1      -1.033  12.756  20.634  0.00  0.00    +0.000 A 
ATOM     24  C   UNL     1      -1.744  12.098  21.616  0.00  0.00    +0.000 A 
ATOM     25  O   UNL     1      -1.084  10.957  21.974  0.00  0.00    +0.000 OA
BRANCH  24  26
ATOM     26  C   UNL     1      -2.991  12.370  22.319  0.00  0.00    +0.000 A 
ATOM     27  C   UNL     1      -4.116  12.826  21.614  0.00  0.00    +0.000 A 
ATOM     28  C   UNL     1      -5.287  13.175  22.290  0.00  0.00    +0.000 A 
ATOM     29  C   UNL     1      -5.339  13.057  23.672  0.00  0.00    +0.000 A 
ATOM     30  F   UNL     1      -6.448  13.427  24.324  0.00  0.00    +0.000 F 
ATOM     31  C   UNL     1      -4.255  12.565  24.388  0.00  0.00    +0.000 A 
ATOM     32  C   UNL     1      -3.087  12.213  23.711  0.00  0.00    +0.000 A 
ENDBRANCH  24  26
ENDBRANCH  18  21
ENDBRANCH   3  17
TORSDOF 4
ENDMDL
MODEL 2
REMARK VINA RESULT:      -8.6      3.977     10.552
REMARK  Name = 
REMARK  5 active torsions:
REMARK  status: ('A' for Active; 'I' for Inactive)
REMARK    1  A    between atoms: C_1  and  C_2
REMARK    2  A    between atoms: C_3  and  N_4
REMARK    3  A    between atoms: C_5  and  C_7
REMARK    4  A    between atoms: C_10  and  C_11
REMARK    5  A    between atoms: C_22  and  C_23
REMARK                            x       y       z     vdW  Elec       q    Type
REMARK                         _______ _______ _______ _____ _____    ______ ____
ROOT
ATOM      1  C   UNL     1       0.692  10.798  21.182  0.00  0.00    +0.000 C 
ATOM      2  C   UNL     1      -0.410  11.020  20.172  0.00  0.00    +0.000 A 
ATOM      3  C   UNL     1      -0.455  10.321  18.937  0.00  0.00    +0.000 A 
ATOM      4  C   UNL     1      -1.408  10.715  17.981  0.00  0.00    +0.000 A 
ATOM      5  C   UNL     1      -2.358  11.704  18.254  0.00  0.00    +0.000 A 
ATOM      6  C   UNL     1      -2.367  12.335  19.491  0.00  0.00    +0.000 A 
ATOM      7  C   UNL     1      -1.407  12.006  20.464  0.00  0.00    +0.000 A 
ENDROOT
BRANCH   7   8
ATOM      8  C   UNL     1      -1.467  12.705  21.753  0.00  0.00    +0.000 A 
ATOM      9  N   UNL     1      -0.572  13.486  22.332  0.00  0.00    +0.000 NA
ATOM     10  C   UNL     1      -1.232  13.988  23.413  0.00  0.00    +0.000 A 
ATOM     11  N   UNL     1      -0.766  14.902  24.294  0.00  0.00    +0.000 NA
ATOM     12  C   UNL     1      -1.672  15.262  25.234  0.00  0.00    +0.000 A 
ATOM     13  C   UNL     1      -2.980  14.782  25.337  0.00  0.00    +0.000 A 
ATOM     14  C   UNL     1      -3.443  13.834  24.426  0.00  0.00    +0.000 A 
ATOM     15  C   UNL     1      -2.512  13.465  23.472  0.00  0.00    +0.000 A 
ATOM     16  O   UNL     1      -2.661  12.598  22.434  0.00  0.00    +0.000 OA
ENDBRANCH   7   8
BRANCH   3  17
ATOM     17  N   UNL     1       0.465   9.310  18.533  0.00  0.00    +0.000 N 
ATOM     18  C   UNL     1       1.762   9.529  18.020  0.00  0.00    +0.000 C 
ATOM     19  O   UNL     1       2.236  10.626  17.806  0.00  0.00    +0.000 OA
ATOM     20  H   UNL     1       0.360   8.403  18.970  0.00  0.00    +0.000 HD
BRANCH  18  21
ATOM     21  C   UNL     1       2.538   8.290  17.853  0.00  0.00    +0.000 A 
ATOM     22  C   UNL     1       3.837   8.036  17.419  0.00  0.00    +0.000 A 
ATOM     23  C   UNL     1       4.059   6.638  17.547  0.00  0.00    +0.000 A 
ATOM     24  C   UNL     1       2.888   6.105  18.045  0.00  0.00    +0.000 A 
ATOM     25  O   UNL     1       1.963   7.097  18.204  0.00  0.00    +0.000 OA
BRANCH  24  26
ATOM     26  C   UNL     1       2.462   4.760  18.410  0.00  0.00    +0.000 A 
ATOM     27  C   UNL     1       2.784   3.668  17.589  0.00  0.00    +0.000 A 
ATOM     28  C   UNL     1       2.303   2.390  17.882  0.00  0.00    +0.000 A 
ATOM     29  C   UNL     1       1.509   2.201  19.004  0.00  0.00    +0.000 A 
ATOM     30  F   UNL     1       1.017   0.983  19.265  0.00  0.00    +0.000 F 
ATOM     31  C   UNL     1       1.214   3.256  19.858  0.00  0.00    +0.000 A 
ATOM     32  C   UNL     1       1.698   4.532  19.566  0.00  0.00    +0.000 A 
ENDBRANCH  24  26
ENDBRANCH  18  21
ENDBRANCH   3  17
TORSDOF 4
ENDMDL
MODEL 3
REMARK VINA RESULT:      -8.6      4.315     11.427
REMARK  Name = 
REMARK  5 active torsions:
REMARK  status: ('A' for Active; 'I' for Inactive)
REMARK    1  A    between atoms: C_1  and  C_2
REMARK    2  A    between atoms: C_3  and  N_4
REMARK    3  A    between atoms: C_5  and  C_7
REMARK    4  A    between atoms: C_10  and  C_11
REMARK    5  A    between atoms: C_22  and  C_23
REMARK                            x       y       z     vdW  Elec       q    Type
REMARK                         _______ _______ _______ _____ _____    ______ ____
ROOT
ATOM      1  C   UNL     1       0.630  10.579  21.842  0.00  0.00    +0.000 C 
ATOM      2  C   UNL     1      -0.225  10.916  20.643  0.00  0.00    +0.000 A 
ATOM      3  C   UNL     1      -0.162  10.172  19.436  0.00  0.00    +0.000 A 
ATOM      4  C   UNL     1      -0.855  10.659  18.313  0.00  0.00    +0.000 A 
ATOM      5  C   UNL     1      -1.666  11.795  18.386  0.00  0.00    +0.000 A 
ATOM      6  C   UNL     1      -1.793  12.482  19.587  0.00  0.00    +0.000 A 
ATOM      7  C   UNL     1      -1.086  12.058  20.726  0.00  0.00    +0.000 A 
ENDROOT
BRANCH   7   8
ATOM      8  C   UNL     1      -1.261  12.822  21.967  0.00  0.00    +0.000 A 
ATOM      9  N   UNL     1      -0.447  13.686  22.548  0.00  0.00    +0.000 NA
ATOM     10  C   UNL     1      -1.196  14.207  23.559  0.00  0.00    +0.000 A 
ATOM     11  N   UNL     1      -0.834  15.194  24.410  0.00  0.00    +0.000 NA
ATOM     12  C   UNL     1      -1.813  15.551  25.275  0.00  0.00    +0.000 A 
ATOM     13  C   UNL     1      -3.095  15.001  25.335  0.00  0.00    +0.000 A 
ATOM     14  C   UNL     1      -3.450  13.978  24.456  0.00  0.00    +0.000 A 
ATOM     15  C   UNL     1      -2.446  13.613  23.578  0.00  0.00    +0.000 A 
ATOM     16  O   UNL     1      -2.485  12.683  22.586  0.00  0.00    +0.000 OA
ENDBRANCH   7   8
BRANCH   3  17
ATOM     17  N   UNL     1       0.640   9.012  19.230  0.00  0.00    +0.000 N 
ATOM     18  C   UNL     1       1.776   8.929  18.396  0.00  0.00    +0.000 C 
ATOM     19  O   UNL     1       2.180   9.838  17.700  0.00  0.00    +0.000 OA
ATOM     20  H   UNL     1       0.646   8.328  19.977  0.00  0.00    +0.000 HD
BRANCH  18  21
ATOM     21  C   UNL     1       2.496   7.651  18.518  0.00  0.00    +0.000 A 
ATOM     22  C   UNL     1       2.525   6.670  19.507  0.00  0.00    +0.000 A 
ATOM     23  C   UNL     1       3.349   5.615  19.030  0.00  0.00    +0.000 A 
ATOM     24  C   UNL     1       3.787   6.002  17.781  0.00  0.00    +0.000 A 
ATOM     25  O   UNL     1       3.295   7.241  17.484  0.00  0.00    +0.000 OA
BRANCH  24  26
ATOM     26  C   UNL     1       4.636   5.385  16.769  0.00  0.00    +0.000 A 
ATOM     27  C   UNL     1       5.211   6.167  15.755  0.00  0.00    +0.000 A 
ATOM     28  C   UNL     1       5.951   5.572  14.731  0.00  0.00    +0.000 A 
ATOM     29  C   UNL     1       6.127   4.195  14.727  0.00  0.00    +0.000 A 
ATOM     30  F   UNL     1       6.804   3.620  13.725  0.00  0.00    +0.000 F 
ATOM     31  C   UNL     1       5.607   3.404  15.744  0.00  0.00    +0.000 A 
ATOM     32  C   UNL     1       4.871   4.001  16.768  0.00  0.00    +0.000 A 
ENDBRANCH  24  26
ENDBRANCH  18  21
ENDBRANCH   3  17
TORSDOF 4
ENDMDL
MODEL 4
REMARK VINA RESULT:      -8.4      1.240      1.442
REMARK  Name = 
REMARK  5 active torsions:
REMARK  status: ('A' for Active; 'I' for Inactive)
REMARK    1  A    between atoms: C_1  and  C_2
REMARK    2  A    between atoms: C_3  and  N_4
REMARK    3  A    between atoms: C_5  and  C_7
REMARK    4  A    between atoms: C_10  and  C_11
REMARK    5  A    between atoms: C_22  and  C_23
REMARK                            x       y       z     vdW  Elec       q    Type
REMARK                         _______ _______ _______ _____ _____    ______ ____
ROOT
ATOM      1  C   UNL     1       2.833   8.332  17.844  0.00  0.00    +0.000 C 
ATOM      2  C   UNL     1       2.624   7.209  18.831  0.00  0.00    +0.000 A 
ATOM      3  C   UNL     1       1.682   7.299  19.890  0.00  0.00    +0.000 A 
ATOM      4  C   UNL     1       1.677   6.288  20.868  0.00  0.00    +0.000 A 
ATOM      5  C   UNL     1       2.506   5.166  20.770  0.00  0.00    +0.000 A 
ATOM      6  C   UNL     1       3.374   5.036  19.693  0.00  0.00    +0.000 A 
ATOM      7  C   UNL     1       3.445   6.041  18.713  0.00  0.00    +0.000 A 
ENDROOT
BRANCH   7   8
ATOM      8  C   UNL     1       4.379   5.848  17.597  0.00  0.00    +0.000 A 
ATOM      9  N   UNL     1       5.572   6.380  17.393  0.00  0.00    +0.000 NA
ATOM     10  C   UNL     1       6.043   5.711  16.304  0.00  0.00    +0.000 A 
ATOM     11  N   UNL     1       7.264   5.842  15.738  0.00  0.00    +0.000 NA
ATOM     12  C   UNL     1       7.476   4.996  14.701  0.00  0.00    +0.000 A 
ATOM     13  C   UNL     1       6.568   4.052  14.215  0.00  0.00    +0.000 A 
ATOM     14  C   UNL     1       5.310   3.935  14.805  0.00  0.00    +0.000 A 
ATOM     15  C   UNL     1       5.097   4.804  15.859  0.00  0.00    +0.000 A 
ATOM     16  O   UNL     1       3.999   4.916  16.655  0.00  0.00    +0.000 OA
ENDBRANCH   7   8
BRANCH   3  17
ATOM     17  N   UNL     1       0.799   8.395  20.110  0.00  0.00    +0.000 N 
ATOM     18  C   UNL     1       0.853   9.297  21.195  0.00  0.00    +0.000 C 
ATOM     19  O   UNL     1       1.639   9.210  22.116  0.00  0.00    +0.000 OA
ATOM     20  H   UNL     1       0.354   8.789  19.289  0.00  0.00    +0.000 HD
BRANCH  18  21
ATOM     21  C   UNL     1      -0.082  10.425  21.061  0.00  0.00    +0.000 A 
ATOM     22  C   UNL     1      -0.792  10.945  19.981  0.00  0.00    +0.000 A 
ATOM     23  C   UNL     1      -1.604  12.000  20.479  0.00  0.00    +0.000 A 
ATOM     24  C   UNL     1      -1.348  12.078  21.832  0.00  0.00    +0.000 A 
ATOM     25  O   UNL     1      -0.411  11.147  22.177  0.00  0.00    +0.000 OA
BRANCH  24  26
ATOM     26  C   UNL     1      -1.849  12.921  22.911  0.00  0.00    +0.000 A 
ATOM     27  C   UNL     1      -3.104  12.666  23.485  0.00  0.00    +0.000 A 
ATOM     28  C   UNL     1      -3.631  13.521  24.455  0.00  0.00    +0.000 A 
ATOM     29  C   UNL     1      -2.897  14.627  24.861  0.00  0.00    +0.000 A 
ATOM     30  F   UNL     1      -3.418  15.468  25.764  0.00  0.00    +0.000 F 
ATOM     31  C   UNL     1      -1.633  14.877  24.342  0.00  0.00    +0.000 A 
ATOM     32  C   UNL     1      -1.107  14.019  23.375  0.00  0.00    +0.000 A 
ENDBRANCH  24  26
ENDBRANCH  18  21
ENDBRANCH   3  17
TORSDOF 4
ENDMDL
MODEL 5
REMARK VINA RESULT:      -8.4      4.376     10.888
REMARK  Name = 
REMARK  5 active torsions:
REMARK  status: ('A' for Active; 'I' for Inactive)
REMARK    1  A    between atoms: C_1  and  C_2
REMARK    2  A    between atoms: C_3  and  N_4
REMARK    3  A    between atoms: C_5  and  C_7
REMARK    4  A    between atoms: C_10  and  C_11
REMARK    5  A    between atoms: C_22  and  C_23
REMARK                            x       y       z     vdW  Elec       q    Type
REMARK                         _______ _______ _______ _____ _____    ______ ____
ROOT
ATOM      1  C   UNL     1      -1.648   9.332  18.882  0.00  0.00    +0.000 C 
ATOM      2  C   UNL     1      -0.754  10.538  18.716  0.00  0.00    +0.000 A 
ATOM      3  C   UNL     1       0.662  10.435  18.702  0.00  0.00    +0.000 A 
ATOM      4  C   UNL     1       1.419  11.620  18.725  0.00  0.00    +0.000 A 
ATOM      5  C   UNL     1       0.815  12.879  18.668  0.00  0.00    +0.000 A 
ATOM      6  C   UNL     1      -0.569  12.984  18.602  0.00  0.00    +0.000 A 
ATOM      7  C   UNL     1      -1.370  11.828  18.620  0.00  0.00    +0.000 A 
ENDROOT
BRANCH   7   8
ATOM      8  C   UNL     1      -2.826  12.000  18.546  0.00  0.00    +0.000 A 
ATOM      9  N   UNL     1      -3.651  11.779  17.537  0.00  0.00    +0.000 NA
ATOM     10  C   UNL     1      -4.886  11.938  18.089  0.00  0.00    +0.000 A 
ATOM     11  N   UNL     1      -6.077  11.747  17.478  0.00  0.00    +0.000 NA
ATOM     12  C   UNL     1      -7.142  11.917  18.298  0.00  0.00    +0.000 A 
ATOM     13  C   UNL     1      -7.088  12.251  19.654  0.00  0.00    +0.000 A 
ATOM     14  C   UNL     1      -5.852  12.453  20.267  0.00  0.00    +0.000 A 
ATOM     15  C   UNL     1      -4.768  12.283  19.424  0.00  0.00    +0.000 A 
ATOM     16  O   UNL     1      -3.443  12.375  19.720  0.00  0.00    +0.000 OA
ENDBRANCH   7   8
BRANCH   3  17
ATOM     17  N   UNL     1       1.394   9.215  18.776  0.00  0.00    +0.000 N 
ATOM     18  C   UNL     1       1.610   8.447  19.942  0.00  0.00    +0.000 C 
ATOM     19  O   UNL     1       1.236   8.771  21.051  0.00  0.00    +0.000 OA
ATOM     20  H   UNL     1       1.446   8.667  17.926  0.00  0.00    +0.000 HD
BRANCH  18  21
ATOM     21  C   UNL     1       2.256   7.153  19.675  0.00  0.00    +0.000 A 
ATOM     22  C   UNL     1       2.202   5.916  20.315  0.00  0.00    +0.000 A 
ATOM     23  C   UNL     1       2.984   5.011  19.548  0.00  0.00    +0.000 A 
ATOM     24  C   UNL     1       3.481   5.735  18.484  0.00  0.00    +0.000 A 
ATOM     25  O   UNL     1       3.065   7.032  18.576  0.00  0.00    +0.000 OA
BRANCH  24  26
ATOM     26  C   UNL     1       4.328   5.408  17.343  0.00  0.00    +0.000 A 
ATOM     27  C   UNL     1       4.787   6.421  16.488  0.00  0.00    +0.000 A 
ATOM     28  C   UNL     1       5.522   6.108  15.343  0.00  0.00    +0.000 A 
ATOM     29  C   UNL     1       5.810   4.780  15.058  0.00  0.00    +0.000 A 
ATOM     30  F   UNL     1       6.483   4.477  13.941  0.00  0.00    +0.000 F 
ATOM     31  C   UNL     1       5.408   3.762  15.913  0.00  0.00    +0.000 A 
ATOM     32  C   UNL     1       4.676   4.077  17.059  0.00  0.00    +0.000 A 
ENDBRANCH  24  26
ENDBRANCH  18  21
ENDBRANCH   3  17
TORSDOF 4
ENDMDL
MODEL 6
REMARK VINA RESULT:      -8.4      2.696      3.627
REMARK  Name = 
REMARK  5 active torsions:
REMARK  status: ('A' for Active; 'I' for Inactive)
REMARK    1  A    between atoms: C_1  and  C_2
REMARK    2  A    between atoms: C_3  and  N_4
REMARK    3  A    between atoms: C_5  and  C_7
REMARK    4  A    between atoms: C_10  and  C_11
REMARK    5  A    between atoms: C_22  and  C_23
REMARK                            x       y       z     vdW  Elec       q    Type
REMARK                         _______ _______ _______ _____ _____    ______ ____
ROOT
ATOM      1  C   UNL     1       0.704   8.203  21.656  0.00  0.00    +0.000 C 
ATOM      2  C   UNL     1       1.129   8.779  20.325  0.00  0.00    +0.000 A 
ATOM      3  C   UNL     1       0.764  10.089  19.917  0.00  0.00    +0.000 A 
ATOM      4  C   UNL     1       1.045  10.480  18.596  0.00  0.00    +0.000 A 
ATOM      5  C   UNL     1       1.749   9.651  17.718  0.00  0.00    +0.000 A 
ATOM      6  C   UNL     1       2.177   8.398  18.138  0.00  0.00    +0.000 A 
ATOM      7  C   UNL     1       1.882   7.946  19.437  0.00  0.00    +0.000 A 
ENDROOT
BRANCH   7   8
ATOM      8  C   UNL     1       2.363   6.614  19.826  0.00  0.00    +0.000 A 
ATOM      9  N   UNL     1       1.805   5.714  20.617  0.00  0.00    +0.000 NA
ATOM     10  C   UNL     1       2.600   4.618  20.470  0.00  0.00    +0.000 A 
ATOM     11  N   UNL     1       2.409   3.399  21.023  0.00  0.00    +0.000 NA
ATOM     12  C   UNL     1       3.331   2.480  20.646  0.00  0.00    +0.000 A 
ATOM     13  C   UNL     1       4.397   2.701  19.770  0.00  0.00    +0.000 A 
ATOM     14  C   UNL     1       4.585   3.966  19.215  0.00  0.00    +0.000 A 
ATOM     15  C   UNL     1       3.644   4.901  19.607  0.00  0.00    +0.000 A 
ATOM     16  O   UNL     1       3.531   6.201  19.222  0.00  0.00    +0.000 OA
ENDBRANCH   7   8
BRANCH   3  17
ATOM     17  N   UNL     1       0.030  11.019  20.709  0.00  0.00    +0.000 N 
ATOM     18  C   UNL     1       0.554  12.181  21.319  0.00  0.00    +0.000 C 
ATOM     19  O   UNL     1       1.724  12.500  21.286  0.00  0.00    +0.000 OA
ATOM     20  H   UNL     1      -0.964  11.080  20.530  0.00  0.00    +0.000 HD
BRANCH  18  21
ATOM     21  C   UNL     1      -0.479  13.033  21.929  0.00  0.00    +0.000 A 
ATOM     22  C   UNL     1      -0.490  14.366  22.335  0.00  0.00    +0.000 A 
ATOM     23  C   UNL     1      -1.806  14.659  22.783  0.00  0.00    +0.000 A 
ATOM     24  C   UNL     1      -2.533  13.496  22.635  0.00  0.00    +0.000 A 
ATOM     25  O   UNL     1      -1.725  12.509  22.145  0.00  0.00    +0.000 OA
BRANCH  24  26
ATOM     26  C   UNL     1      -3.919  13.128  22.892  0.00  0.00    +0.000 A 
ATOM     27  C   UNL     1      -4.868  13.173  21.859  0.00  0.00    +0.000 A 
ATOM     28  C   UNL     1      -6.215  12.910  22.116  0.00  0.00    +0.000 A 
ATOM     29  C   UNL     1      -6.613  12.589  23.407  0.00  0.00    +0.000 A 
ATOM     30  F   UNL     1      -7.910  12.373  23.661  0.00  0.00    +0.000 F 
ATOM     31  C   UNL     1      -5.688  12.492  24.437  0.00  0.00    +0.000 A 
ATOM     32  C   UNL     1      -4.341  12.752  24.178  0.00  0.00    +0.000 A 
ENDBRANCH  24  26
ENDBRANCH  18  21
ENDBRANCH   3  17
TORSDOF 4
ENDMDL
MODEL 7
REMARK VINA RESULT:      -8.4      2.072      2.552
REMARK  Name = 
REMARK  5 active torsions:
REMARK  status: ('A' for Active; 'I' for Inactive)
REMARK    1  A    between atoms: C_1  and  C_2
REMARK    2  A    between atoms: C_3  and  N_4
REMARK    3  A    between atoms: C_5  and  C_7
REMARK    4  A    between atoms: C_10  and  C_11
REMARK    5  A    between atoms: C_22  and  C_23
REMARK                            x       y       z     vdW  Elec       q    Type
REMARK                         _______ _______ _______ _____ _____    ______ ____
ROOT
ATOM      1  C   UNL     1       2.821   8.613  17.859  0.00  0.00    +0.000 C 
ATOM      2  C   UNL     1       2.516   7.531  18.867  0.00  0.00    +0.000 A 
ATOM      3  C   UNL     1       1.535   7.697  19.880  0.00  0.00    +0.000 A 
ATOM      4  C   UNL     1       1.439   6.717  20.885  0.00  0.00    +0.000 A 
ATOM      5  C   UNL     1       2.217   5.555  20.855  0.00  0.00    +0.000 A 
ATOM      6  C   UNL     1       3.122   5.352  19.821  0.00  0.00    +0.000 A 
ATOM      7  C   UNL     1       3.284   6.323  18.817  0.00  0.00    +0.000 A 
ENDROOT
BRANCH   7   8
ATOM      8  C   UNL     1       4.254   6.052  17.750  0.00  0.00    +0.000 A 
ATOM      9  N   UNL     1       5.464   6.552  17.562  0.00  0.00    +0.000 NA
ATOM     10  C   UNL     1       5.961   5.816  16.529  0.00  0.00    +0.000 A 
ATOM     11  N   UNL     1       7.204   5.894  16.003  0.00  0.00    +0.000 NA
ATOM     12  C   UNL     1       7.438   4.990  15.022  0.00  0.00    +0.000 A 
ATOM     13  C   UNL     1       6.530   4.036  14.555  0.00  0.00    +0.000 A 
ATOM     14  C   UNL     1       5.249   3.974  15.102  0.00  0.00    +0.000 A 
ATOM     15  C   UNL     1       5.014   4.903  16.099  0.00  0.00    +0.000 A 
ATOM     16  O   UNL     1       3.891   5.077  16.846  0.00  0.00    +0.000 OA
ENDBRANCH   7   8
BRANCH   3  17
ATOM     17  N   UNL     1       0.697   8.840  20.031  0.00  0.00    +0.000 N 
ATOM     18  C   UNL     1       0.805   9.818  21.043  0.00  0.00    +0.000 C 
ATOM     19  O   UNL     1       1.604   9.770  21.956  0.00  0.00    +0.000 OA
ATOM     20  H   UNL     1       0.253   9.188  19.190  0.00  0.00    +0.000 HD
BRANCH  18  21
ATOM     21  C   UNL     1      -0.090  10.967  20.840  0.00  0.00    +0.000 A 
ATOM     22  C   UNL     1      -0.002  12.312  21.194  0.00  0.00    +0.000 A 
ATOM     23  C   UNL     1      -1.142  12.966  20.653  0.00  0.00    +0.000 A 
ATOM     24  C   UNL     1      -1.873  11.993  20.002  0.00  0.00    +0.000 A 
ATOM     25  O   UNL     1      -1.252  10.784  20.138  0.00  0.00    +0.000 OA
BRANCH  24  26
ATOM     26  C   UNL     1      -3.117  11.999  19.244  0.00  0.00    +0.000 A 
ATOM     27  C   UNL     1      -3.149  11.506  17.931  0.00  0.00    +0.000 A 
ATOM     28  C   UNL     1      -4.314  11.591  17.166  0.00  0.00    +0.000 A 
ATOM     29  C   UNL     1      -5.454  12.157  17.719  0.00  0.00    +0.000 A 
ATOM     30  F   UNL     1      -6.561  12.272  16.974  0.00  0.00    +0.000 F 
ATOM     31  C   UNL     1      -5.463  12.609  19.032  0.00  0.00    +0.000 A 
ATOM     32  C   UNL     1      -4.298  12.521  19.796  0.00  0.00    +0.000 A 
ENDBRANCH  24  26
ENDBRANCH  18  21
ENDBRANCH   3  17
TORSDOF 4
ENDMDL
MODEL 8
REMARK VINA RESULT:      -8.4      2.782      3.820
REMARK  Name = 
REMARK  5 active torsions:
REMARK  status: ('A' for Active; 'I' for Inactive)
REMARK    1  A    between atoms: C_1  and  C_2
REMARK    2  A    between atoms: C_3  and  N_4
REMARK    3  A    between atoms: C_5  and  C_7
REMARK    4  A    between atoms: C_10  and  C_11
REMARK    5  A    between atoms: C_22  and  C_23
REMARK                            x       y       z     vdW  Elec       q    Type
REMARK                         _______ _______ _______ _____ _____    ______ ____
ROOT
ATOM      1  C   UNL     1       4.101   7.462  16.991  0.00  0.00    +0.000 C 
ATOM      2  C   UNL     1       4.095   6.204  17.828  0.00  0.00    +0.000 A 
ATOM      3  C   UNL     1       3.418   6.128  19.073  0.00  0.00    +0.000 A 
ATOM      4  C   UNL     1       3.611   4.986  19.871  0.00  0.00    +0.000 A 
ATOM      5  C   UNL     1       4.373   3.901  19.428  0.00  0.00    +0.000 A 
ATOM      6  C   UNL     1       4.974   3.939  18.176  0.00  0.00    +0.000 A 
ATOM      7  C   UNL     1       4.844   5.076  17.360  0.00  0.00    +0.000 A 
ENDROOT
BRANCH   7   8
ATOM      8  C   UNL     1       5.500   5.058  16.047  0.00  0.00    +0.000 A 
ATOM      9  N   UNL     1       6.588   5.687  15.638  0.00  0.00    +0.000 NA
ATOM     10  C   UNL     1       6.819   5.163  14.402  0.00  0.00    +0.000 A 
ATOM     11  N   UNL     1       7.868   5.431  13.592  0.00  0.00    +0.000 NA
ATOM     12  C   UNL     1       7.868   4.709  12.446  0.00  0.00    +0.000 A 
ATOM     13  C   UNL     1       6.913   3.759  12.076  0.00  0.00    +0.000 A 
ATOM     14  C   UNL     1       5.833   3.500  12.919  0.00  0.00    +0.000 A 
ATOM     15  C   UNL     1       5.835   4.243  14.085  0.00  0.00    +0.000 A 
ATOM     16  O   UNL     1       4.950   4.201  15.117  0.00  0.00    +0.000 OA
ENDBRANCH   7   8
BRANCH   3  17
ATOM     17  N   UNL     1       2.630   7.171  19.642  0.00  0.00    +0.000 N 
ATOM     18  C   UNL     1       1.569   7.000  20.558  0.00  0.00    +0.000 C 
ATOM     19  O   UNL     1       1.158   5.921  20.934  0.00  0.00    +0.000 OA
ATOM     20  H   UNL     1       3.065   8.083  19.705  0.00  0.00    +0.000 HD
BRANCH  18  21
ATOM     21  C   UNL     1       1.057   8.269  21.098  0.00  0.00    +0.000 A 
ATOM     22  C   UNL     1       0.765   8.701  22.391  0.00  0.00    +0.000 A 
ATOM     23  C   UNL     1       0.374  10.064  22.301  0.00  0.00    +0.000 A 
ATOM     24  C   UNL     1       0.440  10.398  20.965  0.00  0.00    +0.000 A 
ATOM     25  O   UNL     1       0.825   9.309  20.237  0.00  0.00    +0.000 OA
BRANCH  24  26
ATOM     26  C   UNL     1       0.185  11.620  20.212  0.00  0.00    +0.000 A 
ATOM     27  C   UNL     1       1.140  12.108  19.307  0.00  0.00    +0.000 A 
ATOM     28  C   UNL     1       0.943  13.324  18.650  0.00  0.00    +0.000 A 
ATOM     29  C   UNL     1      -0.216  14.049  18.888  0.00  0.00    +0.000 A 
ATOM     30  F   UNL     1      -0.388  15.233  18.287  0.00  0.00    +0.000 F 
ATOM     31  C   UNL     1      -1.198  13.566  19.744  0.00  0.00    +0.000 A 
ATOM     32  C   UNL     1      -1.001  12.349  20.397  0.00  0.00    +0.000 A 
ENDBRANCH  24  26
ENDBRANCH  18  21
ENDBRANCH   3  17
TORSDOF 4
ENDMDL
MODEL 9
REMARK VINA RESULT:      -8.4      1.836      3.022
REMARK  Name = 
REMARK  5 active torsions:
REMARK  status: ('A' for Active; 'I' for Inactive)
REMARK    1  A    between atoms: C_1  and  C_2
REMARK    2  A    between atoms: C_3  and  N_4
REMARK    3  A    between atoms: C_5  and  C_7
REMARK    4  A    between atoms: C_10  and  C_11
REMARK    5  A    between atoms: C_22  and  C_23
REMARK                            x       y       z     vdW  Elec       q    Type
REMARK                         _______ _______ _______ _____ _____    ______ ____
ROOT
ATOM      1  C   UNL     1       4.446   7.237  17.540  0.00  0.00    +0.000 C 
ATOM      2  C   UNL     1       4.101   5.859  18.055  0.00  0.00    +0.000 A 
ATOM      3  C   UNL     1       3.326   5.664  19.229  0.00  0.00    +0.000 A 
ATOM      4  C   UNL     1       3.203   4.358  19.739  0.00  0.00    +0.000 A 
ATOM      5  C   UNL     1       3.744   3.255  19.073  0.00  0.00    +0.000 A 
ATOM      6  C   UNL     1       4.436   3.434  17.881  0.00  0.00    +0.000 A 
ATOM      7  C   UNL     1       4.622   4.724  17.354  0.00  0.00    +0.000 A 
ENDROOT
BRANCH   7   8
ATOM      8  C   UNL     1       5.360   4.851  16.092  0.00  0.00    +0.000 A 
ATOM      9  N   UNL     1       6.450   5.548  15.818  0.00  0.00    +0.000 NA
ATOM     10  C   UNL     1       6.778   5.152  14.557  0.00  0.00    +0.000 A 
ATOM     11  N   UNL     1       7.866   5.526  13.847  0.00  0.00    +0.000 NA
ATOM     12  C   UNL     1       7.965   4.918  12.641  0.00  0.00    +0.000 A 
ATOM     13  C   UNL     1       7.069   3.981  12.120  0.00  0.00    +0.000 A 
ATOM     14  C   UNL     1       5.947   3.611  12.861  0.00  0.00    +0.000 A 
ATOM     15  C   UNL     1       5.848   4.238  14.089  0.00  0.00    +0.000 A 
ATOM     16  O   UNL     1       4.901   4.072  15.051  0.00  0.00    +0.000 OA
ENDBRANCH   7   8
BRANCH   3  17
ATOM     17  N   UNL     1       2.740   6.704  20.007  0.00  0.00    +0.000 N 
ATOM     18  C   UNL     1       1.873   7.710  19.525  0.00  0.00    +0.000 C 
ATOM     19  O   UNL     1       1.563   7.843  18.359  0.00  0.00    +0.000 OA
ATOM     20  H   UNL     1       2.618   6.516  20.994  0.00  0.00    +0.000 HD
BRANCH  18  21
ATOM     21  C   UNL     1       1.295   8.540  20.594  0.00  0.00    +0.000 A 
ATOM     22  C   UNL     1       1.541   8.630  21.962  0.00  0.00    +0.000 A 
ATOM     23  C   UNL     1       0.723   9.677  22.469  0.00  0.00    +0.000 A 
ATOM     24  C   UNL     1       0.016  10.169  21.392  0.00  0.00    +0.000 A 
ATOM     25  O   UNL     1       0.341   9.466  20.268  0.00  0.00    +0.000 OA
BRANCH  24  26
ATOM     26  C   UNL     1      -0.967  11.233  21.228  0.00  0.00    +0.000 A 
ATOM     27  C   UNL     1      -1.537  11.851  22.351  0.00  0.00    +0.000 A 
ATOM     28  C   UNL     1      -2.544  12.807  22.205  0.00  0.00    +0.000 A 
ATOM     29  C   UNL     1      -2.975  13.155  20.932  0.00  0.00    +0.000 A 
ATOM     30  F   UNL     1      -3.966  14.044  20.791  0.00  0.00    +0.000 F 
ATOM     31  C   UNL     1      -2.395  12.592  19.802  0.00  0.00    +0.000 A 
ATOM     32  C   UNL     1      -1.386  11.640  19.950  0.00  0.00    +0.000 A 
ENDBRANCH  24  26
ENDBRANCH  18  21
ENDBRANCH   3  17
TORSDOF 4
ENDMDL
