MODEL 1
REMARK VINA RESULT:      -9.1      0.000      0.000
REMARK  Name = 
REMARK  8 active torsions:
REMARK  status: ('A' for Active; 'I' for Inactive)
REMARK    1  A    between atoms: C_1  and  C_2
REMARK    2  A    between atoms: C_2  and  N_3
REMARK    3  A    between atoms: C_5  and  C_6
REMARK    4  A    between atoms: C_8  and  C_9
REMARK    5  A    between atoms: N_11  and  C_12
REMARK    6  A    between atoms: C_13  and  C_14
REMARK    7  A    between atoms: C_17  and  C_18
REMARK    8  A    between atoms: C_26  and  C_27
REMARK                            x       y       z     vdW  Elec       q    Type
REMARK                         _______ _______ _______ _____ _____    ______ ____
ROOT
ATOM      1  C   UNL     1       4.572   5.197  17.510  0.00  0.00    +0.000 A 
ATOM      2  C   UNL     1       3.725   6.273  17.689  0.00  0.00    +0.000 A 
ATOM      3  C   UNL     1       2.777   6.236  18.722  0.00  0.00    +0.000 A 
ATOM      4  C   UNL     1       2.692   5.092  19.561  0.00  0.00    +0.000 A 
ATOM      5  C   UNL     1       1.759   4.880  20.610  0.00  0.00    +0.000 A 
ATOM      6  C   UNL     1       1.783   3.711  21.380  0.00  0.00    +0.000 A 
ATOM      7  C   UNL     1       2.715   2.722  21.106  0.00  0.00    +0.000 A 
ATOM      8  C   UNL     1       3.612   2.902  20.055  0.00  0.00    +0.000 A 
ATOM      9  C   UNL     1       3.619   4.057  19.286  0.00  0.00    +0.000 A 
ATOM     10  N   UNL     1       4.522   4.108  18.301  0.00  0.00    +0.000 NA
ENDROOT
BRANCH   1  13
ATOM     11  N   UNL     1       6.611   4.709  14.584  0.00  0.00    +0.000 N 
ATOM     12  C   UNL     1       5.474   4.463  15.296  0.00  0.00    +0.000 A 
ATOM     13  C   UNL     1       5.581   5.185  16.464  0.00  0.00    +0.000 A 
ATOM     14  C   UNL     1       6.833   5.858  16.350  0.00  0.00    +0.000 A 
ATOM     15  C   UNL     1       7.506   6.768  17.312  0.00  0.00    +0.000 C 
ATOM     16  N   UNL     1       7.451   5.559  15.197  0.00  0.00    +0.000 NA
BRANCH  11  18
ATOM     17  C   UNL     1       5.763   3.528  12.601  0.00  0.00    +0.000 C 
ATOM     18  C   UNL     1       6.964   4.142  13.298  0.00  0.00    +0.000 C 
ENDBRANCH  11  18
ENDBRANCH   1  13
BRANCH   3  19
ATOM     19  C   UNL     1       1.882   7.433  18.777  0.00  0.00    +0.000 C 
ATOM     20  O   UNL     1       1.335   7.783  17.735  0.00  0.00    +0.000 OA
ATOM     21  N   UNL     1       1.841   8.159  19.954  0.00  0.00    +0.000 N 
ATOM     22  H   UNL     1       2.615   8.060  20.598  0.00  0.00    +0.000 HD
BRANCH  21  23
ATOM     23  C   UNL     1       1.108   9.352  20.023  0.00  0.00    +0.000 A 
ATOM     24  C   UNL     1       1.230  10.560  19.279  0.00  0.00    +0.000 A 
ATOM     25  C   UNL     1       2.130  10.902  18.150  0.00  0.00    +0.000 C 
ATOM     26  N   UNL     1       0.316  11.463  19.658  0.00  0.00    +0.000 NA
ATOM     27  O   UNL     1      -0.383  10.871  20.687  0.00  0.00    +0.000 OA
ATOM     28  C   UNL     1       0.089   9.623  20.910  0.00  0.00    +0.000 A 
ATOM     29  C   UNL     1      -0.480   8.941  22.089  0.00  0.00    +0.000 C 
ENDBRANCH  21  23
ENDBRANCH   3  19
TORSDOF 4
ENDMDL
MODEL 2
REMARK VINA RESULT:      -8.8      0.959      1.514
REMARK  Name = 
REMARK  8 active torsions:
REMARK  status: ('A' for Active; 'I' for Inactive)
REMARK    1  A    between atoms: C_1  and  C_2
REMARK    2  A    between atoms: C_2  and  N_3
REMARK    3  A    between atoms: C_5  and  C_6
REMARK    4  A    between atoms: C_8  and  C_9
REMARK    5  A    between atoms: N_11  and  C_12
REMARK    6  A    between atoms: C_13  and  C_14
REMARK    7  A    between atoms: C_17  and  C_18
REMARK    8  A    between atoms: C_26  and  C_27
REMARK                            x       y       z     vdW  Elec       q    Type
REMARK                         _______ _______ _______ _____ _____    ______ ____
ROOT
ATOM      1  C   UNL     1       4.393   5.128  17.298  0.00  0.00    +0.000 A 
ATOM      2  C   UNL     1       3.831   6.331  17.678  0.00  0.00    +0.000 A 
ATOM      3  C   UNL     1       2.848   6.345  18.677  0.00  0.00    +0.000 A 
ATOM      4  C   UNL     1       2.433   5.125  19.276  0.00  0.00    +0.000 A 
ATOM      5  C   UNL     1       1.419   4.966  20.257  0.00  0.00    +0.000 A 
ATOM      6  C   UNL     1       1.108   3.706  20.784  0.00  0.00    +0.000 A 
ATOM      7  C   UNL     1       1.779   2.582  20.329  0.00  0.00    +0.000 A 
ATOM      8  C   UNL     1       2.749   2.720  19.340  0.00  0.00    +0.000 A 
ATOM      9  C   UNL     1       3.088   3.957  18.811  0.00  0.00    +0.000 A 
ATOM     10  N   UNL     1       4.029   3.960  17.861  0.00  0.00    +0.000 NA
ENDROOT
BRANCH   1  13
ATOM     11  N   UNL     1       6.460   4.537  14.411  0.00  0.00    +0.000 N 
ATOM     12  C   UNL     1       5.288   4.371  15.089  0.00  0.00    +0.000 A 
ATOM     13  C   UNL     1       5.424   5.054  16.277  0.00  0.00    +0.000 A 
ATOM     14  C   UNL     1       6.731   5.621  16.210  0.00  0.00    +0.000 A 
ATOM     15  C   UNL     1       7.453   6.448  17.210  0.00  0.00    +0.000 C 
ATOM     16  N   UNL     1       7.351   5.297  15.065  0.00  0.00    +0.000 NA
BRANCH  11  18
ATOM     17  C   UNL     1       5.582   3.386  12.423  0.00  0.00    +0.000 C 
ATOM     18  C   UNL     1       6.797   3.971  13.120  0.00  0.00    +0.000 C 
ENDBRANCH  11  18
ENDBRANCH   1  13
BRANCH   3  19
ATOM     19  C   UNL     1       2.278   7.699  18.958  0.00  0.00    +0.000 C 
ATOM     20  O   UNL     1       2.711   8.646  18.307  0.00  0.00    +0.000 OA
ATOM     21  N   UNL     1       1.411   7.828  20.028  0.00  0.00    +0.000 N 
ATOM     22  H   UNL     1       1.438   7.117  20.748  0.00  0.00    +0.000 HD
BRANCH  21  23
ATOM     23  C   UNL     1       0.936   9.092  20.405  0.00  0.00    +0.000 A 
ATOM     24  C   UNL     1       0.958   9.753  21.666  0.00  0.00    +0.000 A 
ATOM     25  C   UNL     1       1.556   9.331  22.958  0.00  0.00    +0.000 C 
ATOM     26  N   UNL     1       0.400  10.968  21.593  0.00  0.00    +0.000 NA
ATOM     27  O   UNL     1      -0.035  11.096  20.292  0.00  0.00    +0.000 OA
ATOM     28  C   UNL     1       0.275   9.983  19.589  0.00  0.00    +0.000 A 
ATOM     29  C   UNL     1      -0.273   9.936  18.218  0.00  0.00    +0.000 C 
ENDBRANCH  21  23
ENDBRANCH   3  19
TORSDOF 4
ENDMDL
MODEL 3
REMARK VINA RESULT:      -8.8      2.365      7.333
REMARK  Name = 
REMARK  8 active torsions:
REMARK  status: ('A' for Active; 'I' for Inactive)
REMARK    1  A    between atoms: C_1  and  C_2
REMARK    2  A    between atoms: C_2  and  N_3
REMARK    3  A    between atoms: C_5  and  C_6
REMARK    4  A    between atoms: C_8  and  C_9
REMARK    5  A    between atoms: N_11  and  C_12
REMARK    6  A    between atoms: C_13  and  C_14
REMARK    7  A    between atoms: C_17  and  C_18
REMARK    8  A    between atoms: C_26  and  C_27
REMARK                            x       y       z     vdW  Elec       q    Type
REMARK                         _______ _______ _______ _____ _____    ______ ____
ROOT
ATOM      1  C   UNL     1       2.085   6.841  20.116  0.00  0.00    +0.000 A 
ATOM      2  C   UNL     1       3.181   6.599  19.312  0.00  0.00    +0.000 A 
ATOM      3  C   UNL     1       3.699   5.298  19.229  0.00  0.00    +0.000 A 
ATOM      4  C   UNL     1       3.100   4.252  19.982  0.00  0.00    +0.000 A 
ATOM      5  C   UNL     1       3.534   2.902  20.048  0.00  0.00    +0.000 A 
ATOM      6  C   UNL     1       2.850   1.954  20.819  0.00  0.00    +0.000 A 
ATOM      7  C   UNL     1       1.740   2.335  21.556  0.00  0.00    +0.000 A 
ATOM      8  C   UNL     1       1.325   3.664  21.529  0.00  0.00    +0.000 A 
ATOM      9  C   UNL     1       1.976   4.620  20.763  0.00  0.00    +0.000 A 
ATOM     10  N   UNL     1       1.490   5.864  20.827  0.00  0.00    +0.000 NA
ENDROOT
BRANCH   1  13
ATOM     11  N   UNL     1       0.556   9.947  21.103  0.00  0.00    +0.000 N 
ATOM     12  C   UNL     1       1.024   8.702  21.407  0.00  0.00    +0.000 A 
ATOM     13  C   UNL     1       1.499   8.166  20.230  0.00  0.00    +0.000 A 
ATOM     14  C   UNL     1       1.283   9.192  19.263  0.00  0.00    +0.000 A 
ATOM     15  C   UNL     1       1.572   9.190  17.806  0.00  0.00    +0.000 C 
ATOM     16  N   UNL     1       0.708  10.273  19.810  0.00  0.00    +0.000 NA
BRANCH  11  18
ATOM     17  C   UNL     1      -0.809  10.168  23.136  0.00  0.00    +0.000 C 
ATOM     18  C   UNL     1      -0.069  10.881  22.019  0.00  0.00    +0.000 C 
ENDBRANCH  11  18
ENDBRANCH   1  13
BRANCH   3  19
ATOM     19  C   UNL     1       4.918   5.176  18.373  0.00  0.00    +0.000 C 
ATOM     20  O   UNL     1       5.918   4.667  18.873  0.00  0.00    +0.000 OA
ATOM     21  N   UNL     1       4.897   5.775  17.126  0.00  0.00    +0.000 N 
ATOM     22  H   UNL     1       4.222   6.511  16.966  0.00  0.00    +0.000 HD
BRANCH  21  23
ATOM     23  C   UNL     1       6.051   5.789  16.329  0.00  0.00    +0.000 A 
ATOM     24  C   UNL     1       6.394   5.019  15.181  0.00  0.00    +0.000 A 
ATOM     25  C   UNL     1       5.602   4.011  14.433  0.00  0.00    +0.000 C 
ATOM     26  N   UNL     1       7.602   5.354  14.710  0.00  0.00    +0.000 NA
ATOM     27  O   UNL     1       8.081   6.314  15.574  0.00  0.00    +0.000 OA
ATOM     28  C   UNL     1       7.168   6.568  16.538  0.00  0.00    +0.000 A 
ATOM     29  C   UNL     1       7.626   7.471  17.612  0.00  0.00    +0.000 C 
ENDBRANCH  21  23
ENDBRANCH   3  19
TORSDOF 4
ENDMDL
MODEL 4
REMARK VINA RESULT:      -8.8      1.944      7.679
REMARK  Name = 
REMARK  8 active torsions:
REMARK  status: ('A' for Active; 'I' for Inactive)
REMARK    1  A    between atoms: C_1  and  C_2
REMARK    2  A    between atoms: C_2  and  N_3
REMARK    3  A    between atoms: C_5  and  C_6
REMARK    4  A    between atoms: C_8  and  C_9
REMARK    5  A    between atoms: N_11  and  C_12
REMARK    6  A    between atoms: C_13  and  C_14
REMARK    7  A    between atoms: C_17  and  C_18
REMARK    8  A    between atoms: C_26  and  C_27
REMARK                            x       y       z     vdW  Elec       q    Type
REMARK                         _______ _______ _______ _____ _____    ______ ____
ROOT
ATOM      1  C   UNL     1       1.522   7.329  20.368  0.00  0.00    +0.000 A 
ATOM      2  C   UNL     1       2.474   7.391  19.370  0.00  0.00    +0.000 A 
ATOM      3  C   UNL     1       3.141   6.219  18.982  0.00  0.00    +0.000 A 
ATOM      4  C   UNL     1       2.838   4.989  19.627  0.00  0.00    +0.000 A 
ATOM      5  C   UNL     1       3.458   3.734  19.387  0.00  0.00    +0.000 A 
ATOM      6  C   UNL     1       3.062   2.584  20.080  0.00  0.00    +0.000 A 
ATOM      7  C   UNL     1       2.064   2.664  21.039  0.00  0.00    +0.000 A 
ATOM      8  C   UNL     1       1.475   3.896  21.310  0.00  0.00    +0.000 A 
ATOM      9  C   UNL     1       1.838   5.049  20.628  0.00  0.00    +0.000 A 
ATOM     10  N   UNL     1       1.206   6.173  20.983  0.00  0.00    +0.000 NA
ENDROOT
BRANCH   1  13
ATOM     11  N   UNL     1      -0.261   9.931  22.100  0.00  0.00    +0.000 N 
ATOM     12  C   UNL     1       0.390   8.733  22.100  0.00  0.00    +0.000 A 
ATOM     13  C   UNL     1       0.792   8.507  20.802  0.00  0.00    +0.000 A 
ATOM     14  C   UNL     1       0.341   9.657  20.089  0.00  0.00    +0.000 A 
ATOM     15  C   UNL     1       0.461   9.977  18.643  0.00  0.00    +0.000 C 
ATOM     16  N   UNL     1      -0.299  10.518  20.894  0.00  0.00    +0.000 NA
BRANCH  11  18
ATOM     17  C   UNL     1      -1.748  11.752  22.822  0.00  0.00    +0.000 C 
ATOM     18  C   UNL     1      -0.891  10.571  23.239  0.00  0.00    +0.000 C 
ENDBRANCH  11  18
ENDBRANCH   1  13
BRANCH   3  19
ATOM     19  C   UNL     1       4.187   6.427  17.935  0.00  0.00    +0.000 C 
ATOM     20  O   UNL     1       3.922   7.184  17.005  0.00  0.00    +0.000 OA
ATOM     21  N   UNL     1       5.328   5.647  17.994  0.00  0.00    +0.000 N 
ATOM     22  H   UNL     1       5.284   4.783  18.519  0.00  0.00    +0.000 HD
BRANCH  21  23
ATOM     23  C   UNL     1       6.289   5.720  16.976  0.00  0.00    +0.000 A 
ATOM     24  C   UNL     1       6.546   4.849  15.879  0.00  0.00    +0.000 A 
ATOM     25  C   UNL     1       5.827   3.628  15.437  0.00  0.00    +0.000 C 
ATOM     26  N   UNL     1       7.562   5.293  15.128  0.00  0.00    +0.000 NA
ATOM     27  O   UNL     1       8.011   6.436  15.754  0.00  0.00    +0.000 OA
ATOM     28  C   UNL     1       7.263   6.686  16.853  0.00  0.00    +0.000 A 
ATOM     29  C   UNL     1       7.741   7.802  17.694  0.00  0.00    +0.000 C 
ENDBRANCH  21  23
ENDBRANCH   3  19
TORSDOF 4
ENDMDL
MODEL 5
REMARK VINA RESULT:      -8.7      1.102      1.841
REMARK  Name = 
REMARK  8 active torsions:
REMARK  status: ('A' for Active; 'I' for Inactive)
REMARK    1  A    between atoms: C_1  and  C_2
REMARK    2  A    between atoms: C_2  and  N_3
REMARK    3  A    between atoms: C_5  and  C_6
REMARK    4  A    between atoms: C_8  and  C_9
REMARK    5  A    between atoms: N_11  and  C_12
REMARK    6  A    between atoms: C_13  and  C_14
REMARK    7  A    between atoms: C_17  and  C_18
REMARK    8  A    between atoms: C_26  and  C_27
REMARK                            x       y       z     vdW  Elec       q    Type
REMARK                         _______ _______ _______ _____ _____    ______ ____
ROOT
ATOM      1  C   UNL     1       4.353   5.151  17.516  0.00  0.00    +0.000 A 
ATOM      2  C   UNL     1       3.854   6.252  18.183  0.00  0.00    +0.000 A 
ATOM      3  C   UNL     1       2.817   6.082  19.111  0.00  0.00    +0.000 A 
ATOM      4  C   UNL     1       2.285   4.784  19.344  0.00  0.00    +0.000 A 
ATOM      5  C   UNL     1       1.206   4.455  20.207  0.00  0.00    +0.000 A 
ATOM      6  C   UNL     1       0.778   3.131  20.364  0.00  0.00    +0.000 A 
ATOM      7  C   UNL     1       1.397   2.116  19.650  0.00  0.00    +0.000 A 
ATOM      8  C   UNL     1       2.431   2.431  18.773  0.00  0.00    +0.000 A 
ATOM      9  C   UNL     1       2.884   3.732  18.609  0.00  0.00    +0.000 A 
ATOM     10  N   UNL     1       3.877   3.909  17.731  0.00  0.00    +0.000 NA
ENDROOT
BRANCH   1  13
ATOM     11  N   UNL     1       6.586   5.061  14.694  0.00  0.00    +0.000 N 
ATOM     12  C   UNL     1       5.391   4.753  15.276  0.00  0.00    +0.000 A 
ATOM     13  C   UNL     1       5.436   5.265  16.554  0.00  0.00    +0.000 A 
ATOM     14  C   UNL     1       6.715   5.890  16.639  0.00  0.00    +0.000 A 
ATOM     15  C   UNL     1       7.346   6.595  17.784  0.00  0.00    +0.000 C 
ATOM     16  N   UNL     1       7.406   5.758  15.496  0.00  0.00    +0.000 NA
BRANCH  11  18
ATOM     17  C   UNL     1       6.199   3.548  12.795  0.00  0.00    +0.000 C 
ATOM     18  C   UNL     1       7.013   4.699  13.357  0.00  0.00    +0.000 C 
ENDBRANCH  11  18
ENDBRANCH   1  13
BRANCH   3  19
ATOM     19  C   UNL     1       2.325   7.355  19.722  0.00  0.00    +0.000 C 
ATOM     20  O   UNL     1       2.352   7.448  20.946  0.00  0.00    +0.000 OA
ATOM     21  N   UNL     1       1.733   8.287  18.889  0.00  0.00    +0.000 N 
ATOM     22  H   UNL     1       1.375   7.967  17.998  0.00  0.00    +0.000 HD
BRANCH  21  23
ATOM     23  C   UNL     1       1.154   9.447  19.424  0.00  0.00    +0.000 A 
ATOM     24  C   UNL     1       0.154   9.606  20.425  0.00  0.00    +0.000 A 
ATOM     25  C   UNL     1      -0.534   8.591  21.262  0.00  0.00    +0.000 C 
ATOM     26  N   UNL     1      -0.112  10.899  20.650  0.00  0.00    +0.000 NA
ATOM     27  O   UNL     1       0.678  11.598  19.764  0.00  0.00    +0.000 OA
ATOM     28  C   UNL     1       1.423  10.739  19.031  0.00  0.00    +0.000 A 
ATOM     29  C   UNL     1       2.201  11.359  17.941  0.00  0.00    +0.000 C 
ENDBRANCH  21  23
ENDBRANCH   3  19
TORSDOF 4
ENDMDL
MODEL 6
REMARK VINA RESULT:      -8.6      1.011      1.011
REMARK  Name = 
REMARK  8 active torsions:
REMARK  status: ('A' for Active; 'I' for Inactive)
REMARK    1  A    between atoms: C_1  and  C_2
REMARK    2  A    between atoms: C_2  and  N_3
REMARK    3  A    between atoms: C_5  and  C_6
REMARK    4  A    between atoms: C_8  and  C_9
REMARK    5  A    between atoms: N_11  and  C_12
REMARK    6  A    between atoms: C_13  and  C_14
REMARK    7  A    between atoms: C_17  and  C_18
REMARK    8  A    between atoms: C_26  and  C_27
REMARK                            x       y       z     vdW  Elec       q    Type
REMARK                         _______ _______ _______ _____ _____    ______ ____
ROOT
ATOM      1  C   UNL     1       4.318   5.152  17.491  0.00  0.00    +0.000 A 
ATOM      2  C   UNL     1       3.832   6.277  18.129  0.00  0.00    +0.000 A 
ATOM      3  C   UNL     1       2.803   6.141  19.071  0.00  0.00    +0.000 A 
ATOM      4  C   UNL     1       2.266   4.854  19.349  0.00  0.00    +0.000 A 
ATOM      5  C   UNL     1       1.194   4.557  20.231  0.00  0.00    +0.000 A 
ATOM      6  C   UNL     1       0.761   3.241  20.434  0.00  0.00    +0.000 A 
ATOM      7  C   UNL     1       1.367   2.202  19.745  0.00  0.00    +0.000 A 
ATOM      8  C   UNL     1       2.394   2.484  18.849  0.00  0.00    +0.000 A 
ATOM      9  C   UNL     1       2.852   3.776  18.640  0.00  0.00    +0.000 A 
ATOM     10  N   UNL     1       3.838   3.921  17.748  0.00  0.00    +0.000 NA
ENDROOT
BRANCH   1  13
ATOM     11  N   UNL     1       6.542   4.924  14.669  0.00  0.00    +0.000 N 
ATOM     12  C   UNL     1       5.362   4.618  15.282  0.00  0.00    +0.000 A 
ATOM     13  C   UNL     1       5.392   5.232  16.515  0.00  0.00    +0.000 A 
ATOM     14  C   UNL     1       6.647   5.909  16.542  0.00  0.00    +0.000 A 
ATOM     15  C   UNL     1       7.255   6.727  17.622  0.00  0.00    +0.000 C 
ATOM     16  N   UNL     1       7.338   5.713  15.408  0.00  0.00    +0.000 NA
BRANCH  11  18
ATOM     17  C   UNL     1       5.978   3.524  12.729  0.00  0.00    +0.000 C 
ATOM     18  C   UNL     1       6.977   4.474  13.363  0.00  0.00    +0.000 C 
ENDBRANCH  11  18
ENDBRANCH   1  13
BRANCH   3  19
ATOM     19  C   UNL     1       2.324   7.434  19.647  0.00  0.00    +0.000 C 
ATOM     20  O   UNL     1       2.468   7.610  20.854  0.00  0.00    +0.000 OA
ATOM     21  N   UNL     1       1.616   8.290  18.821  0.00  0.00    +0.000 N 
ATOM     22  H   UNL     1       1.185   7.899  17.993  0.00  0.00    +0.000 HD
BRANCH  21  23
ATOM     23  C   UNL     1       1.047   9.462  19.338  0.00  0.00    +0.000 A 
ATOM     24  C   UNL     1       1.313  10.830  19.043  0.00  0.00    +0.000 A 
ATOM     25  C   UNL     1       2.228  11.433  18.042  0.00  0.00    +0.000 C 
ATOM     26  N   UNL     1       0.533  11.647  19.762  0.00  0.00    +0.000 NA
ATOM     27  O   UNL     1      -0.218  10.822  20.571  0.00  0.00    +0.000 OA
ATOM     28  C   UNL     1       0.091   9.528  20.327  0.00  0.00    +0.000 A 
ATOM     29  C   UNL     1      -0.539   8.552  21.238  0.00  0.00    +0.000 C 
ENDBRANCH  21  23
ENDBRANCH   3  19
TORSDOF 4
ENDMDL
MODEL 7
REMARK VINA RESULT:      -8.4      1.439      1.920
REMARK  Name = 
REMARK  8 active torsions:
REMARK  status: ('A' for Active; 'I' for Inactive)
REMARK    1  A    between atoms: C_1  and  C_2
REMARK    2  A    between atoms: C_2  and  N_3
REMARK    3  A    between atoms: C_5  and  C_6
REMARK    4  A    between atoms: C_8  and  C_9
REMARK    5  A    between atoms: N_11  and  C_12
REMARK    6  A    between atoms: C_13  and  C_14
REMARK    7  A    between atoms: C_17  and  C_18
REMARK    8  A    between atoms: C_26  and  C_27
REMARK                            x       y       z     vdW  Elec       q    Type
REMARK                         _______ _______ _______ _____ _____    ______ ____
ROOT
ATOM      1  C   UNL     1       4.337   5.567  17.458  0.00  0.00    +0.000 A 
ATOM      2  C   UNL     1       3.738   6.746  17.853  0.00  0.00    +0.000 A 
ATOM      3  C   UNL     1       2.683   6.705  18.776  0.00  0.00    +0.000 A 
ATOM      4  C   UNL     1       2.236   5.454  19.282  0.00  0.00    +0.000 A 
ATOM      5  C   UNL     1       1.154   5.241  20.176  0.00  0.00    +0.000 A 
ATOM      6  C   UNL     1       0.816   3.955  20.616  0.00  0.00    +0.000 A 
ATOM      7  C   UNL     1       1.530   2.859  20.158  0.00  0.00    +0.000 A 
ATOM      8  C   UNL     1       2.570   3.051  19.252  0.00  0.00    +0.000 A 
ATOM      9  C   UNL     1       2.935   4.315  18.810  0.00  0.00    +0.000 A 
ATOM     10  N   UNL     1       3.943   4.370  17.934  0.00  0.00    +0.000 NA
ENDROOT
BRANCH   1  13
ATOM     11  N   UNL     1       6.600   5.179  14.686  0.00  0.00    +0.000 N 
ATOM     12  C   UNL     1       5.372   5.001  15.253  0.00  0.00    +0.000 A 
ATOM     13  C   UNL     1       5.442   5.550  16.514  0.00  0.00    +0.000 A 
ATOM     14  C   UNL     1       6.772   6.056  16.606  0.00  0.00    +0.000 A 
ATOM     15  C   UNL     1       7.446   6.739  17.740  0.00  0.00    +0.000 C 
ATOM     16  N   UNL     1       7.467   5.823  15.482  0.00  0.00    +0.000 NA
BRANCH  11  18
ATOM     17  C   UNL     1       6.139   3.610  12.850  0.00  0.00    +0.000 C 
ATOM     18  C   UNL     1       7.015   4.734  13.370  0.00  0.00    +0.000 C 
ENDBRANCH  11  18
ENDBRANCH   1  13
BRANCH   3  19
ATOM     19  C   UNL     1       2.081   8.040  19.079  0.00  0.00    +0.000 C 
ATOM     20  O   UNL     1       1.806   8.289  20.249  0.00  0.00    +0.000 OA
ATOM     21  N   UNL     1       1.731   8.850  18.013  0.00  0.00    +0.000 N 
ATOM     22  H   UNL     1       1.598   8.413  17.110  0.00  0.00    +0.000 HD
BRANCH  21  23
ATOM     23  C   UNL     1       1.060  10.061  18.236  0.00  0.00    +0.000 A 
ATOM     24  C   UNL     1      -0.326  10.334  18.417  0.00  0.00    +0.000 A 
ATOM     25  C   UNL     1      -1.482   9.406  18.495  0.00  0.00    +0.000 C 
ATOM     26  N   UNL     1      -0.547  11.640  18.612  0.00  0.00    +0.000 NA
ATOM     27  O   UNL     1       0.689  12.242  18.514  0.00  0.00    +0.000 OA
ATOM     28  C   UNL     1       1.641  11.309  18.284  0.00  0.00    +0.000 A 
ATOM     29  C   UNL     1       2.989  11.846  18.009  0.00  0.00    +0.000 C 
ENDBRANCH  21  23
ENDBRANCH   3  19
TORSDOF 4
ENDMDL
MODEL 8
REMARK VINA RESULT:      -8.3      2.382      7.333
REMARK  Name = 
REMARK  8 active torsions:
REMARK  status: ('A' for Active; 'I' for Inactive)
REMARK    1  A    between atoms: C_1  and  C_2
REMARK    2  A    between atoms: C_2  and  N_3
REMARK    3  A    between atoms: C_5  and  C_6
REMARK    4  A    between atoms: C_8  and  C_9
REMARK    5  A    between atoms: N_11  and  C_12
REMARK    6  A    between atoms: C_13  and  C_14
REMARK    7  A    between atoms: C_17  and  C_18
REMARK    8  A    between atoms: C_26  and  C_27
REMARK                            x       y       z     vdW  Elec       q    Type
REMARK                         _______ _______ _______ _____ _____    ______ ____
ROOT
ATOM      1  C   UNL     1       2.032   6.836  20.110  0.00  0.00    +0.000 A 
ATOM      2  C   UNL     1       3.143   6.599  19.325  0.00  0.00    +0.000 A 
ATOM      3  C   UNL     1       3.671   5.302  19.256  0.00  0.00    +0.000 A 
ATOM      4  C   UNL     1       3.067   4.253  20.001  0.00  0.00    +0.000 A 
ATOM      5  C   UNL     1       3.510   2.906  20.078  0.00  0.00    +0.000 A 
ATOM      6  C   UNL     1       2.819   1.955  20.839  0.00  0.00    +0.000 A 
ATOM      7  C   UNL     1       1.693   2.331  21.556  0.00  0.00    +0.000 A 
ATOM      8  C   UNL     1       1.270   3.657  21.518  0.00  0.00    +0.000 A 
ATOM      9  C   UNL     1       1.928   4.616  20.761  0.00  0.00    +0.000 A 
ATOM     10  N   UNL     1       1.431   5.856  20.813  0.00  0.00    +0.000 NA
ENDROOT
BRANCH   1  13
ATOM     11  N   UNL     1       0.407   9.909  21.045  0.00  0.00    +0.000 N 
ATOM     12  C   UNL     1       0.846   8.654  21.352  0.00  0.00    +0.000 A 
ATOM     13  C   UNL     1       1.434   8.157  20.210  0.00  0.00    +0.000 A 
ATOM     14  C   UNL     1       1.311   9.213  19.260  0.00  0.00    +0.000 A 
ATOM     15  C   UNL     1       1.740   9.259  17.839  0.00  0.00    +0.000 C 
ATOM     16  N   UNL     1       0.683  10.277  19.784  0.00  0.00    +0.000 NA
BRANCH  11  18
ATOM     17  C   UNL     1      -0.747  10.125  23.205  0.00  0.00    +0.000 C 
ATOM     18  C   UNL     1      -0.306  10.812  21.926  0.00  0.00    +0.000 C 
ENDBRANCH  11  18
ENDBRANCH   1  13
BRANCH   3  19
ATOM     19  C   UNL     1       4.906   5.186  18.421  0.00  0.00    +0.000 C 
ATOM     20  O   UNL     1       5.919   4.745  18.958  0.00  0.00    +0.000 OA
ATOM     21  N   UNL     1       4.879   5.719  17.145  0.00  0.00    +0.000 N 
ATOM     22  H   UNL     1       4.177   6.418  16.939  0.00  0.00    +0.000 HD
BRANCH  21  23
ATOM     23  C   UNL     1       6.042   5.739  16.362  0.00  0.00    +0.000 A 
ATOM     24  C   UNL     1       7.229   6.516  16.485  0.00  0.00    +0.000 A 
ATOM     25  C   UNL     1       7.628   7.497  17.525  0.00  0.00    +0.000 C 
ATOM     26  N   UNL     1       8.111   6.219  15.522  0.00  0.00    +0.000 NA
ATOM     27  O   UNL     1       7.490   5.277  14.731  0.00  0.00    +0.000 OA
ATOM     28  C   UNL     1       6.262   4.997  15.222  0.00  0.00    +0.000 A 
ATOM     29  C   UNL     1       5.436   4.111  14.377  0.00  0.00    +0.000 C 
ENDBRANCH  21  23
ENDBRANCH   3  19
TORSDOF 4
ENDMDL
MODEL 9
REMARK VINA RESULT:      -8.3      1.969      7.636
REMARK  Name = 
REMARK  8 active torsions:
REMARK  status: ('A' for Active; 'I' for Inactive)
REMARK    1  A    between atoms: C_1  and  C_2
REMARK    2  A    between atoms: C_2  and  N_3
REMARK    3  A    between atoms: C_5  and  C_6
REMARK    4  A    between atoms: C_8  and  C_9
REMARK    5  A    between atoms: N_11  and  C_12
REMARK    6  A    between atoms: C_13  and  C_14
REMARK    7  A    between atoms: C_17  and  C_18
REMARK    8  A    between atoms: C_26  and  C_27
REMARK                            x       y       z     vdW  Elec       q    Type
REMARK                         _______ _______ _______ _____ _____    ______ ____
ROOT
ATOM      1  C   UNL     1       1.497   7.315  20.356  0.00  0.00    +0.000 A 
ATOM      2  C   UNL     1       2.458   7.372  19.366  0.00  0.00    +0.000 A 
ATOM      3  C   UNL     1       3.122   6.198  18.984  0.00  0.00    +0.000 A 
ATOM      4  C   UNL     1       2.809   4.969  19.628  0.00  0.00    +0.000 A 
ATOM      5  C   UNL     1       3.425   3.712  19.394  0.00  0.00    +0.000 A 
ATOM      6  C   UNL     1       3.018   2.563  20.084  0.00  0.00    +0.000 A 
ATOM      7  C   UNL     1       2.013   2.649  21.035  0.00  0.00    +0.000 A 
ATOM      8  C   UNL     1       1.427   3.884  21.300  0.00  0.00    +0.000 A 
ATOM      9  C   UNL     1       1.800   5.034  20.620  0.00  0.00    +0.000 A 
ATOM     10  N   UNL     1       1.171   6.161  20.970  0.00  0.00    +0.000 NA
ENDROOT
BRANCH   1  13
ATOM     11  N   UNL     1      -0.303   9.920  22.069  0.00  0.00    +0.000 N 
ATOM     12  C   UNL     1       0.335   8.714  22.073  0.00  0.00    +0.000 A 
ATOM     13  C   UNL     1       0.768   8.497  20.784  0.00  0.00    +0.000 A 
ATOM     14  C   UNL     1       0.348   9.659  20.070  0.00  0.00    +0.000 A 
ATOM     15  C   UNL     1       0.510   9.992  18.632  0.00  0.00    +0.000 C 
ATOM     16  N   UNL     1      -0.303  10.519  20.868  0.00  0.00    +0.000 NA
BRANCH  11  18
ATOM     17  C   UNL     1      -1.286  12.009  22.915  0.00  0.00    +0.000 C 
ATOM     18  C   UNL     1      -0.955  10.554  23.197  0.00  0.00    +0.000 C 
ENDBRANCH  11  18
ENDBRANCH   1  13
BRANCH   3  19
ATOM     19  C   UNL     1       4.178   6.400  17.946  0.00  0.00    +0.000 C 
ATOM     20  O   UNL     1       3.897   7.097  16.974  0.00  0.00    +0.000 OA
ATOM     21  N   UNL     1       5.351   5.675  18.063  0.00  0.00    +0.000 N 
ATOM     22  H   UNL     1       5.334   4.837  18.630  0.00  0.00    +0.000 HD
BRANCH  21  23
ATOM     23  C   UNL     1       6.327   5.741  17.059  0.00  0.00    +0.000 A 
ATOM     24  C   UNL     1       7.329   6.720  16.803  0.00  0.00    +0.000 A 
ATOM     25  C   UNL     1       7.693   7.940  17.566  0.00  0.00    +0.000 C 
ATOM     26  N   UNL     1       8.070   6.396  15.736  0.00  0.00    +0.000 NA
ATOM     27  O   UNL     1       7.528   5.224  15.254  0.00  0.00    +0.000 OA
ATOM     28  C   UNL     1       6.491   4.839  16.032  0.00  0.00    +0.000 A 
ATOM     29  C   UNL     1       5.732   3.675  15.532  0.00  0.00    +0.000 C 
ENDBRANCH  21  23
ENDBRANCH   3  19
TORSDOF 4
ENDMDL
