MODEL 1
REMARK VINA RESULT:      -7.0      0.000      0.000
REMARK  Name = 
REMARK  9 active torsions:
REMARK  status: ('A' for Active; 'I' for Inactive)
REMARK    1  A    between atoms: C_2  and  C_3
REMARK    2  A    between atoms: C_2  and  O_14
REMARK    3  A    between atoms: C_4  and  C_5
REMARK    4  A    between atoms: C_7  and  O_8
REMARK    5  A    between atoms: C_9  and  O_10
REMARK    6  A    between atoms: C_12  and  O_13
REMARK    7  A    between atoms: O_14  and  C_15
REMARK    8  A    between atoms: C_15  and  C_16
REMARK    9  A    between atoms: C_16  and  C_17
REMARK                            x       y       z     vdW  Elec       q    Type
REMARK                         _______ _______ _______ _____ _____    ______ ____
ROOT
ATOM      1  C   UNL     1       4.698   2.700  19.395  0.00  0.00    +0.000 C 
ATOM      2  C   UNL     1       5.031   3.982  19.181  0.00  0.00    +0.000 C 
ENDROOT
BRANCH   2   3
ATOM      3  C   UNL     1       5.674   4.388  17.933  0.00  0.00    +0.000 A 
ATOM      4  C   UNL     1       5.039   4.131  16.712  0.00  0.00    +0.000 A 
ATOM      5  C   UNL     1       5.693   4.461  15.531  0.00  0.00    +0.000 A 
ATOM      6  C   UNL     1       6.958   5.045  15.559  0.00  0.00    +0.000 A 
ATOM      7  C   UNL     1       7.590   5.329  16.761  0.00  0.00    +0.000 A 
ATOM      8  C   UNL     1       6.943   4.998  17.947  0.00  0.00    +0.000 A 
BRANCH   5   9
ATOM      9  O   UNL     1       5.133   4.218  14.307  0.00  0.00    +0.000 OA
ATOM     10  H   UNL     1       5.073   5.061  13.826  0.00  0.00    +0.000 HD
ENDBRANCH   5   9
BRANCH   6  11
ATOM     11  O   UNL     1       7.599   5.335  14.389  0.00  0.00    +0.000 OA
ATOM     12  H   UNL     1       7.547   4.508  13.869  0.00  0.00    +0.000 HD
ENDBRANCH   6  11
BRANCH   8  13
ATOM     13  O   UNL     1       7.545   5.261  19.149  0.00  0.00    +0.000 OA
ATOM     14  H   UNL     1       7.613   4.433  19.653  0.00  0.00    +0.000 HD
ENDBRANCH   8  13
ENDBRANCH   2   3
BRANCH   1  16
ATOM     15  O   UNL     1       4.986   1.511  21.428  0.00  0.00    +0.000 OA
ATOM     16  C   UNL     1       4.267   2.187  20.711  0.00  0.00    +0.000 C 
BRANCH  16  17
ATOM     17  O   UNL     1       3.050   2.677  21.030  0.00  0.00    +0.000 OA
BRANCH  17  18
ATOM     18  C   UNL     1       1.963   2.187  20.234  0.00  0.00    +0.000 C 
BRANCH  18  19
ATOM     19  C   UNL     1       0.938   3.319  20.220  0.00  0.00    +0.000 C 
BRANCH  19  20
ATOM     20  C   UNL     1       1.477   4.615  19.687  0.00  0.00    +0.000 A 
ATOM     21  C   UNL     1       1.755   5.678  20.555  0.00  0.00    +0.000 A 
ATOM     22  C   UNL     1       2.273   6.873  20.061  0.00  0.00    +0.000 A 
ATOM     23  C   UNL     1       2.512   7.018  18.697  0.00  0.00    +0.000 A 
ATOM     24  C   UNL     1       2.231   5.968  17.823  0.00  0.00    +0.000 A 
ATOM     25  C   UNL     1       1.712   4.771  18.316  0.00  0.00    +0.000 A 
ENDBRANCH  19  20
ENDBRANCH  18  19
ENDBRANCH  17  18
ENDBRANCH  16  17
ENDBRANCH   1  16
TORSDOF 9
ENDMDL
MODEL 2
REMARK VINA RESULT:      -7.0      0.464      1.127
REMARK  Name = 
REMARK  9 active torsions:
REMARK  status: ('A' for Active; 'I' for Inactive)
REMARK    1  A    between atoms: C_2  and  C_3
REMARK    2  A    between atoms: C_2  and  O_14
REMARK    3  A    between atoms: C_4  and  C_5
REMARK    4  A    between atoms: C_7  and  O_8
REMARK    5  A    between atoms: C_9  and  O_10
REMARK    6  A    between atoms: C_12  and  O_13
REMARK    7  A    between atoms: O_14  and  C_15
REMARK    8  A    between atoms: C_15  and  C_16
REMARK    9  A    between atoms: C_16  and  C_17
REMARK                            x       y       z     vdW  Elec       q    Type
REMARK                         _______ _______ _______ _____ _____    ______ ____
ROOT
ATOM      1  C   UNL     1       4.648   2.872  19.234  0.00  0.00    +0.000 C 
ATOM      2  C   UNL     1       5.244   4.067  19.098  0.00  0.00    +0.000 C 
ENDROOT
BRANCH   2   3
ATOM      3  C   UNL     1       5.826   4.469  17.818  0.00  0.00    +0.000 A 
ATOM      4  C   UNL     1       5.518   3.744  16.661  0.00  0.00    +0.000 A 
ATOM      5  C   UNL     1       6.130   4.096  15.464  0.00  0.00    +0.000 A 
ATOM      6  C   UNL     1       7.033   5.157  15.413  0.00  0.00    +0.000 A 
ATOM      7  C   UNL     1       7.330   5.901  16.546  0.00  0.00    +0.000 A 
ATOM      8  C   UNL     1       6.723   5.551  17.748  0.00  0.00    +0.000 A 
BRANCH   5   9
ATOM      9  O   UNL     1       5.885   3.416  14.303  0.00  0.00    +0.000 OA
ATOM     10  H   UNL     1       6.738   3.176  13.904  0.00  0.00    +0.000 HD
ENDBRANCH   5   9
BRANCH   6  11
ATOM     11  O   UNL     1       7.649   5.470  14.235  0.00  0.00    +0.000 OA
ATOM     12  H   UNL     1       8.514   5.841  14.502  0.00  0.00    +0.000 HD
ENDBRANCH   6  11
BRANCH   8  13
ATOM     13  O   UNL     1       7.002   6.264  18.885  0.00  0.00    +0.000 OA
ATOM     14  H   UNL     1       6.438   5.937  19.605  0.00  0.00    +0.000 HD
ENDBRANCH   8  13
ENDBRANCH   2   3
BRANCH   1  16
ATOM     15  O   UNL     1       5.009   1.647  21.234  0.00  0.00    +0.000 OA
ATOM     16  C   UNL     1       4.255   2.313  20.543  0.00  0.00    +0.000 C 
BRANCH  16  17
ATOM     17  O   UNL     1       3.026   2.750  20.891  0.00  0.00    +0.000 OA
BRANCH  17  18
ATOM     18  C   UNL     1       1.948   2.253  20.086  0.00  0.00    +0.000 C 
BRANCH  18  19
ATOM     19  C   UNL     1       0.937   3.397  20.026  0.00  0.00    +0.000 C 
BRANCH  19  20
ATOM     20  C   UNL     1       1.527   4.700  19.570  0.00  0.00    +0.000 A 
ATOM     21  C   UNL     1       1.897   4.880  18.232  0.00  0.00    +0.000 A 
ATOM     22  C   UNL     1       2.428   6.097  17.806  0.00  0.00    +0.000 A 
ATOM     23  C   UNL     1       2.596   7.139  18.714  0.00  0.00    +0.000 A 
ATOM     24  C   UNL     1       2.237   6.966  20.050  0.00  0.00    +0.000 A 
ATOM     25  C   UNL     1       1.707   5.750  20.477  0.00  0.00    +0.000 A 
ENDBRANCH  19  20
ENDBRANCH  18  19
ENDBRANCH  17  18
ENDBRANCH  16  17
ENDBRANCH   1  16
TORSDOF 9
ENDMDL
MODEL 3
REMARK VINA RESULT:      -6.9      5.531      7.287
REMARK  Name = 
REMARK  9 active torsions:
REMARK  status: ('A' for Active; 'I' for Inactive)
REMARK    1  A    between atoms: C_2  and  C_3
REMARK    2  A    between atoms: C_2  and  O_14
REMARK    3  A    between atoms: C_4  and  C_5
REMARK    4  A    between atoms: C_7  and  O_8
REMARK    5  A    between atoms: C_9  and  O_10
REMARK    6  A    between atoms: C_12  and  O_13
REMARK    7  A    between atoms: O_14  and  C_15
REMARK    8  A    between atoms: C_15  and  C_16
REMARK    9  A    between atoms: C_16  and  C_17
REMARK                            x       y       z     vdW  Elec       q    Type
REMARK                         _______ _______ _______ _____ _____    ______ ____
ROOT
ATOM      1  C   UNL     1       8.264   9.137  18.009  0.00  0.00    +0.000 C 
ATOM      2  C   UNL     1       8.940   9.601  19.072  0.00  0.00    +0.000 C 
ENDROOT
BRANCH   2   3
ATOM      3  C   UNL     1       9.532  10.937  19.056  0.00  0.00    +0.000 A 
ATOM      4  C   UNL     1       9.817  11.552  17.831  0.00  0.00    +0.000 A 
ATOM      5  C   UNL     1      10.441  12.794  17.831  0.00  0.00    +0.000 A 
ATOM      6  C   UNL     1      10.775  13.421  19.030  0.00  0.00    +0.000 A 
ATOM      7  C   UNL     1      10.477  12.837  20.252  0.00  0.00    +0.000 A 
ATOM      8  C   UNL     1       9.855  11.592  20.259  0.00  0.00    +0.000 A 
BRANCH   5   9
ATOM      9  O   UNL     1      10.762  13.437  16.667  0.00  0.00    +0.000 OA
ATOM     10  H   UNL     1      10.340  14.313  16.677  0.00  0.00    +0.000 HD
ENDBRANCH   5   9
BRANCH   6  11
ATOM     11  O   UNL     1      11.415  14.627  19.011  0.00  0.00    +0.000 OA
ATOM     12  H   UNL     1      11.334  14.933  18.085  0.00  0.00    +0.000 HD
ENDBRANCH   6  11
BRANCH   8  13
ATOM     13  O   UNL     1       9.554  10.987  21.451  0.00  0.00    +0.000 OA
ATOM     14  H   UNL     1       8.633  10.680  21.423  0.00  0.00    +0.000 HD
ENDBRANCH   8  13
ENDBRANCH   2   3
BRANCH   1  16
ATOM     15  O   UNL     1       8.155   6.863  18.675  0.00  0.00    +0.000 OA
ATOM     16  C   UNL     1       7.850   7.727  17.870  0.00  0.00    +0.000 C 
BRANCH  16  17
ATOM     17  O   UNL     1       7.009   7.586  16.824  0.00  0.00    +0.000 OA
BRANCH  17  18
ATOM     18  C   UNL     1       6.256   6.366  16.802  0.00  0.00    +0.000 C 
BRANCH  18  19
ATOM     19  C   UNL     1       4.868   6.744  17.316  0.00  0.00    +0.000 C 
BRANCH  19  20
ATOM     20  C   UNL     1       3.938   5.575  17.459  0.00  0.00    +0.000 A 
ATOM     21  C   UNL     1       4.356   4.288  17.099  0.00  0.00    +0.000 A 
ATOM     22  C   UNL     1       3.498   3.200  17.248  0.00  0.00    +0.000 A 
ATOM     23  C   UNL     1       2.214   3.391  17.754  0.00  0.00    +0.000 A 
ATOM     24  C   UNL     1       1.786   4.670  18.108  0.00  0.00    +0.000 A 
ATOM     25  C   UNL     1       2.643   5.759  17.958  0.00  0.00    +0.000 A 
ENDBRANCH  19  20
ENDBRANCH  18  19
ENDBRANCH  17  18
ENDBRANCH  16  17
ENDBRANCH   1  16
TORSDOF 9
ENDMDL
MODEL 4
REMARK VINA RESULT:      -6.7      1.678      1.809
REMARK  Name = 
REMARK  9 active torsions:
REMARK  status: ('A' for Active; 'I' for Inactive)
REMARK    1  A    between atoms: C_2  and  C_3
REMARK    2  A    between atoms: C_2  and  O_14
REMARK    3  A    between atoms: C_4  and  C_5
REMARK    4  A    between atoms: C_7  and  O_8
REMARK    5  A    between atoms: C_9  and  O_10
REMARK    6  A    between atoms: C_12  and  O_13
REMARK    7  A    between atoms: O_14  and  C_15
REMARK    8  A    between atoms: C_15  and  C_16
REMARK    9  A    between atoms: C_16  and  C_17
REMARK                            x       y       z     vdW  Elec       q    Type
REMARK                         _______ _______ _______ _____ _____    ______ ____
ROOT
ATOM      1  C   UNL     1       4.863   3.177  19.038  0.00  0.00    +0.000 C 
ATOM      2  C   UNL     1       5.326   4.259  19.684  0.00  0.00    +0.000 C 
ENDROOT
BRANCH   2   3
ATOM      3  C   UNL     1       6.025   5.318  18.959  0.00  0.00    +0.000 A 
ATOM      4  C   UNL     1       5.457   5.850  17.795  0.00  0.00    +0.000 A 
ATOM      5  C   UNL     1       6.164   6.808  17.079  0.00  0.00    +0.000 A 
ATOM      6  C   UNL     1       7.416   7.239  17.514  0.00  0.00    +0.000 A 
ATOM      7  C   UNL     1       7.981   6.742  18.679  0.00  0.00    +0.000 A 
ATOM      8  C   UNL     1       7.280   5.779  19.399  0.00  0.00    +0.000 A 
BRANCH   5   9
ATOM      9  O   UNL     1       5.672   7.352  15.925  0.00  0.00    +0.000 OA
ATOM     10  H   UNL     1       4.773   7.008  15.785  0.00  0.00    +0.000 HD
ENDBRANCH   5   9
BRANCH   6  11
ATOM     11  O   UNL     1       8.110   8.160  16.783  0.00  0.00    +0.000 OA
ATOM     12  H   UNL     1       7.671   9.012  16.979  0.00  0.00    +0.000 HD
ENDBRANCH   6  11
BRANCH   8  13
ATOM     13  O   UNL     1       7.816   5.264  20.549  0.00  0.00    +0.000 OA
ATOM     14  H   UNL     1       8.538   4.658  20.315  0.00  0.00    +0.000 HD
ENDBRANCH   8  13
ENDBRANCH   2   3
BRANCH   1  16
ATOM     15  O   UNL     1       4.919   1.494  20.709  0.00  0.00    +0.000 OA
ATOM     16  C   UNL     1       4.364   1.975  19.735  0.00  0.00    +0.000 C 
BRANCH  16  17
ATOM     17  O   UNL     1       3.177   1.592  19.219  0.00  0.00    +0.000 OA
BRANCH  17  18
ATOM     18  C   UNL     1       2.021   2.031  19.945  0.00  0.00    +0.000 C 
BRANCH  18  19
ATOM     19  C   UNL     1       1.264   2.938  18.978  0.00  0.00    +0.000 C 
BRANCH  19  20
ATOM     20  C   UNL     1       1.617   4.391  19.110  0.00  0.00    +0.000 A 
ATOM     21  C   UNL     1       1.676   4.993  20.373  0.00  0.00    +0.000 A 
ATOM     22  C   UNL     1       2.022   6.338  20.497  0.00  0.00    +0.000 A 
ATOM     23  C   UNL     1       2.306   7.091  19.360  0.00  0.00    +0.000 A 
ATOM     24  C   UNL     1       2.242   6.501  18.098  0.00  0.00    +0.000 A 
ATOM     25  C   UNL     1       1.896   5.157  17.973  0.00  0.00    +0.000 A 
ENDBRANCH  19  20
ENDBRANCH  18  19
ENDBRANCH  17  18
ENDBRANCH  16  17
ENDBRANCH   1  16
TORSDOF 9
ENDMDL
MODEL 5
REMARK VINA RESULT:      -6.7      3.556      6.299
REMARK  Name = 
REMARK  9 active torsions:
REMARK  status: ('A' for Active; 'I' for Inactive)
REMARK    1  A    between atoms: C_2  and  C_3
REMARK    2  A    between atoms: C_2  and  O_14
REMARK    3  A    between atoms: C_4  and  C_5
REMARK    4  A    between atoms: C_7  and  O_8
REMARK    5  A    between atoms: C_9  and  O_10
REMARK    6  A    between atoms: C_12  and  O_13
REMARK    7  A    between atoms: O_14  and  C_15
REMARK    8  A    between atoms: C_15  and  C_16
REMARK    9  A    between atoms: C_16  and  C_17
REMARK                            x       y       z     vdW  Elec       q    Type
REMARK                         _______ _______ _______ _____ _____    ______ ____
ROOT
ATOM      1  C   UNL     1       3.711   7.409  17.495  0.00  0.00    +0.000 C 
ATOM      2  C   UNL     1       2.627   7.153  18.242  0.00  0.00    +0.000 C 
ENDROOT
BRANCH   2   3
ATOM      3  C   UNL     1       1.910   8.236  18.912  0.00  0.00    +0.000 A 
ATOM      4  C   UNL     1       1.589   9.398  18.199  0.00  0.00    +0.000 A 
ATOM      5  C   UNL     1       0.967  10.446  18.866  0.00  0.00    +0.000 A 
ATOM      6  C   UNL     1       0.662  10.344  20.222  0.00  0.00    +0.000 A 
ATOM      7  C   UNL     1       0.950   9.191  20.937  0.00  0.00    +0.000 A 
ATOM      8  C   UNL     1       1.576   8.138  20.276  0.00  0.00    +0.000 A 
BRANCH   5   9
ATOM      9  O   UNL     1       0.645  11.613  18.229  0.00  0.00    +0.000 OA
ATOM     10  H   UNL     1      -0.233  11.507  17.824  0.00  0.00    +0.000 HD
ENDBRANCH   5   9
BRANCH   6  11
ATOM     11  O   UNL     1       0.079  11.396  20.869  0.00  0.00    +0.000 OA
ATOM     12  H   UNL     1      -0.496  10.981  21.543  0.00  0.00    +0.000 HD
ENDBRANCH   6  11
BRANCH   8  13
ATOM     13  O   UNL     1       1.879   6.990  20.958  0.00  0.00    +0.000 OA
ATOM     14  H   UNL     1       2.133   7.222  21.866  0.00  0.00    +0.000 HD
ENDBRANCH   8  13
ENDBRANCH   2   3
BRANCH   1  16
ATOM     15  O   UNL     1       5.108   6.378  15.877  0.00  0.00    +0.000 OA
ATOM     16  C   UNL     1       4.611   6.351  16.990  0.00  0.00    +0.000 C 
BRANCH  16  17
ATOM     17  O   UNL     1       4.880   5.459  17.967  0.00  0.00    +0.000 OA
BRANCH  17  18
ATOM     18  C   UNL     1       4.940   4.089  17.548  0.00  0.00    +0.000 C 
BRANCH  18  19
ATOM     19  C   UNL     1       3.483   3.647  17.424  0.00  0.00    +0.000 C 
BRANCH  19  20
ATOM     20  C   UNL     1       2.788   3.482  18.744  0.00  0.00    +0.000 A 
ATOM     21  C   UNL     1       1.463   3.905  18.904  0.00  0.00    +0.000 A 
ATOM     22  C   UNL     1       0.812   3.735  20.125  0.00  0.00    +0.000 A 
ATOM     23  C   UNL     1       1.482   3.146  21.195  0.00  0.00    +0.000 A 
ATOM     24  C   UNL     1       2.804   2.729  21.047  0.00  0.00    +0.000 A 
ATOM     25  C   UNL     1       3.456   2.899  19.826  0.00  0.00    +0.000 A 
ENDBRANCH  19  20
ENDBRANCH  18  19
ENDBRANCH  17  18
ENDBRANCH  16  17
ENDBRANCH   1  16
TORSDOF 9
ENDMDL
MODEL 6
REMARK VINA RESULT:      -6.7      2.614      4.834
REMARK  Name = 
REMARK  9 active torsions:
REMARK  status: ('A' for Active; 'I' for Inactive)
REMARK    1  A    between atoms: C_2  and  C_3
REMARK    2  A    between atoms: C_2  and  O_14
REMARK    3  A    between atoms: C_4  and  C_5
REMARK    4  A    between atoms: C_7  and  O_8
REMARK    5  A    between atoms: C_9  and  O_10
REMARK    6  A    between atoms: C_12  and  O_13
REMARK    7  A    between atoms: O_14  and  C_15
REMARK    8  A    between atoms: C_15  and  C_16
REMARK    9  A    between atoms: C_16  and  C_17
REMARK                            x       y       z     vdW  Elec       q    Type
REMARK                         _______ _______ _______ _____ _____    ______ ____
ROOT
ATOM      1  C   UNL     1       1.427   4.623  20.446  0.00  0.00    +0.000 C 
ATOM      2  C   UNL     1       2.197   5.698  20.674  0.00  0.00    +0.000 C 
ENDROOT
BRANCH   2   3
ATOM      3  C   UNL     1       2.086   6.888  19.832  0.00  0.00    +0.000 A 
ATOM      4  C   UNL     1       2.684   6.896  18.566  0.00  0.00    +0.000 A 
ATOM      5  C   UNL     1       2.629   8.057  17.804  0.00  0.00    +0.000 A 
ATOM      6  C   UNL     1       1.985   9.195  18.289  0.00  0.00    +0.000 A 
ATOM      7  C   UNL     1       1.366   9.194  19.530  0.00  0.00    +0.000 A 
ATOM      8  C   UNL     1       1.420   8.036  20.299  0.00  0.00    +0.000 A 
BRANCH   5   9
ATOM      9  O   UNL     1       3.209   8.134  16.568  0.00  0.00    +0.000 OA
ATOM     10  H   UNL     1       2.695   7.582  15.955  0.00  0.00    +0.000 HD
ENDBRANCH   5   9
BRANCH   6  11
ATOM     11  O   UNL     1       1.966  10.336  17.540  0.00  0.00    +0.000 OA
ATOM     12  H   UNL     1       2.208  10.042  16.638  0.00  0.00    +0.000 HD
ENDBRANCH   6  11
BRANCH   8  13
ATOM     13  O   UNL     1       0.824   8.009  21.532  0.00  0.00    +0.000 OA
ATOM     14  H   UNL     1       1.385   8.490  22.163  0.00  0.00    +0.000 HD
ENDBRANCH   8  13
ENDBRANCH   2   3
BRANCH   1  16
ATOM     15  O   UNL     1       1.975   3.210  22.271  0.00  0.00    +0.000 OA
ATOM     16  C   UNL     1       1.650   3.318  21.101  0.00  0.00    +0.000 C 
BRANCH  16  17
ATOM     17  O   UNL     1       1.323   2.311  20.264  0.00  0.00    +0.000 OA
BRANCH  17  18
ATOM     18  C   UNL     1       1.783   2.460  18.914  0.00  0.00    +0.000 C 
BRANCH  18  19
ATOM     19  C   UNL     1       3.285   2.188  18.971  0.00  0.00    +0.000 C 
BRANCH  19  20
ATOM     20  C   UNL     1       4.120   3.283  18.375  0.00  0.00    +0.000 A 
ATOM     21  C   UNL     1       5.108   3.917  19.138  0.00  0.00    +0.000 A 
ATOM     22  C   UNL     1       5.895   4.921  18.578  0.00  0.00    +0.000 A 
ATOM     23  C   UNL     1       5.698   5.303  17.253  0.00  0.00    +0.000 A 
ATOM     24  C   UNL     1       4.710   4.683  16.487  0.00  0.00    +0.000 A 
ATOM     25  C   UNL     1       3.923   3.679  17.047  0.00  0.00    +0.000 A 
ENDBRANCH  19  20
ENDBRANCH  18  19
ENDBRANCH  17  18
ENDBRANCH  16  17
ENDBRANCH   1  16
TORSDOF 9
ENDMDL
MODEL 7
REMARK VINA RESULT:      -6.7      4.366      7.738
REMARK  Name = 
REMARK  9 active torsions:
REMARK  status: ('A' for Active; 'I' for Inactive)
REMARK    1  A    between atoms: C_2  and  C_3
REMARK    2  A    between atoms: C_2  and  O_14
REMARK    3  A    between atoms: C_4  and  C_5
REMARK    4  A    between atoms: C_7  and  O_8
REMARK    5  A    between atoms: C_9  and  O_10
REMARK    6  A    between atoms: C_12  and  O_13
REMARK    7  A    between atoms: O_14  and  C_15
REMARK    8  A    between atoms: C_15  and  C_16
REMARK    9  A    between atoms: C_16  and  C_17
REMARK                            x       y       z     vdW  Elec       q    Type
REMARK                         _______ _______ _______ _____ _____    ______ ____
ROOT
ATOM      1  C   UNL     1       5.626   6.282  17.396  0.00  0.00    +0.000 C 
ATOM      2  C   UNL     1       5.510   5.175  18.146  0.00  0.00    +0.000 C 
ENDROOT
BRANCH   2   3
ATOM      3  C   UNL     1       4.221   4.797  18.724  0.00  0.00    +0.000 A 
ATOM      4  C   UNL     1       3.547   5.698  19.558  0.00  0.00    +0.000 A 
ATOM      5  C   UNL     1       2.356   5.299  20.154  0.00  0.00    +0.000 A 
ATOM      6  C   UNL     1       1.838   4.026  19.923  0.00  0.00    +0.000 A 
ATOM      7  C   UNL     1       2.480   3.132  19.080  0.00  0.00    +0.000 A 
ATOM      8  C   UNL     1       3.675   3.523  18.483  0.00  0.00    +0.000 A 
BRANCH   5   9
ATOM      9  O   UNL     1       1.660   6.126  20.992  0.00  0.00    +0.000 OA
ATOM     10  H   UNL     1       0.860   5.659  21.286  0.00  0.00    +0.000 HD
ENDBRANCH   5   9
BRANCH   6  11
ATOM     11  O   UNL     1       0.682   3.641  20.541  0.00  0.00    +0.000 OA
ATOM     12  H   UNL     1       0.070   4.392  20.406  0.00  0.00    +0.000 HD
ENDBRANCH   6  11
BRANCH   8  13
ATOM     13  O   UNL     1       4.336   2.658  17.651  0.00  0.00    +0.000 OA
ATOM     14  H   UNL     1       3.963   2.736  16.757  0.00  0.00    +0.000 HD
ENDBRANCH   8  13
ENDBRANCH   2   3
BRANCH   1  16
ATOM     15  O   UNL     1       7.756   6.205  16.354  0.00  0.00    +0.000 OA
ATOM     16  C   UNL     1       6.929   6.843  16.984  0.00  0.00    +0.000 C 
BRANCH  16  17
ATOM     17  O   UNL     1       6.994   8.155  17.293  0.00  0.00    +0.000 OA
BRANCH  17  18
ATOM     18  C   UNL     1       8.185   8.567  17.977  0.00  0.00    +0.000 C 
BRANCH  18  19
ATOM     19  C   UNL     1       8.250  10.081  17.788  0.00  0.00    +0.000 C 
BRANCH  19  20
ATOM     20  C   UNL     1       9.378  10.734  18.531  0.00  0.00    +0.000 A 
ATOM     21  C   UNL     1      10.474  11.260  17.836  0.00  0.00    +0.000 A 
ATOM     22  C   UNL     1      11.513  11.882  18.526  0.00  0.00    +0.000 A 
ATOM     23  C   UNL     1      11.467  11.980  19.914  0.00  0.00    +0.000 A 
ATOM     24  C   UNL     1      10.383  11.452  20.615  0.00  0.00    +0.000 A 
ATOM     25  C   UNL     1       9.344  10.829  19.927  0.00  0.00    +0.000 A 
ENDBRANCH  19  20
ENDBRANCH  18  19
ENDBRANCH  17  18
ENDBRANCH  16  17
ENDBRANCH   1  16
TORSDOF 9
ENDMDL
MODEL 8
REMARK VINA RESULT:      -6.7      3.521      6.225
REMARK  Name = 
REMARK  9 active torsions:
REMARK  status: ('A' for Active; 'I' for Inactive)
REMARK    1  A    between atoms: C_2  and  C_3
REMARK    2  A    between atoms: C_2  and  O_14
REMARK    3  A    between atoms: C_4  and  C_5
REMARK    4  A    between atoms: C_7  and  O_8
REMARK    5  A    between atoms: C_9  and  O_10
REMARK    6  A    between atoms: C_12  and  O_13
REMARK    7  A    between atoms: O_14  and  C_15
REMARK    8  A    between atoms: C_15  and  C_16
REMARK    9  A    between atoms: C_16  and  C_17
REMARK                            x       y       z     vdW  Elec       q    Type
REMARK                         _______ _______ _______ _____ _____    ______ ____
ROOT
ATOM      1  C   UNL     1       3.866   7.322  17.563  0.00  0.00    +0.000 C 
ATOM      2  C   UNL     1       2.557   7.215  17.840  0.00  0.00    +0.000 C 
ENDROOT
BRANCH   2   3
ATOM      3  C   UNL     1       1.882   8.222  18.654  0.00  0.00    +0.000 A 
ATOM      4  C   UNL     1       1.405   9.393  18.052  0.00  0.00    +0.000 A 
ATOM      5  C   UNL     1       0.825  10.372  18.849  0.00  0.00    +0.000 A 
ATOM      6  C   UNL     1       0.714  10.192  20.227  0.00  0.00    +0.000 A 
ATOM      7  C   UNL     1       1.158   9.028  20.836  0.00  0.00    +0.000 A 
ATOM      8  C   UNL     1       1.743   8.045  20.044  0.00  0.00    +0.000 A 
BRANCH   5   9
ATOM      9  O   UNL     1       0.357  11.544  18.322  0.00  0.00    +0.000 OA
ATOM     10  H   UNL     1      -0.592  11.611  18.523  0.00  0.00    +0.000 HD
ENDBRANCH   5   9
BRANCH   6  11
ATOM     11  O   UNL     1       0.169  11.177  20.999  0.00  0.00    +0.000 OA
ATOM     12  H   UNL     1      -0.130  11.854  20.359  0.00  0.00    +0.000 HD
ENDBRANCH   6  11
BRANCH   8  13
ATOM     13  O   UNL     1       2.198   6.887  20.618  0.00  0.00    +0.000 OA
ATOM     14  H   UNL     1       2.383   6.241  19.917  0.00  0.00    +0.000 HD
ENDBRANCH   8  13
ENDBRANCH   2   3
BRANCH   1  16
ATOM     15  O   UNL     1       5.102   6.290  15.820  0.00  0.00    +0.000 OA
ATOM     16  C   UNL     1       4.653   6.231  16.953  0.00  0.00    +0.000 C 
BRANCH  16  17
ATOM     17  O   UNL     1       4.892   5.261  17.860  0.00  0.00    +0.000 OA
BRANCH  17  18
ATOM     18  C   UNL     1       4.831   3.920  17.355  0.00  0.00    +0.000 C 
BRANCH  18  19
ATOM     19  C   UNL     1       3.342   3.583  17.298  0.00  0.00    +0.000 C 
BRANCH  19  20
ATOM     20  C   UNL     1       2.706   3.431  18.649  0.00  0.00    +0.000 A 
ATOM     21  C   UNL     1       3.418   2.853  19.707  0.00  0.00    +0.000 A 
ATOM     22  C   UNL     1       2.833   2.730  20.966  0.00  0.00    +0.000 A 
ATOM     23  C   UNL     1       1.531   3.178  21.175  0.00  0.00    +0.000 A 
ATOM     24  C   UNL     1       0.811   3.747  20.125  0.00  0.00    +0.000 A 
ATOM     25  C   UNL     1       1.395   3.871  18.866  0.00  0.00    +0.000 A 
ENDBRANCH  19  20
ENDBRANCH  18  19
ENDBRANCH  17  18
ENDBRANCH  16  17
ENDBRANCH   1  16
TORSDOF 9
ENDMDL
MODEL 9
REMARK VINA RESULT:      -6.7      1.818      3.287
REMARK  Name = 
REMARK  9 active torsions:
REMARK  status: ('A' for Active; 'I' for Inactive)
REMARK    1  A    between atoms: C_2  and  C_3
REMARK    2  A    between atoms: C_2  and  O_14
REMARK    3  A    between atoms: C_4  and  C_5
REMARK    4  A    between atoms: C_7  and  O_8
REMARK    5  A    between atoms: C_9  and  O_10
REMARK    6  A    between atoms: C_12  and  O_13
REMARK    7  A    between atoms: O_14  and  C_15
REMARK    8  A    between atoms: C_15  and  C_16
REMARK    9  A    between atoms: C_16  and  C_17
REMARK                            x       y       z     vdW  Elec       q    Type
REMARK                         _______ _______ _______ _____ _____    ______ ____
ROOT
ATOM      1  C   UNL     1       3.283   6.667  19.313  0.00  0.00    +0.000 C 
ATOM      2  C   UNL     1       4.109   5.609  19.330  0.00  0.00    +0.000 C 
ENDROOT
BRANCH   2   3
ATOM      3  C   UNL     1       5.093   5.413  18.267  0.00  0.00    +0.000 A 
ATOM      4  C   UNL     1       4.668   5.346  16.935  0.00  0.00    +0.000 A 
ATOM      5  C   UNL     1       5.605   5.091  15.942  0.00  0.00    +0.000 A 
ATOM      6  C   UNL     1       6.950   4.910  16.264  0.00  0.00    +0.000 A 
ATOM      7  C   UNL     1       7.391   4.998  17.576  0.00  0.00    +0.000 A 
ATOM      8  C   UNL     1       6.456   5.249  18.576  0.00  0.00    +0.000 A 
BRANCH   5   9
ATOM      9  O   UNL     1       5.250   4.996  14.625  0.00  0.00    +0.000 OA
ATOM     10  H   UNL     1       4.427   5.497  14.494  0.00  0.00    +0.000 HD
ENDBRANCH   5   9
BRANCH   6  11
ATOM     11  O   UNL     1       7.853   4.630  15.279  0.00  0.00    +0.000 OA
ATOM     12  H   UNL     1       7.530   5.129  14.501  0.00  0.00    +0.000 HD
ENDBRANCH   6  11
BRANCH   8  13
ATOM     13  O   UNL     1       6.862   5.335  19.881  0.00  0.00    +0.000 OA
ATOM     14  H   UNL     1       7.729   5.772  19.912  0.00  0.00    +0.000 HD
ENDBRANCH   8  13
ENDBRANCH   2   3
BRANCH   1  16
ATOM     15  O   UNL     1       1.430   7.802  20.266  0.00  0.00    +0.000 OA
ATOM     16  C   UNL     1       2.122   6.798  20.216  0.00  0.00    +0.000 C 
BRANCH  16  17
ATOM     17  O   UNL     1       1.887   5.631  20.851  0.00  0.00    +0.000 OA
BRANCH  17  18
ATOM     18  C   UNL     1       0.694   4.943  20.452  0.00  0.00    +0.000 C 
BRANCH  18  19
ATOM     19  C   UNL     1       0.983   3.465  20.706  0.00  0.00    +0.000 C 
BRANCH  19  20
ATOM     20  C   UNL     1       1.971   2.869  19.746  0.00  0.00    +0.000 A 
ATOM     21  C   UNL     1       1.677   2.799  18.379  0.00  0.00    +0.000 A 
ATOM     22  C   UNL     1       2.603   2.263  17.486  0.00  0.00    +0.000 A 
ATOM     23  C   UNL     1       3.826   1.788  17.952  0.00  0.00    +0.000 A 
ATOM     24  C   UNL     1       4.124   1.846  19.314  0.00  0.00    +0.000 A 
ATOM     25  C   UNL     1       3.199   2.382  20.208  0.00  0.00    +0.000 A 
ENDBRANCH  19  20
ENDBRANCH  18  19
ENDBRANCH  17  18
ENDBRANCH  16  17
ENDBRANCH   1  16
TORSDOF 9
ENDMDL
