MODEL 1
REMARK VINA RESULT:      -8.1      0.000      0.000
REMARK  Name = 
REMARK  10 active torsions:
REMARK  status: ('A' for Active; 'I' for Inactive)
REMARK    1  A    between atoms: C_1  and  N_2
REMARK    2  A    between atoms: C_3  and  C_5
REMARK    3  A    between atoms: C_5  and  S_6
REMARK    4  A    between atoms: S_6  and  C_7
REMARK    5  A    between atoms: C_7  and  C_8
REMARK    6  A    between atoms: C_10  and  C_11
REMARK    7  A    between atoms: C_10  and  C_12
REMARK    8  A    between atoms: C_17  and  C_18
REMARK    9  A    between atoms: C_23  and  O_24
REMARK   10  A    between atoms: O_24  and  C_25
REMARK                            x       y       z     vdW  Elec       q    Type
REMARK                         _______ _______ _______ _____ _____    ______ ____
ROOT
ATOM      1  C   UNL     1       3.892   5.162  17.983  0.00  0.00    +0.000 C 
ATOM      2  C   UNL     1       3.973   3.823  17.868  0.00  0.00    +0.000 C 
ATOM      3  C   UNL     1       3.411   2.821  18.840  0.00  0.00    +0.000 C 
ATOM      4  C   UNL     1       4.569   2.243  19.667  0.00  0.00    +0.000 C 
ATOM      5  C   UNL     1       2.704   1.701  18.068  0.00  0.00    +0.000 C 
ATOM      6  N   UNL     1       2.433   3.423  19.737  0.00  0.00    +0.000 N 
ATOM      7  C   UNL     1       2.358   4.804  19.908  0.00  0.00    +0.000 A 
ATOM      8  C   UNL     1       1.442   5.311  20.837  0.00  0.00    +0.000 A 
ATOM      9  C   UNL     1       1.151   6.680  20.910  0.00  0.00    +0.000 A 
ATOM     10  C   UNL     1       1.793   7.606  20.081  0.00  0.00    +0.000 A 
ATOM     11  C   UNL     1       2.790   7.083  19.221  0.00  0.00    +0.000 A 
ATOM     12  C   UNL     1       3.030   5.703  19.064  0.00  0.00    +0.000 A 
ATOM     13  H   UNL     1       2.225   2.886  20.571  0.00  0.00    +0.000 HD
ENDROOT
BRANCH  10  14
ATOM     14  C   UNL     1       1.383   9.047  19.988  0.00  0.00    +0.000 A 
ATOM     15  C   UNL     1       1.187   9.600  18.695  0.00  0.00    +0.000 A 
ATOM     16  C   UNL     1       0.800  10.924  18.482  0.00  0.00    +0.000 A 
ATOM     17  C   UNL     1       0.577  11.749  19.569  0.00  0.00    +0.000 A 
ATOM     18  C   UNL     1       0.726  11.246  20.856  0.00  0.00    +0.000 A 
ATOM     19  C   UNL     1       1.104   9.906  21.082  0.00  0.00    +0.000 A 
BRANCH  19  20
ATOM     20  O   UNL     1       1.246   9.418  22.361  0.00  0.00    +0.000 OA
ATOM     21  C   UNL     1       0.091   9.507  23.196  0.00  0.00    +0.000 C 
ENDBRANCH  19  20
ENDBRANCH  10  14
BRANCH   1  22
ATOM     22  C   UNL     1       4.617   6.048  17.004  0.00  0.00    +0.000 C 
BRANCH  22  23
ATOM     23  S   UNL     1       6.374   6.247  17.474  0.00  0.00    +0.000 S 
BRANCH  23  24
ATOM     24  C   UNL     1       7.057   4.708  16.748  0.00  0.00    +0.000 C 
BRANCH  24  27
ATOM     25  C   UNL     1       6.143   3.633  13.220  0.00  0.00    +0.000 C 
ATOM     26  N   UNL     1       6.249   3.757  14.649  0.00  0.00    +0.000 N 
ATOM     27  C   UNL     1       7.054   4.708  15.233  0.00  0.00    +0.000 C 
ATOM     28  O   UNL     1       7.642   5.574  14.588  0.00  0.00    +0.000 OA
ATOM     29  H   UNL     1       5.925   3.001  15.246  0.00  0.00    +0.000 HD
ENDBRANCH  24  27
ENDBRANCH  23  24
ENDBRANCH  22  23
ENDBRANCH   1  22
TORSDOF 6
ENDMDL
MODEL 2
REMARK VINA RESULT:      -7.9      1.587      1.972
REMARK  Name = 
REMARK  10 active torsions:
REMARK  status: ('A' for Active; 'I' for Inactive)
REMARK    1  A    between atoms: C_1  and  N_2
REMARK    2  A    between atoms: C_3  and  C_5
REMARK    3  A    between atoms: C_5  and  S_6
REMARK    4  A    between atoms: S_6  and  C_7
REMARK    5  A    between atoms: C_7  and  C_8
REMARK    6  A    between atoms: C_10  and  C_11
REMARK    7  A    between atoms: C_10  and  C_12
REMARK    8  A    between atoms: C_17  and  C_18
REMARK    9  A    between atoms: C_23  and  O_24
REMARK   10  A    between atoms: O_24  and  C_25
REMARK                            x       y       z     vdW  Elec       q    Type
REMARK                         _______ _______ _______ _____ _____    ______ ____
ROOT
ATOM      1  C   UNL     1       3.839   5.484  17.942  0.00  0.00    +0.000 C 
ATOM      2  C   UNL     1       3.972   4.154  17.780  0.00  0.00    +0.000 C 
ATOM      3  C   UNL     1       3.451   3.096  18.714  0.00  0.00    +0.000 C 
ATOM      4  C   UNL     1       4.631   2.534  19.520  0.00  0.00    +0.000 C 
ATOM      5  C   UNL     1       2.787   1.979  17.902  0.00  0.00    +0.000 C 
ATOM      6  N   UNL     1       2.451   3.627  19.633  0.00  0.00    +0.000 N 
ATOM      7  C   UNL     1       2.323   4.998  19.853  0.00  0.00    +0.000 A 
ATOM      8  C   UNL     1       1.389   5.434  20.800  0.00  0.00    +0.000 A 
ATOM      9  C   UNL     1       1.045   6.788  20.922  0.00  0.00    +0.000 A 
ATOM     10  C   UNL     1       1.650   7.767  20.127  0.00  0.00    +0.000 A 
ATOM     11  C   UNL     1       2.666   7.315  19.249  0.00  0.00    +0.000 A 
ATOM     12  C   UNL     1       2.959   5.952  19.042  0.00  0.00    +0.000 A 
ATOM     13  H   UNL     1       2.265   3.053  20.446  0.00  0.00    +0.000 HD
ENDROOT
BRANCH  10  14
ATOM     14  C   UNL     1       1.184   9.194  20.086  0.00  0.00    +0.000 A 
ATOM     15  C   UNL     1       0.888   9.760  18.818  0.00  0.00    +0.000 A 
ATOM     16  C   UNL     1       0.442  11.072  18.654  0.00  0.00    +0.000 A 
ATOM     17  C   UNL     1       0.259  11.872  19.767  0.00  0.00    +0.000 A 
ATOM     18  C   UNL     1       0.506  11.353  21.034  0.00  0.00    +0.000 A 
ATOM     19  C   UNL     1       0.944  10.025  21.211  0.00  0.00    +0.000 A 
BRANCH  19  20
ATOM     20  O   UNL     1       1.184   9.521  22.470  0.00  0.00    +0.000 OA
ATOM     21  C   UNL     1       0.069   9.513  23.362  0.00  0.00    +0.000 C 
ENDBRANCH  19  20
ENDBRANCH  10  14
BRANCH   1  22
ATOM     22  C   UNL     1       4.529   6.432  16.996  0.00  0.00    +0.000 C 
BRANCH  22  23
ATOM     23  S   UNL     1       5.462   5.521  15.714  0.00  0.00    +0.000 S 
BRANCH  23  24
ATOM     24  C   UNL     1       7.018   5.215  16.632  0.00  0.00    +0.000 C 
BRANCH  24  27
ATOM     25  C   UNL     1       7.980   8.702  17.798  0.00  0.00    +0.000 C 
ATOM     26  N   UNL     1       7.629   7.549  17.012  0.00  0.00    +0.000 N 
ATOM     27  C   UNL     1       7.374   6.330  17.596  0.00  0.00    +0.000 C 
ATOM     28  O   UNL     1       7.320   6.168  18.814  0.00  0.00    +0.000 OA
ATOM     29  H   UNL     1       7.796   7.551  16.010  0.00  0.00    +0.000 HD
ENDBRANCH  24  27
ENDBRANCH  23  24
ENDBRANCH  22  23
ENDBRANCH   1  22
TORSDOF 6
ENDMDL
MODEL 3
REMARK VINA RESULT:      -7.5      3.855      9.049
REMARK  Name = 
REMARK  10 active torsions:
REMARK  status: ('A' for Active; 'I' for Inactive)
REMARK    1  A    between atoms: C_1  and  N_2
REMARK    2  A    between atoms: C_3  and  C_5
REMARK    3  A    between atoms: C_5  and  S_6
REMARK    4  A    between atoms: S_6  and  C_7
REMARK    5  A    between atoms: C_7  and  C_8
REMARK    6  A    between atoms: C_10  and  C_11
REMARK    7  A    between atoms: C_10  and  C_12
REMARK    8  A    between atoms: C_17  and  C_18
REMARK    9  A    between atoms: C_23  and  O_24
REMARK   10  A    between atoms: O_24  and  C_25
REMARK                            x       y       z     vdW  Elec       q    Type
REMARK                         _______ _______ _______ _____ _____    ______ ____
ROOT
ATOM      1  C   UNL     1       0.958   9.969  20.887  0.00  0.00    +0.000 C 
ATOM      2  C   UNL     1       0.511  11.126  20.363  0.00  0.00    +0.000 C 
ATOM      3  C   UNL     1       0.683  11.571  18.936  0.00  0.00    +0.000 C 
ATOM      4  C   UNL     1       1.782  12.643  18.889  0.00  0.00    +0.000 C 
ATOM      5  C   UNL     1      -0.639  12.148  18.418  0.00  0.00    +0.000 C 
ATOM      6  N   UNL     1       1.054  10.465  18.063  0.00  0.00    +0.000 N 
ATOM      7  C   UNL     1       1.561   9.272  18.576  0.00  0.00    +0.000 A 
ATOM      8  C   UNL     1       1.962   8.277  17.677  0.00  0.00    +0.000 A 
ATOM      9  C   UNL     1       2.273   6.980  18.107  0.00  0.00    +0.000 A 
ATOM     10  C   UNL     1       2.233   6.633  19.462  0.00  0.00    +0.000 A 
ATOM     11  C   UNL     1       1.927   7.683  20.363  0.00  0.00    +0.000 A 
ATOM     12  C   UNL     1       1.518   8.966  19.946  0.00  0.00    +0.000 A 
ATOM     13  H   UNL     1       1.443  10.734  17.167  0.00  0.00    +0.000 HD
ENDROOT
BRANCH  10  14
ATOM     14  C   UNL     1       2.371   5.221  19.952  0.00  0.00    +0.000 A 
ATOM     15  C   UNL     1       1.219   4.588  20.488  0.00  0.00    +0.000 A 
ATOM     16  C   UNL     1       1.222   3.278  20.969  0.00  0.00    +0.000 A 
ATOM     17  C   UNL     1       2.389   2.538  20.916  0.00  0.00    +0.000 A 
ATOM     18  C   UNL     1       3.538   3.104  20.372  0.00  0.00    +0.000 A 
ATOM     19  C   UNL     1       3.541   4.422  19.872  0.00  0.00    +0.000 A 
BRANCH  19  20
ATOM     20  O   UNL     1       4.683   4.971  19.334  0.00  0.00    +0.000 OA
ATOM     21  C   UNL     1       5.145   4.383  18.117  0.00  0.00    +0.000 C 
ENDBRANCH  19  20
ENDBRANCH  10  14
BRANCH   1  22
ATOM     22  C   UNL     1       0.833   9.712  22.366  0.00  0.00    +0.000 C 
BRANCH  22  23
ATOM     23  S   UNL     1      -0.917   9.758  22.897  0.00  0.00    +0.000 S 
BRANCH  23  24
ATOM     24  C   UNL     1      -1.120  11.567  23.112  0.00  0.00    +0.000 C 
BRANCH  24  27
ATOM     25  C   UNL     1      -4.167  13.006  21.354  0.00  0.00    +0.000 C 
ATOM     26  N   UNL     1      -2.851  12.524  21.679  0.00  0.00    +0.000 N 
ATOM     27  C   UNL     1      -2.550  12.035  22.929  0.00  0.00    +0.000 C 
ATOM     28  O   UNL     1      -3.397  11.874  23.807  0.00  0.00    +0.000 OA
ATOM     29  H   UNL     1      -2.066  12.756  21.076  0.00  0.00    +0.000 HD
ENDBRANCH  24  27
ENDBRANCH  23  24
ENDBRANCH  22  23
ENDBRANCH   1  22
TORSDOF 6
ENDMDL
MODEL 4
REMARK VINA RESULT:      -7.4      3.647      8.815
REMARK  Name = 
REMARK  10 active torsions:
REMARK  status: ('A' for Active; 'I' for Inactive)
REMARK    1  A    between atoms: C_1  and  N_2
REMARK    2  A    between atoms: C_3  and  C_5
REMARK    3  A    between atoms: C_5  and  S_6
REMARK    4  A    between atoms: S_6  and  C_7
REMARK    5  A    between atoms: C_7  and  C_8
REMARK    6  A    between atoms: C_10  and  C_11
REMARK    7  A    between atoms: C_10  and  C_12
REMARK    8  A    between atoms: C_17  and  C_18
REMARK    9  A    between atoms: C_23  and  O_24
REMARK   10  A    between atoms: O_24  and  C_25
REMARK                            x       y       z     vdW  Elec       q    Type
REMARK                         _______ _______ _______ _____ _____    ______ ____
ROOT
ATOM      1  C   UNL     1       0.324   9.397  20.440  0.00  0.00    +0.000 C 
ATOM      2  C   UNL     1      -0.130  10.611  20.075  0.00  0.00    +0.000 C 
ATOM      3  C   UNL     1       0.425  11.460  18.963  0.00  0.00    +0.000 C 
ATOM      4  C   UNL     1       1.254  12.594  19.584  0.00  0.00    +0.000 C 
ATOM      5  C   UNL     1      -0.729  12.041  18.139  0.00  0.00    +0.000 C 
ATOM      6  N   UNL     1       1.268  10.688  18.059  0.00  0.00    +0.000 N 
ATOM      7  C   UNL     1       1.788   9.449  18.430  0.00  0.00    +0.000 A 
ATOM      8  C   UNL     1       2.646   8.794  17.539  0.00  0.00    +0.000 A 
ATOM      9  C   UNL     1       3.032   7.461  17.738  0.00  0.00    +0.000 A 
ATOM     10  C   UNL     1       2.605   6.738  18.857  0.00  0.00    +0.000 A 
ATOM     11  C   UNL     1       1.823   7.453  19.797  0.00  0.00    +0.000 A 
ATOM     12  C   UNL     1       1.345   8.760  19.571  0.00  0.00    +0.000 A 
ATOM     13  H   UNL     1       1.878  11.237  17.464  0.00  0.00    +0.000 HD
ENDROOT
BRANCH  10  14
ATOM     14  C   UNL     1       2.833   5.263  19.017  0.00  0.00    +0.000 A 
ATOM     15  C   UNL     1       1.766   4.387  18.688  0.00  0.00    +0.000 A 
ATOM     16  C   UNL     1       1.860   2.998  18.790  0.00  0.00    +0.000 A 
ATOM     17  C   UNL     1       3.045   2.427  19.216  0.00  0.00    +0.000 A 
ATOM     18  C   UNL     1       4.130   3.242  19.521  0.00  0.00    +0.000 A 
ATOM     19  C   UNL     1       4.049   4.645  19.408  0.00  0.00    +0.000 A 
BRANCH  19  20
ATOM     20  O   UNL     1       5.130   5.443  19.711  0.00  0.00    +0.000 OA
ATOM     21  C   UNL     1       6.227   5.378  18.800  0.00  0.00    +0.000 C 
ENDBRANCH  19  20
ENDBRANCH  10  14
BRANCH   1  22
ATOM     22  C   UNL     1      -0.240   8.717  21.660  0.00  0.00    +0.000 C 
BRANCH  22  23
ATOM     23  S   UNL     1       0.109   9.683  23.174  0.00  0.00    +0.000 S 
BRANCH  23  24
ATOM     24  C   UNL     1      -1.449  10.642  23.286  0.00  0.00    +0.000 C 
BRANCH  24  27
ATOM     25  C   UNL     1      -2.271  13.843  21.409  0.00  0.00    +0.000 C 
ATOM     26  N   UNL     1      -2.275  12.507  21.942  0.00  0.00    +0.000 N 
ATOM     27  C   UNL     1      -1.304  12.076  22.816  0.00  0.00    +0.000 C 
ATOM     28  O   UNL     1      -0.443  12.822  23.281  0.00  0.00    +0.000 OA
ATOM     29  H   UNL     1      -2.848  11.790  21.505  0.00  0.00    +0.000 HD
ENDBRANCH  24  27
ENDBRANCH  23  24
ENDBRANCH  22  23
ENDBRANCH   1  22
TORSDOF 6
ENDMDL
MODEL 5
REMARK VINA RESULT:      -7.2      1.293      1.976
REMARK  Name = 
REMARK  10 active torsions:
REMARK  status: ('A' for Active; 'I' for Inactive)
REMARK    1  A    between atoms: C_1  and  N_2
REMARK    2  A    between atoms: C_3  and  C_5
REMARK    3  A    between atoms: C_5  and  S_6
REMARK    4  A    between atoms: S_6  and  C_7
REMARK    5  A    between atoms: C_7  and  C_8
REMARK    6  A    between atoms: C_10  and  C_11
REMARK    7  A    between atoms: C_10  and  C_12
REMARK    8  A    between atoms: C_17  and  C_18
REMARK    9  A    between atoms: C_23  and  O_24
REMARK   10  A    between atoms: O_24  and  C_25
REMARK                            x       y       z     vdW  Elec       q    Type
REMARK                         _______ _______ _______ _____ _____    ______ ____
ROOT
ATOM      1  C   UNL     1       4.579   4.834  18.859  0.00  0.00    +0.000 C 
ATOM      2  C   UNL     1       4.762   3.517  18.645  0.00  0.00    +0.000 C 
ATOM      3  C   UNL     1       3.956   2.405  19.260  0.00  0.00    +0.000 C 
ATOM      4  C   UNL     1       4.793   1.754  20.371  0.00  0.00    +0.000 C 
ATOM      5  C   UNL     1       3.609   1.370  18.186  0.00  0.00    +0.000 C 
ATOM      6  N   UNL     1       2.703   2.891  19.826  0.00  0.00    +0.000 N 
ATOM      7  C   UNL     1       2.505   4.243  20.098  0.00  0.00    +0.000 A 
ATOM      8  C   UNL     1       1.305   4.631  20.704  0.00  0.00    +0.000 A 
ATOM      9  C   UNL     1       0.937   5.980  20.810  0.00  0.00    +0.000 A 
ATOM     10  C   UNL     1       1.774   7.001  20.347  0.00  0.00    +0.000 A 
ATOM     11  C   UNL     1       3.029   6.590  19.833  0.00  0.00    +0.000 A 
ATOM     12  C   UNL     1       3.377   5.240  19.629  0.00  0.00    +0.000 A 
ATOM     13  H   UNL     1       2.252   2.261  20.479  0.00  0.00    +0.000 HD
ENDROOT
BRANCH  10  14
ATOM     14  C   UNL     1       1.348   8.438  20.265  0.00  0.00    +0.000 A 
ATOM     15  C   UNL     1       1.085   9.123  21.479  0.00  0.00    +0.000 A 
ATOM     16  C   UNL     1       0.688  10.461  21.531  0.00  0.00    +0.000 A 
ATOM     17  C   UNL     1       0.554  11.174  20.354  0.00  0.00    +0.000 A 
ATOM     18  C   UNL     1       0.830  10.556  19.140  0.00  0.00    +0.000 A 
ATOM     19  C   UNL     1       1.243   9.209  19.079  0.00  0.00    +0.000 A 
BRANCH  19  20
ATOM     20  O   UNL     1       1.516   8.607  17.871  0.00  0.00    +0.000 OA
ATOM     21  C   UNL     1       2.870   8.690  17.423  0.00  0.00    +0.000 C 
ENDBRANCH  19  20
ENDBRANCH  10  14
BRANCH   1  22
ATOM     22  C   UNL     1       5.548   5.833  18.281  0.00  0.00    +0.000 C 
BRANCH  22  23
ATOM     23  S   UNL     1       5.415   5.900  16.458  0.00  0.00    +0.000 S 
BRANCH  23  24
ATOM     24  C   UNL     1       6.857   4.861  16.011  0.00  0.00    +0.000 C 
BRANCH  24  27
ATOM     25  C   UNL     1       6.371   3.496  12.498  0.00  0.00    +0.000 C 
ATOM     26  N   UNL     1       6.293   3.747  13.913  0.00  0.00    +0.000 N 
ATOM     27  C   UNL     1       7.054   4.722  14.515  0.00  0.00    +0.000 C 
ATOM     28  O   UNL     1       7.759   5.507  13.882  0.00  0.00    +0.000 OA
ATOM     29  H   UNL     1       5.861   3.059  14.524  0.00  0.00    +0.000 HD
ENDBRANCH  24  27
ENDBRANCH  23  24
ENDBRANCH  22  23
ENDBRANCH   1  22
TORSDOF 6
ENDMDL
MODEL 6
REMARK VINA RESULT:      -7.2      2.771      4.501
REMARK  Name = 
REMARK  10 active torsions:
REMARK  status: ('A' for Active; 'I' for Inactive)
REMARK    1  A    between atoms: C_1  and  N_2
REMARK    2  A    between atoms: C_3  and  C_5
REMARK    3  A    between atoms: C_5  and  S_6
REMARK    4  A    between atoms: S_6  and  C_7
REMARK    5  A    between atoms: C_7  and  C_8
REMARK    6  A    between atoms: C_10  and  C_11
REMARK    7  A    between atoms: C_10  and  C_12
REMARK    8  A    between atoms: C_17  and  C_18
REMARK    9  A    between atoms: C_23  and  O_24
REMARK   10  A    between atoms: O_24  and  C_25
REMARK                            x       y       z     vdW  Elec       q    Type
REMARK                         _______ _______ _______ _____ _____    ______ ____
ROOT
ATOM      1  C   UNL     1       2.828   6.062  19.876  0.00  0.00    +0.000 C 
ATOM      2  C   UNL     1       3.856   5.497  19.215  0.00  0.00    +0.000 C 
ATOM      3  C   UNL     1       4.383   5.928  17.873  0.00  0.00    +0.000 C 
ATOM      4  C   UNL     1       3.904   4.922  16.817  0.00  0.00    +0.000 C 
ATOM      5  C   UNL     1       5.914   5.963  17.912  0.00  0.00    +0.000 C 
ATOM      6  N   UNL     1       3.921   7.262  17.510  0.00  0.00    +0.000 N 
ATOM      7  C   UNL     1       2.830   7.851  18.148  0.00  0.00    +0.000 A 
ATOM      8  C   UNL     1       2.398   9.105  17.703  0.00  0.00    +0.000 A 
ATOM      9  C   UNL     1       1.459   9.857  18.424  0.00  0.00    +0.000 A 
ATOM     10  C   UNL     1       0.885   9.368  19.602  0.00  0.00    +0.000 A 
ATOM     11  C   UNL     1       1.260   8.055  19.977  0.00  0.00    +0.000 A 
ATOM     12  C   UNL     1       2.271   7.322  19.323  0.00  0.00    +0.000 A 
ATOM     13  H   UNL     1       4.009   7.497  16.529  0.00  0.00    +0.000 HD
ENDROOT
BRANCH  10  14
ATOM     14  C   UNL     1       0.026  10.205  20.506  0.00  0.00    +0.000 A 
ATOM     15  C   UNL     1       0.069   9.937  21.899  0.00  0.00    +0.000 A 
ATOM     16  C   UNL     1      -0.678  10.651  22.837  0.00  0.00    +0.000 A 
ATOM     17  C   UNL     1      -1.495  11.682  22.411  0.00  0.00    +0.000 A 
ATOM     18  C   UNL     1      -1.548  12.004  21.059  0.00  0.00    +0.000 A 
ATOM     19  C   UNL     1      -0.786  11.297  20.106  0.00  0.00    +0.000 A 
BRANCH  19  20
ATOM     20  O   UNL     1      -0.845  11.626  18.770  0.00  0.00    +0.000 OA
ATOM     21  C   UNL     1      -0.655  13.006  18.457  0.00  0.00    +0.000 C 
ENDBRANCH  19  20
ENDBRANCH  10  14
BRANCH   1  22
ATOM     22  C   UNL     1       2.320   5.443  21.152  0.00  0.00    +0.000 C 
BRANCH  22  23
ATOM     23  S   UNL     1       1.438   3.875  20.817  0.00  0.00    +0.000 S 
BRANCH  23  24
ATOM     24  C   UNL     1       2.696   2.686  21.421  0.00  0.00    +0.000 C 
BRANCH  24  27
ATOM     25  C   UNL     1       3.720   1.482  17.965  0.00  0.00    +0.000 C 
ATOM     26  N   UNL     1       2.991   1.975  19.104  0.00  0.00    +0.000 N 
ATOM     27  C   UNL     1       3.599   2.162  20.323  0.00  0.00    +0.000 C 
ATOM     28  O   UNL     1       4.810   2.028  20.495  0.00  0.00    +0.000 OA
ATOM     29  H   UNL     1       1.975   1.966  19.094  0.00  0.00    +0.000 HD
ENDBRANCH  24  27
ENDBRANCH  23  24
ENDBRANCH  22  23
ENDBRANCH   1  22
TORSDOF 6
ENDMDL
MODEL 7
REMARK VINA RESULT:      -7.2      2.725      4.319
REMARK  Name = 
REMARK  10 active torsions:
REMARK  status: ('A' for Active; 'I' for Inactive)
REMARK    1  A    between atoms: C_1  and  N_2
REMARK    2  A    between atoms: C_3  and  C_5
REMARK    3  A    between atoms: C_5  and  S_6
REMARK    4  A    between atoms: S_6  and  C_7
REMARK    5  A    between atoms: C_7  and  C_8
REMARK    6  A    between atoms: C_10  and  C_11
REMARK    7  A    between atoms: C_10  and  C_12
REMARK    8  A    between atoms: C_17  and  C_18
REMARK    9  A    between atoms: C_23  and  O_24
REMARK   10  A    between atoms: O_24  and  C_25
REMARK                            x       y       z     vdW  Elec       q    Type
REMARK                         _______ _______ _______ _____ _____    ______ ____
ROOT
ATOM      1  C   UNL     1       2.500   6.159  19.786  0.00  0.00    +0.000 C 
ATOM      2  C   UNL     1       3.580   5.493  19.336  0.00  0.00    +0.000 C 
ATOM      3  C   UNL     1       4.376   5.837  18.106  0.00  0.00    +0.000 C 
ATOM      4  C   UNL     1       4.014   4.838  16.997  0.00  0.00    +0.000 C 
ATOM      5  C   UNL     1       5.873   5.751  18.425  0.00  0.00    +0.000 C 
ATOM      6  N   UNL     1       4.101   7.191  17.641  0.00  0.00    +0.000 N 
ATOM      7  C   UNL     1       2.966   7.885  18.058  0.00  0.00    +0.000 A 
ATOM      8  C   UNL     1       2.728   9.155  17.519  0.00  0.00    +0.000 A 
ATOM      9  C   UNL     1       1.741  10.001  18.042  0.00  0.00    +0.000 A 
ATOM     10  C   UNL     1       0.924   9.598  19.103  0.00  0.00    +0.000 A 
ATOM     11  C   UNL     1       1.113   8.271  19.564  0.00  0.00    +0.000 A 
ATOM     12  C   UNL     1       2.160   7.440  19.118  0.00  0.00    +0.000 A 
ATOM     13  H   UNL     1       4.386   7.386  16.689  0.00  0.00    +0.000 HD
ENDROOT
BRANCH  10  14
ATOM     14  C   UNL     1      -0.012  10.529  19.819  0.00  0.00    +0.000 A 
ATOM     15  C   UNL     1      -1.045  11.143  19.063  0.00  0.00    +0.000 A 
ATOM     16  C   UNL     1      -1.978  12.020  19.617  0.00  0.00    +0.000 A 
ATOM     17  C   UNL     1      -1.920  12.308  20.969  0.00  0.00    +0.000 A 
ATOM     18  C   UNL     1      -0.944  11.708  21.758  0.00  0.00    +0.000 A 
ATOM     19  C   UNL     1      -0.006  10.810  21.209  0.00  0.00    +0.000 A 
BRANCH  19  20
ATOM     20  O   UNL     1       0.954  10.220  22.000  0.00  0.00    +0.000 OA
ATOM     21  C   UNL     1       0.469   9.408  23.070  0.00  0.00    +0.000 C 
ENDBRANCH  19  20
ENDBRANCH  10  14
BRANCH   1  22
ATOM     22  C   UNL     1       1.719   5.623  20.958  0.00  0.00    +0.000 C 
BRANCH  22  23
ATOM     23  S   UNL     1       2.335   3.977  21.464  0.00  0.00    +0.000 S 
BRANCH  23  24
ATOM     24  C   UNL     1       1.105   2.918  20.612  0.00  0.00    +0.000 C 
BRANCH  24  27
ATOM     25  C   UNL     1       3.496   1.484  18.030  0.00  0.00    +0.000 C 
ATOM     26  N   UNL     1       2.897   1.995  19.234  0.00  0.00    +0.000 N 
ATOM     27  C   UNL     1       1.585   2.404  19.270  0.00  0.00    +0.000 C 
ATOM     28  O   UNL     1       0.813   2.261  18.322  0.00  0.00    +0.000 OA
ATOM     29  H   UNL     1       3.489   2.286  20.008  0.00  0.00    +0.000 HD
ENDBRANCH  24  27
ENDBRANCH  23  24
ENDBRANCH  22  23
ENDBRANCH   1  22
TORSDOF 6
ENDMDL
MODEL 8
REMARK VINA RESULT:      -7.1      2.939      4.652
REMARK  Name = 
REMARK  10 active torsions:
REMARK  status: ('A' for Active; 'I' for Inactive)
REMARK    1  A    between atoms: C_1  and  N_2
REMARK    2  A    between atoms: C_3  and  C_5
REMARK    3  A    between atoms: C_5  and  S_6
REMARK    4  A    between atoms: S_6  and  C_7
REMARK    5  A    between atoms: C_7  and  C_8
REMARK    6  A    between atoms: C_10  and  C_11
REMARK    7  A    between atoms: C_10  and  C_12
REMARK    8  A    between atoms: C_17  and  C_18
REMARK    9  A    between atoms: C_23  and  O_24
REMARK   10  A    between atoms: O_24  and  C_25
REMARK                            x       y       z     vdW  Elec       q    Type
REMARK                         _______ _______ _______ _____ _____    ______ ____
ROOT
ATOM      1  C   UNL     1       2.644   6.200  19.924  0.00  0.00    +0.000 C 
ATOM      2  C   UNL     1       3.702   5.544  19.409  0.00  0.00    +0.000 C 
ATOM      3  C   UNL     1       4.377   5.853  18.101  0.00  0.00    +0.000 C 
ATOM      4  C   UNL     1       3.952   4.794  17.072  0.00  0.00    +0.000 C 
ATOM      5  C   UNL     1       5.897   5.823  18.290  0.00  0.00    +0.000 C 
ATOM      6  N   UNL     1       4.020   7.176  17.603  0.00  0.00    +0.000 N 
ATOM      7  C   UNL     1       2.904   7.857  18.087  0.00  0.00    +0.000 A 
ATOM      8  C   UNL     1       2.581   9.093  17.516  0.00  0.00    +0.000 A 
ATOM      9  C   UNL     1       1.616   9.935  18.087  0.00  0.00    +0.000 A 
ATOM     10  C   UNL     1       0.907   9.559  19.233  0.00  0.00    +0.000 A 
ATOM     11  C   UNL     1       1.177   8.261  19.732  0.00  0.00    +0.000 A 
ATOM     12  C   UNL     1       2.208   7.439  19.233  0.00  0.00    +0.000 A 
ATOM     13  H   UNL     1       4.215   7.334  16.622  0.00  0.00    +0.000 HD
ENDROOT
BRANCH  10  14
ATOM     14  C   UNL     1       0.008  10.496  19.986  0.00  0.00    +0.000 A 
ATOM     15  C   UNL     1       0.309  10.753  21.349  0.00  0.00    +0.000 A 
ATOM     16  C   UNL     1      -0.448  11.610  22.150  0.00  0.00    +0.000 A 
ATOM     17  C   UNL     1      -1.540  12.259  21.605  0.00  0.00    +0.000 A 
ATOM     18  C   UNL     1      -1.859  12.063  20.266  0.00  0.00    +0.000 A 
ATOM     19  C   UNL     1      -1.092  11.210  19.446  0.00  0.00    +0.000 A 
BRANCH  19  20
ATOM     20  O   UNL     1      -1.416  11.025  18.120  0.00  0.00    +0.000 OA
ATOM     21  C   UNL     1      -2.497  10.128  17.861  0.00  0.00    +0.000 C 
ENDBRANCH  19  20
ENDBRANCH  10  14
BRANCH   1  22
ATOM     22  C   UNL     1       1.984   5.697  21.182  0.00  0.00    +0.000 C 
BRANCH  22  23
ATOM     23  S   UNL     1       2.281   3.907  21.411  0.00  0.00    +0.000 S 
BRANCH  23  24
ATOM     24  C   UNL     1       0.968   3.240  20.319  0.00  0.00    +0.000 C 
BRANCH  24  27
ATOM     25  C   UNL     1       3.498   1.363  18.194  0.00  0.00    +0.000 C 
ATOM     26  N   UNL     1       2.842   2.113  19.231  0.00  0.00    +0.000 N 
ATOM     27  C   UNL     1       1.511   2.448  19.146  0.00  0.00    +0.000 C 
ATOM     28  O   UNL     1       0.774   2.044  18.247  0.00  0.00    +0.000 OA
ATOM     29  H   UNL     1       3.397   2.610  19.922  0.00  0.00    +0.000 HD
ENDBRANCH  24  27
ENDBRANCH  23  24
ENDBRANCH  22  23
ENDBRANCH   1  22
TORSDOF 6
ENDMDL
MODEL 9
REMARK VINA RESULT:      -7.1      3.558      7.668
REMARK  Name = 
REMARK  10 active torsions:
REMARK  status: ('A' for Active; 'I' for Inactive)
REMARK    1  A    between atoms: C_1  and  N_2
REMARK    2  A    between atoms: C_3  and  C_5
REMARK    3  A    between atoms: C_5  and  S_6
REMARK    4  A    between atoms: S_6  and  C_7
REMARK    5  A    between atoms: C_7  and  C_8
REMARK    6  A    between atoms: C_10  and  C_11
REMARK    7  A    between atoms: C_10  and  C_12
REMARK    8  A    between atoms: C_17  and  C_18
REMARK    9  A    between atoms: C_23  and  O_24
REMARK   10  A    between atoms: O_24  and  C_25
REMARK                            x       y       z     vdW  Elec       q    Type
REMARK                         _______ _______ _______ _____ _____    ______ ____
ROOT
ATOM      1  C   UNL     1       1.808   8.870  19.014  0.00  0.00    +0.000 C 
ATOM      2  C   UNL     1       1.161   9.285  20.119  0.00  0.00    +0.000 C 
ATOM      3  C   UNL     1       0.805   8.430  21.304  0.00  0.00    +0.000 C 
ATOM      4  C   UNL     1      -0.697   8.114  21.243  0.00  0.00    +0.000 C 
ATOM      5  C   UNL     1       1.133   9.184  22.597  0.00  0.00    +0.000 C 
ATOM      6  N   UNL     1       1.558   7.181  21.319  0.00  0.00    +0.000 N 
ATOM      7  C   UNL     1       2.199   6.707  20.176  0.00  0.00    +0.000 A 
ATOM      8  C   UNL     1       2.846   5.467  20.243  0.00  0.00    +0.000 A 
ATOM      9  C   UNL     1       3.693   5.024  19.217  0.00  0.00    +0.000 A 
ATOM     10  C   UNL     1       3.898   5.787  18.063  0.00  0.00    +0.000 A 
ATOM     11  C   UNL     1       3.152   6.988  17.970  0.00  0.00    +0.000 A 
ATOM     12  C   UNL     1       2.373   7.498  19.029  0.00  0.00    +0.000 A 
ATOM     13  H   UNL     1       1.180   6.457  21.919  0.00  0.00    +0.000 HD
ENDROOT
BRANCH  10  14
ATOM     14  C   UNL     1       4.933   5.449  17.029  0.00  0.00    +0.000 A 
ATOM     15  C   UNL     1       4.553   4.588  15.965  0.00  0.00    +0.000 A 
ATOM     16  C   UNL     1       5.425   4.208  14.943  0.00  0.00    +0.000 A 
ATOM     17  C   UNL     1       6.720   4.693  14.940  0.00  0.00    +0.000 A 
ATOM     18  C   UNL     1       7.130   5.563  15.944  0.00  0.00    +0.000 A 
ATOM     19  C   UNL     1       6.253   5.964  16.973  0.00  0.00    +0.000 A 
BRANCH  19  20
ATOM     20  O   UNL     1       6.670   6.828  17.961  0.00  0.00    +0.000 OA
ATOM     21  C   UNL     1       7.643   7.798  17.572  0.00  0.00    +0.000 C 
ENDBRANCH  19  20
ENDBRANCH  10  14
BRANCH   1  22
ATOM     22  C   UNL     1       1.980   9.805  17.844  0.00  0.00    +0.000 C 
BRANCH  22  23
ATOM     23  S   UNL     1       1.378  11.484  18.250  0.00  0.00    +0.000 S 
BRANCH  23  24
ATOM     24  C   UNL     1       2.913  12.438  17.942  0.00  0.00    +0.000 C 
BRANCH  24  27
ATOM     25  C   UNL     1       3.376  16.193  17.584  0.00  0.00    +0.000 C 
ATOM     26  N   UNL     1       3.414  14.766  17.402  0.00  0.00    +0.000 N 
ATOM     27  C   UNL     1       2.778  13.912  18.271  0.00  0.00    +0.000 C 
ATOM     28  O   UNL     1       2.053  14.303  19.186  0.00  0.00    +0.000 OA
ATOM     29  H   UNL     1       4.101  14.355  16.775  0.00  0.00    +0.000 HD
ENDBRANCH  24  27
ENDBRANCH  23  24
ENDBRANCH  22  23
ENDBRANCH   1  22
TORSDOF 6
ENDMDL
