MODEL 1
REMARK VINA RESULT:      -7.7      0.000      0.000
REMARK  Name = 
REMARK  7 active torsions:
REMARK  status: ('A' for Active; 'I' for Inactive)
REMARK    1  A    between atoms: C_2  and  C_3
REMARK    2  A    between atoms: C_3  and  N_4
REMARK    3  A    between atoms: N_4  and  C_5
REMARK    4  A    between atoms: C_5  and  C_6
REMARK    5  A    between atoms: C_13  and  C_15
REMARK    6  A    between atoms: C_23  and  O_24
REMARK    7  A    between atoms: O_24  and  C_25
REMARK                            x       y       z     vdW  Elec       q    Type
REMARK                         _______ _______ _______ _____ _____    ______ ____
ROOT
ATOM      1  N   UNL     1       3.619   7.156  17.926  0.00  0.00    +0.000 N 
ATOM      2  C   UNL     1       4.755   6.814  17.191  0.00  0.00    +0.000 C 
ATOM      3  O   UNL     1       5.020   7.419  16.150  0.00  0.00    +0.000 OA
ENDROOT
BRANCH   2   4
ATOM      4  C   UNL     1       5.630   5.624  17.633  0.00  0.00    +0.000 C 
ATOM      5  C   UNL     1       7.128   5.816  17.462  0.00  0.00    +0.000 C 
ATOM      6  O   UNL     1       7.603   5.846  16.121  0.00  0.00    +0.000 OA
ATOM      7  C   UNL     1       6.977   5.079  15.183  0.00  0.00    +0.000 A 
ATOM      8  C   UNL     1       5.842   4.312  15.496  0.00  0.00    +0.000 A 
ATOM      9  C   UNL     1       5.237   3.525  14.506  0.00  0.00    +0.000 A 
ATOM     10  C   UNL     1       5.729   3.531  13.204  0.00  0.00    +0.000 A 
ATOM     11  C   UNL     1       6.835   4.316  12.890  0.00  0.00    +0.000 A 
ATOM     12  C   UNL     1       7.469   5.095  13.867  0.00  0.00    +0.000 A 
ATOM     13  C   UNL     1       5.247   4.343  16.880  0.00  0.00    +0.000 C 
BRANCH  12  14
ATOM     14  O   UNL     1       8.526   5.805  13.357  0.00  0.00    +0.000 OA
ATOM     15  C   UNL     1       8.471   6.253  12.012  0.00  0.00    +0.000 C 
ENDBRANCH  12  14
ENDBRANCH   2   4
BRANCH   1  16
ATOM     16  C   UNL     1       2.731   8.178  17.365  0.00  0.00    +0.000 C 
BRANCH  16  18
ATOM     17  C   UNL     1       1.367   9.981  18.477  0.00  0.00    +0.000 C 
ATOM     18  C   UNL     1       1.836   8.724  18.444  0.00  0.00    +0.000 C 
ENDBRANCH  16  18
ENDBRANCH   1  16
BRANCH   1  19
ATOM     19  C   UNL     1       3.202   6.580  19.203  0.00  0.00    +0.000 C 
BRANCH  19  20
ATOM     20  C   UNL     1       2.450   5.268  19.143  0.00  0.00    +0.000 A 
ATOM     21  C   UNL     1       2.171   4.476  20.267  0.00  0.00    +0.000 A 
ATOM     22  C   UNL     1       1.449   3.287  20.131  0.00  0.00    +0.000 A 
ATOM     23  C   UNL     1       1.011   2.883  18.877  0.00  0.00    +0.000 A 
ATOM     24  F   UNL     1       0.308   1.748  18.753  0.00  0.00    +0.000 F 
ATOM     25  C   UNL     1       1.293   3.637  17.747  0.00  0.00    +0.000 A 
ATOM     26  C   UNL     1       2.013   4.824  17.880  0.00  0.00    +0.000 A 
ENDBRANCH  19  20
ENDBRANCH   1  19
TORSDOF 6
ENDMDL
MODEL 2
REMARK VINA RESULT:      -7.6      3.172      7.046
REMARK  Name = 
REMARK  7 active torsions:
REMARK  status: ('A' for Active; 'I' for Inactive)
REMARK    1  A    between atoms: C_2  and  C_3
REMARK    2  A    between atoms: C_3  and  N_4
REMARK    3  A    between atoms: N_4  and  C_5
REMARK    4  A    between atoms: C_5  and  C_6
REMARK    5  A    between atoms: C_13  and  C_15
REMARK    6  A    between atoms: C_23  and  O_24
REMARK    7  A    between atoms: O_24  and  C_25
REMARK                            x       y       z     vdW  Elec       q    Type
REMARK                         _______ _______ _______ _____ _____    ______ ____
ROOT
ATOM      1  N   UNL     1       6.115   5.363  17.040  0.00  0.00    +0.000 N 
ATOM      2  C   UNL     1       5.533   4.374  17.834  0.00  0.00    +0.000 C 
ATOM      3  O   UNL     1       6.020   4.103  18.934  0.00  0.00    +0.000 OA
ENDROOT
BRANCH   2   4
ATOM      4  C   UNL     1       4.336   3.562  17.300  0.00  0.00    +0.000 C 
ATOM      5  C   UNL     1       3.064   4.357  17.057  0.00  0.00    +0.000 C 
ATOM      6  O   UNL     1       2.398   4.836  18.220  0.00  0.00    +0.000 OA
ATOM      7  C   UNL     1       2.439   4.087  19.359  0.00  0.00    +0.000 A 
ATOM      8  C   UNL     1       3.173   2.891  19.428  0.00  0.00    +0.000 A 
ATOM      9  C   UNL     1       3.178   2.143  20.614  0.00  0.00    +0.000 A 
ATOM     10  C   UNL     1       2.494   2.599  21.737  0.00  0.00    +0.000 A 
ATOM     11  C   UNL     1       1.794   3.801  21.675  0.00  0.00    +0.000 A 
ATOM     12  C   UNL     1       1.758   4.557  20.495  0.00  0.00    +0.000 A 
ATOM     13  C   UNL     1       3.979   2.411  18.250  0.00  0.00    +0.000 C 
BRANCH  12  14
ATOM     14  O   UNL     1       1.031   5.710  20.641  0.00  0.00    +0.000 OA
ATOM     15  C   UNL     1       1.713   6.952  20.703  0.00  0.00    +0.000 C 
ENDBRANCH  12  14
ENDBRANCH   2   4
BRANCH   1  16
ATOM     16  C   UNL     1       7.353   5.979  17.524  0.00  0.00    +0.000 C 
BRANCH  16  18
ATOM     17  C   UNL     1       8.114   8.346  17.933  0.00  0.00    +0.000 C 
ATOM     18  C   UNL     1       7.285   7.472  17.343  0.00  0.00    +0.000 C 
ENDBRANCH  16  18
ENDBRANCH   1  16
BRANCH   1  19
ATOM     19  C   UNL     1       5.627   5.842  15.747  0.00  0.00    +0.000 C 
BRANCH  19  20
ATOM     20  C   UNL     1       6.077   5.072  14.525  0.00  0.00    +0.000 A 
ATOM     21  C   UNL     1       5.319   4.060  13.917  0.00  0.00    +0.000 A 
ATOM     22  C   UNL     1       5.794   3.412  12.773  0.00  0.00    +0.000 A 
ATOM     23  C   UNL     1       7.026   3.765  12.239  0.00  0.00    +0.000 A 
ATOM     24  F   UNL     1       7.472   3.150  11.135  0.00  0.00    +0.000 F 
ATOM     25  C   UNL     1       7.804   4.748  12.834  0.00  0.00    +0.000 A 
ATOM     26  C   UNL     1       7.333   5.396  13.975  0.00  0.00    +0.000 A 
ENDBRANCH  19  20
ENDBRANCH   1  19
TORSDOF 6
ENDMDL
MODEL 3
REMARK VINA RESULT:      -7.1      1.146      1.457
REMARK  Name = 
REMARK  7 active torsions:
REMARK  status: ('A' for Active; 'I' for Inactive)
REMARK    1  A    between atoms: C_2  and  C_3
REMARK    2  A    between atoms: C_3  and  N_4
REMARK    3  A    between atoms: N_4  and  C_5
REMARK    4  A    between atoms: C_5  and  C_6
REMARK    5  A    between atoms: C_13  and  C_15
REMARK    6  A    between atoms: C_23  and  O_24
REMARK    7  A    between atoms: O_24  and  C_25
REMARK                            x       y       z     vdW  Elec       q    Type
REMARK                         _______ _______ _______ _____ _____    ______ ____
ROOT
ATOM      1  N   UNL     1       3.574   6.038  17.599  0.00  0.00    +0.000 N 
ATOM      2  C   UNL     1       4.953   5.984  17.803  0.00  0.00    +0.000 C 
ATOM      3  O   UNL     1       5.607   7.028  17.864  0.00  0.00    +0.000 OA
ENDROOT
BRANCH   2   4
ATOM      4  C   UNL     1       5.671   4.622  17.865  0.00  0.00    +0.000 C 
ATOM      5  C   UNL     1       7.183   4.672  17.706  0.00  0.00    +0.000 C 
ATOM      6  O   UNL     1       7.659   5.020  16.411  0.00  0.00    +0.000 OA
ATOM      7  C   UNL     1       6.945   4.629  15.318  0.00  0.00    +0.000 A 
ATOM      8  C   UNL     1       5.722   3.948  15.442  0.00  0.00    +0.000 A 
ATOM      9  C   UNL     1       5.025   3.550  14.291  0.00  0.00    +0.000 A 
ATOM     10  C   UNL     1       5.517   3.863  13.028  0.00  0.00    +0.000 A 
ATOM     11  C   UNL     1       6.713   4.565  12.908  0.00  0.00    +0.000 A 
ATOM     12  C   UNL     1       7.438   4.956  14.042  0.00  0.00    +0.000 A 
ATOM     13  C   UNL     1       5.133   3.661  16.797  0.00  0.00    +0.000 C 
BRANCH  12  14
ATOM     14  O   UNL     1       8.576   5.648  13.716  0.00  0.00    +0.000 OA
ATOM     15  C   UNL     1       8.719   6.161  12.401  0.00  0.00    +0.000 C 
ENDBRANCH  12  14
ENDBRANCH   2   4
BRANCH   1  16
ATOM     16  C   UNL     1       2.972   7.355  17.373  0.00  0.00    +0.000 C 
BRANCH  16  18
ATOM     17  C   UNL     1       1.661   9.005  18.753  0.00  0.00    +0.000 C 
ATOM     18  C   UNL     1       2.311   7.837  18.636  0.00  0.00    +0.000 C 
ENDBRANCH  16  18
ENDBRANCH   1  16
BRANCH   1  19
ATOM     19  C   UNL     1       2.653   4.902  17.563  0.00  0.00    +0.000 C 
BRANCH  19  20
ATOM     20  C   UNL     1       2.274   4.293  18.895  0.00  0.00    +0.000 A 
ATOM     21  C   UNL     1       2.714   4.786  20.133  0.00  0.00    +0.000 A 
ATOM     22  C   UNL     1       2.298   4.182  21.323  0.00  0.00    +0.000 A 
ATOM     23  C   UNL     1       1.450   3.083  21.280  0.00  0.00    +0.000 A 
ATOM     24  F   UNL     1       1.044   2.514  22.424  0.00  0.00    +0.000 F 
ATOM     25  C   UNL     1       1.018   2.563  20.069  0.00  0.00    +0.000 A 
ATOM     26  C   UNL     1       1.432   3.164  18.881  0.00  0.00    +0.000 A 
ENDBRANCH  19  20
ENDBRANCH   1  19
TORSDOF 6
ENDMDL
MODEL 4
REMARK VINA RESULT:      -6.9      4.253      8.198
REMARK  Name = 
REMARK  7 active torsions:
REMARK  status: ('A' for Active; 'I' for Inactive)
REMARK    1  A    between atoms: C_2  and  C_3
REMARK    2  A    between atoms: C_3  and  N_4
REMARK    3  A    between atoms: N_4  and  C_5
REMARK    4  A    between atoms: C_5  and  C_6
REMARK    5  A    between atoms: C_13  and  C_15
REMARK    6  A    between atoms: C_23  and  O_24
REMARK    7  A    between atoms: O_24  and  C_25
REMARK                            x       y       z     vdW  Elec       q    Type
REMARK                         _______ _______ _______ _____ _____    ______ ____
ROOT
ATOM      1  N   UNL     1       1.981   6.924  19.523  0.00  0.00    +0.000 N 
ATOM      2  C   UNL     1       1.686   8.287  19.490  0.00  0.00    +0.000 C 
ATOM      3  O   UNL     1       1.290   8.857  20.509  0.00  0.00    +0.000 OA
ENDROOT
BRANCH   2   4
ATOM      4  C   UNL     1       1.773   9.063  18.160  0.00  0.00    +0.000 C 
ATOM      5  C   UNL     1       2.319  10.478  18.264  0.00  0.00    +0.000 C 
ATOM      6  O   UNL     1       1.479  11.422  18.919  0.00  0.00    +0.000 OA
ATOM      7  C   UNL     1       0.127  11.299  18.796  0.00  0.00    +0.000 A 
ATOM      8  C   UNL     1      -0.455  10.231  18.093  0.00  0.00    +0.000 A 
ATOM      9  C   UNL     1      -1.850  10.149  17.977  0.00  0.00    +0.000 A 
ATOM     10  C   UNL     1      -2.664  11.096  18.591  0.00  0.00    +0.000 A 
ATOM     11  C   UNL     1      -2.085  12.135  19.314  0.00  0.00    +0.000 A 
ATOM     12  C   UNL     1      -0.693  12.250  19.427  0.00  0.00    +0.000 A 
ATOM     13  C   UNL     1       0.401   9.154  17.480  0.00  0.00    +0.000 C 
BRANCH  12  14
ATOM     14  O   UNL     1      -0.323  13.328  20.189  0.00  0.00    +0.000 OA
ATOM     15  C   UNL     1      -1.076  14.527  20.102  0.00  0.00    +0.000 C 
ENDBRANCH  12  14
ENDBRANCH   2   4
BRANCH   1  16
ATOM     16  C   UNL     1       1.714   6.203  20.770  0.00  0.00    +0.000 C 
BRANCH  16  18
ATOM     17  C   UNL     1       1.763   3.719  21.190  0.00  0.00    +0.000 C 
ATOM     18  C   UNL     1       1.355   4.773  20.467  0.00  0.00    +0.000 C 
ENDBRANCH  16  18
ENDBRANCH   1  16
BRANCH   1  19
ATOM     19  C   UNL     1       2.515   6.121  18.424  0.00  0.00    +0.000 C 
BRANCH  19  20
ATOM     20  C   UNL     1       4.018   6.114  18.255  0.00  0.00    +0.000 A 
ATOM     21  C   UNL     1       4.696   6.835  17.261  0.00  0.00    +0.000 A 
ATOM     22  C   UNL     1       6.091   6.796  17.187  0.00  0.00    +0.000 A 
ATOM     23  C   UNL     1       6.811   6.033  18.097  0.00  0.00    +0.000 A 
ATOM     24  F   UNL     1       8.149   6.008  18.030  0.00  0.00    +0.000 F 
ATOM     25  C   UNL     1       6.164   5.294  19.076  0.00  0.00    +0.000 A 
ATOM     26  C   UNL     1       4.772   5.331  19.153  0.00  0.00    +0.000 A 
ENDBRANCH  19  20
ENDBRANCH   1  19
TORSDOF 6
ENDMDL
MODEL 5
REMARK VINA RESULT:      -6.8      4.252      8.161
REMARK  Name = 
REMARK  7 active torsions:
REMARK  status: ('A' for Active; 'I' for Inactive)
REMARK    1  A    between atoms: C_2  and  C_3
REMARK    2  A    between atoms: C_3  and  N_4
REMARK    3  A    between atoms: N_4  and  C_5
REMARK    4  A    between atoms: C_5  and  C_6
REMARK    5  A    between atoms: C_13  and  C_15
REMARK    6  A    between atoms: C_23  and  O_24
REMARK    7  A    between atoms: O_24  and  C_25
REMARK                            x       y       z     vdW  Elec       q    Type
REMARK                         _______ _______ _______ _____ _____    ______ ____
ROOT
ATOM      1  N   UNL     1       1.952   6.980  19.553  0.00  0.00    +0.000 N 
ATOM      2  C   UNL     1       1.643   8.339  19.507  0.00  0.00    +0.000 C 
ATOM      3  O   UNL     1       1.249   8.915  20.524  0.00  0.00    +0.000 OA
ENDROOT
BRANCH   2   4
ATOM      4  C   UNL     1       1.711   9.102  18.169  0.00  0.00    +0.000 C 
ATOM      5  C   UNL     1       2.289  10.506  18.246  0.00  0.00    +0.000 C 
ATOM      6  O   UNL     1       1.486  11.472  18.915  0.00  0.00    +0.000 OA
ATOM      7  C   UNL     1       0.129  11.377  18.828  0.00  0.00    +0.000 A 
ATOM      8  C   UNL     1      -0.493  10.315  18.150  0.00  0.00    +0.000 A 
ATOM      9  C   UNL     1      -1.893  10.262  18.071  0.00  0.00    +0.000 A 
ATOM     10  C   UNL     1      -2.670  11.231  18.697  0.00  0.00    +0.000 A 
ATOM     11  C   UNL     1      -2.051  12.264  19.396  0.00  0.00    +0.000 A 
ATOM     12  C   UNL     1      -0.655  12.351  19.471  0.00  0.00    +0.000 A 
ATOM     13  C   UNL     1       0.324   9.215  17.524  0.00  0.00    +0.000 C 
BRANCH  12  14
ATOM     14  O   UNL     1      -0.242  13.427  20.215  0.00  0.00    +0.000 OA
ATOM     15  C   UNL     1      -0.066  13.273  21.613  0.00  0.00    +0.000 C 
ENDBRANCH  12  14
ENDBRANCH   2   4
BRANCH   1  16
ATOM     16  C   UNL     1       1.703   6.269  20.809  0.00  0.00    +0.000 C 
BRANCH  16  18
ATOM     17  C   UNL     1       1.876   3.788  21.209  0.00  0.00    +0.000 C 
ATOM     18  C   UNL     1       1.377   4.827  20.524  0.00  0.00    +0.000 C 
ENDBRANCH  16  18
ENDBRANCH   1  16
BRANCH   1  19
ATOM     19  C   UNL     1       2.485   6.170  18.457  0.00  0.00    +0.000 C 
BRANCH  19  20
ATOM     20  C   UNL     1       3.991   6.102  18.334  0.00  0.00    +0.000 A 
ATOM     21  C   UNL     1       4.812   5.354  19.191  0.00  0.00    +0.000 A 
ATOM     22  C   UNL     1       6.196   5.323  18.995  0.00  0.00    +0.000 A 
ATOM     23  C   UNL     1       6.763   6.043  17.952  0.00  0.00    +0.000 A 
ATOM     24  F   UNL     1       8.089   6.001  17.760  0.00  0.00    +0.000 F 
ATOM     25  C   UNL     1       5.976   6.808  17.103  0.00  0.00    +0.000 A 
ATOM     26  C   UNL     1       4.595   6.840  17.296  0.00  0.00    +0.000 A 
ENDBRANCH  19  20
ENDBRANCH   1  19
TORSDOF 6
ENDMDL
MODEL 6
REMARK VINA RESULT:      -6.6      2.957      6.775
REMARK  Name = 
REMARK  7 active torsions:
REMARK  status: ('A' for Active; 'I' for Inactive)
REMARK    1  A    between atoms: C_2  and  C_3
REMARK    2  A    between atoms: C_3  and  N_4
REMARK    3  A    between atoms: N_4  and  C_5
REMARK    4  A    between atoms: C_5  and  C_6
REMARK    5  A    between atoms: C_13  and  C_15
REMARK    6  A    between atoms: C_23  and  O_24
REMARK    7  A    between atoms: O_24  and  C_25
REMARK                            x       y       z     vdW  Elec       q    Type
REMARK                         _______ _______ _______ _____ _____    ______ ____
ROOT
ATOM      1  N   UNL     1       6.095   5.919  17.666  0.00  0.00    +0.000 N 
ATOM      2  C   UNL     1       5.024   5.923  18.560  0.00  0.00    +0.000 C 
ATOM      3  O   UNL     1       5.173   5.479  19.701  0.00  0.00    +0.000 OA
ENDROOT
BRANCH   2   4
ATOM      4  C   UNL     1       3.634   6.401  18.097  0.00  0.00    +0.000 C 
ATOM      5  C   UNL     1       2.652   6.731  19.210  0.00  0.00    +0.000 C 
ATOM      6  O   UNL     1       2.172   5.624  19.964  0.00  0.00    +0.000 OA
ATOM      7  C   UNL     1       2.003   4.424  19.339  0.00  0.00    +0.000 A 
ATOM      8  C   UNL     1       2.349   4.241  17.990  0.00  0.00    +0.000 A 
ATOM      9  C   UNL     1       2.145   2.994  17.380  0.00  0.00    +0.000 A 
ATOM     10  C   UNL     1       1.641   1.926  18.116  0.00  0.00    +0.000 A 
ATOM     11  C   UNL     1       1.329   2.102  19.461  0.00  0.00    +0.000 A 
ATOM     12  C   UNL     1       1.505   3.343  20.087  0.00  0.00    +0.000 A 
ATOM     13  C   UNL     1       2.962   5.361  17.191  0.00  0.00    +0.000 C 
BRANCH  12  14
ATOM     14  O   UNL     1       1.156   3.308  21.413  0.00  0.00    +0.000 OA
ATOM     15  C   UNL     1       1.812   2.394  22.275  0.00  0.00    +0.000 C 
ENDBRANCH  12  14
ENDBRANCH   2   4
BRANCH   1  16
ATOM     16  C   UNL     1       7.344   5.293  18.107  0.00  0.00    +0.000 C 
BRANCH  16  18
ATOM     17  C   UNL     1       8.303   7.581  18.545  0.00  0.00    +0.000 C 
ATOM     18  C   UNL     1       8.171   6.287  18.876  0.00  0.00    +0.000 C 
ENDBRANCH  16  18
ENDBRANCH   1  16
BRANCH   1  19
ATOM     19  C   UNL     1       6.098   6.462  16.308  0.00  0.00    +0.000 C 
BRANCH  19  20
ATOM     20  C   UNL     1       6.172   5.460  15.177  0.00  0.00    +0.000 A 
ATOM     21  C   UNL     1       5.196   4.480  14.937  0.00  0.00    +0.000 A 
ATOM     22  C   UNL     1       5.324   3.606  13.854  0.00  0.00    +0.000 A 
ATOM     23  C   UNL     1       6.427   3.701  13.015  0.00  0.00    +0.000 A 
ATOM     24  F   UNL     1       6.540   2.869  11.971  0.00  0.00    +0.000 F 
ATOM     25  C   UNL     1       7.416   4.647  13.243  0.00  0.00    +0.000 A 
ATOM     26  C   UNL     1       7.291   5.520  14.323  0.00  0.00    +0.000 A 
ENDBRANCH  19  20
ENDBRANCH   1  19
TORSDOF 6
ENDMDL
MODEL 7
REMARK VINA RESULT:      -6.6      3.150      7.180
REMARK  Name = 
REMARK  7 active torsions:
REMARK  status: ('A' for Active; 'I' for Inactive)
REMARK    1  A    between atoms: C_2  and  C_3
REMARK    2  A    between atoms: C_3  and  N_4
REMARK    3  A    between atoms: N_4  and  C_5
REMARK    4  A    between atoms: C_5  and  C_6
REMARK    5  A    between atoms: C_13  and  C_15
REMARK    6  A    between atoms: C_23  and  O_24
REMARK    7  A    between atoms: O_24  and  C_25
REMARK                            x       y       z     vdW  Elec       q    Type
REMARK                         _______ _______ _______ _____ _____    ______ ____
ROOT
ATOM      1  N   UNL     1       6.145   4.825  17.078  0.00  0.00    +0.000 N 
ATOM      2  C   UNL     1       5.185   4.033  17.708  0.00  0.00    +0.000 C 
ATOM      3  O   UNL     1       5.471   3.425  18.742  0.00  0.00    +0.000 OA
ENDROOT
BRANCH   2   4
ATOM      4  C   UNL     1       3.795   3.849  17.067  0.00  0.00    +0.000 C 
ATOM      5  C   UNL     1       2.891   5.071  17.105  0.00  0.00    +0.000 C 
ATOM      6  O   UNL     1       2.403   5.442  18.388  0.00  0.00    +0.000 OA
ATOM      7  C   UNL     1       2.145   4.466  19.304  0.00  0.00    +0.000 A 
ATOM      8  C   UNL     1       2.409   3.113  19.033  0.00  0.00    +0.000 A 
ATOM      9  C   UNL     1       2.115   2.137  19.997  0.00  0.00    +0.000 A 
ATOM     10  C   UNL     1       1.603   2.506  21.237  0.00  0.00    +0.000 A 
ATOM     11  C   UNL     1       1.372   3.850  21.515  0.00  0.00    +0.000 A 
ATOM     12  C   UNL     1       1.638   4.841  20.561  0.00  0.00    +0.000 A 
ATOM     13  C   UNL     1       3.029   2.695  17.725  0.00  0.00    +0.000 C 
BRANCH  12  14
ATOM     14  O   UNL     1       1.360   6.100  21.030  0.00  0.00    +0.000 OA
ATOM     15  C   UNL     1       1.924   7.222  20.372  0.00  0.00    +0.000 C 
ENDBRANCH  12  14
ENDBRANCH   2   4
BRANCH   1  16
ATOM     16  C   UNL     1       7.500   4.824  17.638  0.00  0.00    +0.000 C 
BRANCH  16  18
ATOM     17  C   UNL     1       8.108   5.815  19.873  0.00  0.00    +0.000 C 
ATOM     18  C   UNL     1       7.647   5.954  18.620  0.00  0.00    +0.000 C 
ENDBRANCH  16  18
ENDBRANCH   1  16
BRANCH   1  19
ATOM     19  C   UNL     1       5.948   5.652  15.888  0.00  0.00    +0.000 C 
BRANCH  19  20
ATOM     20  C   UNL     1       6.361   5.046  14.565  0.00  0.00    +0.000 A 
ATOM     21  C   UNL     1       7.524   5.408  13.869  0.00  0.00    +0.000 A 
ATOM     22  C   UNL     1       7.849   4.782  12.662  0.00  0.00    +0.000 A 
ATOM     23  C   UNL     1       7.012   3.802  12.144  0.00  0.00    +0.000 A 
ATOM     24  F   UNL     1       7.333   3.196  10.992  0.00  0.00    +0.000 F 
ATOM     25  C   UNL     1       5.845   3.441  12.801  0.00  0.00    +0.000 A 
ATOM     26  C   UNL     1       5.519   4.064  14.006  0.00  0.00    +0.000 A 
ENDBRANCH  19  20
ENDBRANCH   1  19
TORSDOF 6
ENDMDL
MODEL 8
REMARK VINA RESULT:      -6.6      2.992      6.861
REMARK  Name = 
REMARK  7 active torsions:
REMARK  status: ('A' for Active; 'I' for Inactive)
REMARK    1  A    between atoms: C_2  and  C_3
REMARK    2  A    between atoms: C_3  and  N_4
REMARK    3  A    between atoms: N_4  and  C_5
REMARK    4  A    between atoms: C_5  and  C_6
REMARK    5  A    between atoms: C_13  and  C_15
REMARK    6  A    between atoms: C_23  and  O_24
REMARK    7  A    between atoms: O_24  and  C_25
REMARK                            x       y       z     vdW  Elec       q    Type
REMARK                         _______ _______ _______ _____ _____    ______ ____
ROOT
ATOM      1  N   UNL     1       5.745   5.811  17.786  0.00  0.00    +0.000 N 
ATOM      2  C   UNL     1       4.802   5.873  18.812  0.00  0.00    +0.000 C 
ATOM      3  O   UNL     1       5.046   5.356  19.905  0.00  0.00    +0.000 OA
ENDROOT
BRANCH   2   4
ATOM      4  C   UNL     1       3.422   6.511  18.554  0.00  0.00    +0.000 C 
ATOM      5  C   UNL     1       2.558   6.719  19.787  0.00  0.00    +0.000 C 
ATOM      6  O   UNL     1       2.051   5.538  20.397  0.00  0.00    +0.000 OA
ATOM      7  C   UNL     1       1.740   4.470  19.609  0.00  0.00    +0.000 A 
ATOM      8  C   UNL     1       1.966   4.487  18.222  0.00  0.00    +0.000 A 
ATOM      9  C   UNL     1       1.618   3.373  17.445  0.00  0.00    +0.000 A 
ATOM     10  C   UNL     1       1.089   2.234  18.044  0.00  0.00    +0.000 A 
ATOM     11  C   UNL     1       0.895   2.208  19.422  0.00  0.00    +0.000 A 
ATOM     12  C   UNL     1       1.216   3.316  20.218  0.00  0.00    +0.000 A 
ATOM     13  C   UNL     1       2.602   5.680  17.559  0.00  0.00    +0.000 C 
BRANCH  12  14
ATOM     14  O   UNL     1       0.968   3.088  21.548  0.00  0.00    +0.000 OA
ATOM     15  C   UNL     1       1.949   2.425  22.329  0.00  0.00    +0.000 C 
ENDBRANCH  12  14
ENDBRANCH   2   4
BRANCH   1  16
ATOM     16  C   UNL     1       6.967   5.041  18.034  0.00  0.00    +0.000 C 
BRANCH  16  18
ATOM     17  C   UNL     1       8.157   7.205  18.531  0.00  0.00    +0.000 C 
ATOM     18  C   UNL     1       7.971   5.896  18.759  0.00  0.00    +0.000 C 
ENDBRANCH  16  18
ENDBRANCH   1  16
BRANCH   1  19
ATOM     19  C   UNL     1       5.634   6.422  16.462  0.00  0.00    +0.000 C 
BRANCH  19  20
ATOM     20  C   UNL     1       5.946   5.535  15.277  0.00  0.00    +0.000 A 
ATOM     21  C   UNL     1       7.135   5.611  14.537  0.00  0.00    +0.000 A 
ATOM     22  C   UNL     1       7.359   4.737  13.468  0.00  0.00    +0.000 A 
ATOM     23  C   UNL     1       6.396   3.795  13.132  0.00  0.00    +0.000 A 
ATOM     24  F   UNL     1       6.620   2.951  12.114  0.00  0.00    +0.000 F 
ATOM     25  C   UNL     1       5.202   3.714  13.834  0.00  0.00    +0.000 A 
ATOM     26  C   UNL     1       4.976   4.584  14.900  0.00  0.00    +0.000 A 
ENDBRANCH  19  20
ENDBRANCH   1  19
TORSDOF 6
ENDMDL
MODEL 9
REMARK VINA RESULT:      -6.6      3.761      7.797
REMARK  Name = 
REMARK  7 active torsions:
REMARK  status: ('A' for Active; 'I' for Inactive)
REMARK    1  A    between atoms: C_2  and  C_3
REMARK    2  A    between atoms: C_3  and  N_4
REMARK    3  A    between atoms: N_4  and  C_5
REMARK    4  A    between atoms: C_5  and  C_6
REMARK    5  A    between atoms: C_13  and  C_15
REMARK    6  A    between atoms: C_23  and  O_24
REMARK    7  A    between atoms: O_24  and  C_25
REMARK                            x       y       z     vdW  Elec       q    Type
REMARK                         _______ _______ _______ _____ _____    ______ ____
ROOT
ATOM      1  N   UNL     1       2.065   6.544  19.250  0.00  0.00    +0.000 N 
ATOM      2  C   UNL     1       1.907   7.931  19.251  0.00  0.00    +0.000 C 
ATOM      3  O   UNL     1       1.729   8.529  20.314  0.00  0.00    +0.000 OA
ENDROOT
BRANCH   2   4
ATOM      4  C   UNL     1       1.870   8.704  17.917  0.00  0.00    +0.000 C 
ATOM      5  C   UNL     1       2.568  10.054  17.926  0.00  0.00    +0.000 C 
ATOM      6  O   UNL     1       1.940  11.074  18.694  0.00  0.00    +0.000 OA
ATOM      7  C   UNL     1       0.579  11.092  18.779  0.00  0.00    +0.000 A 
ATOM      8  C   UNL     1      -0.210  10.095  18.180  0.00  0.00    +0.000 A 
ATOM      9  C   UNL     1      -1.608  10.159  18.279  0.00  0.00    +0.000 A 
ATOM     10  C   UNL     1      -2.216  11.180  19.002  0.00  0.00    +0.000 A 
ATOM     11  C   UNL     1      -1.431  12.148  19.620  0.00  0.00    +0.000 A 
ATOM     12  C   UNL     1      -0.033  12.118  19.519  0.00  0.00    +0.000 A 
ATOM     13  C   UNL     1       0.427   8.941  17.453  0.00  0.00    +0.000 C 
BRANCH  12  14
ATOM     14  O   UNL     1       0.558  13.146  20.208  0.00  0.00    +0.000 OA
ATOM     15  C   UNL     1       0.422  14.471  19.722  0.00  0.00    +0.000 C 
ENDBRANCH  12  14
ENDBRANCH   2   4
BRANCH   1  16
ATOM     16  C   UNL     1       1.917   5.844  20.528  0.00  0.00    +0.000 C 
BRANCH  16  18
ATOM     17  C   UNL     1       1.546   3.409  21.055  0.00  0.00    +0.000 C 
ATOM     18  C   UNL     1       1.299   4.491  20.301  0.00  0.00    +0.000 C 
ENDBRANCH  16  18
ENDBRANCH   1  16
BRANCH   1  19
ATOM     19  C   UNL     1       2.343   5.700  18.089  0.00  0.00    +0.000 C 
BRANCH  19  20
ATOM     20  C   UNL     1       3.796   5.385  17.810  0.00  0.00    +0.000 A 
ATOM     21  C   UNL     1       4.869   6.108  18.352  0.00  0.00    +0.000 A 
ATOM     22  C   UNL     1       6.186   5.738  18.066  0.00  0.00    +0.000 A 
ATOM     23  C   UNL     1       6.435   4.654  17.235  0.00  0.00    +0.000 A 
ATOM     24  F   UNL     1       7.700   4.295  16.972  0.00  0.00    +0.000 F 
ATOM     25  C   UNL     1       5.392   3.936  16.669  0.00  0.00    +0.000 A 
ATOM     26  C   UNL     1       4.077   4.303  16.953  0.00  0.00    +0.000 A 
ENDBRANCH  19  20
ENDBRANCH   1  19
TORSDOF 6
ENDMDL
