MODEL 1
REMARK VINA RESULT:      -6.6      0.000      0.000
REMARK  Name = 
REMARK  10 active torsions:
REMARK  status: ('A' for Active; 'I' for Inactive)
REMARK    1  A    between atoms: C_1  and  O_2
REMARK    2  A    between atoms: O_2  and  C_3
REMARK    3  A    between atoms: C_3  and  C_5
REMARK    4  A    between atoms: C_6  and  C_7
REMARK    5  A    between atoms: C_7  and  O_9
REMARK    6  A    between atoms: O_9  and  C_10
REMARK    7  A    between atoms: C_11  and  C_12
REMARK    8  A    between atoms: C_12  and  C_13
REMARK    9  A    between atoms: C_12  and  C_19
REMARK   10  A    between atoms: N_25  and  C_26
REMARK                            x       y       z     vdW  Elec       q    Type
REMARK                         _______ _______ _______ _____ _____    ______ ____
ROOT
ATOM      1  C   UNL     1      -4.343  11.851  18.687  0.00  0.00    +0.000 A 
ATOM      2  C   UNL     1      -3.008  11.445  18.379  0.00  0.00    +0.000 A 
ATOM      3  C   UNL     1      -2.141  11.999  19.348  0.00  0.00    +0.000 A 
ATOM      4  N   UNL     1      -2.933  12.756  20.256  0.00  0.00    +0.000 N 
ATOM      5  C   UNL     1      -4.255  12.582  19.849  0.00  0.00    +0.000 A 
ATOM      6 CL   UNL     1      -5.590  13.136  20.790  0.00  0.00    +0.000 Cl
ENDROOT
BRANCH   4   7
ATOM      7  C   UNL     1      -2.502  13.549  21.395  0.00  0.00    +0.000 A 
ATOM      8  C   UNL     1      -2.495  14.949  21.349  0.00  0.00    +0.000 A 
ATOM      9  C   UNL     1      -2.133  15.709  22.474  0.00  0.00    +0.000 A 
ATOM     10  C   UNL     1      -1.738  15.084  23.652  0.00  0.00    +0.000 A 
ATOM     11  C   UNL     1      -1.718  13.704  23.706  0.00  0.00    +0.000 A 
ATOM     12  C   UNL     1      -2.116  12.956  22.594  0.00  0.00    +0.000 A 
ENDBRANCH   4   7
BRANCH   1  13
ATOM     13  C   UNL     1      -5.584  11.559  17.964  0.00  0.00    +0.000 C 
ATOM     14  O   UNL     1      -6.390  10.704  18.316  0.00  0.00    +0.000 OA
BRANCH  13  16
ATOM     15  C   UNL     1      -6.756  13.390  17.087  0.00  0.00    +0.000 C 
ATOM     16  O   UNL     1      -5.772  12.370  16.884  0.00  0.00    +0.000 OA
ENDBRANCH  13  16
ENDBRANCH   1  13
BRANCH   2  17
ATOM     17  C   UNL     1      -2.618  10.599  17.242  0.00  0.00    +0.000 C 
ATOM     18  O   UNL     1      -2.285   9.425  17.346  0.00  0.00    +0.000 OA
BRANCH  17  19
ATOM     19  O   UNL     1      -2.673  11.278  16.059  0.00  0.00    +0.000 OA
ATOM     20  C   UNL     1      -3.245  10.547  14.971  0.00  0.00    +0.000 C 
ENDBRANCH  17  19
ENDBRANCH   2  17
BRANCH   3  21
ATOM     21  C   UNL     1      -0.592  11.904  19.336  0.00  0.00    +0.000 C 
BRANCH  21  22
ATOM     22  C   UNL     1       0.068  13.280  19.577  0.00  0.00    +0.000 A 
ATOM     23  C   UNL     1       0.923  13.562  20.658  0.00  0.00    +0.000 A 
ATOM     24  C   UNL     1       1.461  14.838  20.848  0.00  0.00    +0.000 A 
ATOM     25  C   UNL     1       1.162  15.861  19.956  0.00  0.00    +0.000 A 
ATOM     26  C   UNL     1       0.336  15.606  18.866  0.00  0.00    +0.000 A 
ATOM     27  C   UNL     1      -0.200  14.328  18.674  0.00  0.00    +0.000 A 
ENDBRANCH  21  22
BRANCH  21  28
ATOM     28  C   UNL     1       0.016  10.671  20.052  0.00  0.00    +0.000 A 
ATOM     29  C   UNL     1       1.016   9.860  19.481  0.00  0.00    +0.000 A 
ATOM     30  C   UNL     1       1.392   8.649  20.075  0.00  0.00    +0.000 A 
ATOM     31  C   UNL     1       0.838   8.262  21.291  0.00  0.00    +0.000 A 
ATOM     32  C   UNL     1      -0.069   9.101  21.930  0.00  0.00    +0.000 A 
ATOM     33  C   UNL     1      -0.460  10.300  21.326  0.00  0.00    +0.000 A 
ENDBRANCH  21  28
ENDBRANCH   3  21
TORSDOF 8
ENDMDL
MODEL 2
REMARK VINA RESULT:      -6.6      0.120      1.184
REMARK  Name = 
REMARK  10 active torsions:
REMARK  status: ('A' for Active; 'I' for Inactive)
REMARK    1  A    between atoms: C_1  and  O_2
REMARK    2  A    between atoms: O_2  and  C_3
REMARK    3  A    between atoms: C_3  and  C_5
REMARK    4  A    between atoms: C_6  and  C_7
REMARK    5  A    between atoms: C_7  and  O_9
REMARK    6  A    between atoms: O_9  and  C_10
REMARK    7  A    between atoms: C_11  and  C_12
REMARK    8  A    between atoms: C_12  and  C_13
REMARK    9  A    between atoms: C_12  and  C_19
REMARK   10  A    between atoms: N_25  and  C_26
REMARK                            x       y       z     vdW  Elec       q    Type
REMARK                         _______ _______ _______ _____ _____    ______ ____
ROOT
ATOM      1  C   UNL     1      -4.340  11.851  18.684  0.00  0.00    +0.000 A 
ATOM      2  C   UNL     1      -3.012  11.436  18.362  0.00  0.00    +0.000 A 
ATOM      3  C   UNL     1      -2.131  11.980  19.327  0.00  0.00    +0.000 A 
ATOM      4  N   UNL     1      -2.910  12.739  20.245  0.00  0.00    +0.000 N 
ATOM      5  C   UNL     1      -4.237  12.576  19.849  0.00  0.00    +0.000 A 
ATOM      6 CL   UNL     1      -5.559  13.135  20.804  0.00  0.00    +0.000 Cl
ENDROOT
BRANCH   4   7
ATOM      7  C   UNL     1      -2.464  13.523  21.383  0.00  0.00    +0.000 A 
ATOM      8  C   UNL     1      -2.040  12.912  22.570  0.00  0.00    +0.000 A 
ATOM      9  C   UNL     1      -1.554  13.675  23.645  0.00  0.00    +0.000 A 
ATOM     10  C   UNL     1      -1.518  15.064  23.567  0.00  0.00    +0.000 A 
ATOM     11  C   UNL     1      -1.955  15.683  22.412  0.00  0.00    +0.000 A 
ATOM     12  C   UNL     1      -2.400  14.914  21.333  0.00  0.00    +0.000 A 
ENDBRANCH   4   7
BRANCH   1  13
ATOM     13  C   UNL     1      -5.590  11.571  17.971  0.00  0.00    +0.000 C 
ATOM     14  O   UNL     1      -6.387  10.705  18.314  0.00  0.00    +0.000 OA
BRANCH  13  16
ATOM     15  C   UNL     1      -6.909  13.290  17.079  0.00  0.00    +0.000 C 
ATOM     16  O   UNL     1      -5.796  12.407  16.914  0.00  0.00    +0.000 OA
ENDBRANCH  13  16
ENDBRANCH   1  13
BRANCH   2  17
ATOM     17  C   UNL     1      -2.637  10.593  17.219  0.00  0.00    +0.000 C 
ATOM     18  O   UNL     1      -2.297   9.421  17.316  0.00  0.00    +0.000 OA
BRANCH  17  19
ATOM     19  O   UNL     1      -2.717  11.272  16.037  0.00  0.00    +0.000 OA
ATOM     20  C   UNL     1      -3.273  10.527  14.950  0.00  0.00    +0.000 C 
ENDBRANCH  17  19
ENDBRANCH   2  17
BRANCH   3  21
ATOM     21  C   UNL     1      -0.583  11.873  19.300  0.00  0.00    +0.000 C 
BRANCH  21  22
ATOM     22  C   UNL     1       0.088  13.247  19.522  0.00  0.00    +0.000 A 
ATOM     23  C   UNL     1      -0.117  14.364  18.693  0.00  0.00    +0.000 A 
ATOM     24  C   UNL     1       0.547  15.573  18.919  0.00  0.00    +0.000 A 
ATOM     25  C   UNL     1       1.429  15.695  19.986  0.00  0.00    +0.000 A 
ATOM     26  C   UNL     1       1.636  14.613  20.836  0.00  0.00    +0.000 A 
ATOM     27  C   UNL     1       0.968  13.405  20.611  0.00  0.00    +0.000 A 
ENDBRANCH  21  22
BRANCH  21  28
ATOM     28  C   UNL     1       0.023  10.643  20.022  0.00  0.00    +0.000 A 
ATOM     29  C   UNL     1       1.040   9.844  19.465  0.00  0.00    +0.000 A 
ATOM     30  C   UNL     1       1.416   8.634  20.061  0.00  0.00    +0.000 A 
ATOM     31  C   UNL     1       0.844   8.237  21.265  0.00  0.00    +0.000 A 
ATOM     32  C   UNL     1      -0.080   9.064  21.892  0.00  0.00    +0.000 A 
ATOM     33  C   UNL     1      -0.472  10.263  21.286  0.00  0.00    +0.000 A 
ENDBRANCH  21  28
ENDBRANCH   3  21
TORSDOF 8
ENDMDL
MODEL 3
REMARK VINA RESULT:      -6.5      0.658      1.557
REMARK  Name = 
REMARK  10 active torsions:
REMARK  status: ('A' for Active; 'I' for Inactive)
REMARK    1  A    between atoms: C_1  and  O_2
REMARK    2  A    between atoms: O_2  and  C_3
REMARK    3  A    between atoms: C_3  and  C_5
REMARK    4  A    between atoms: C_6  and  C_7
REMARK    5  A    between atoms: C_7  and  O_9
REMARK    6  A    between atoms: O_9  and  C_10
REMARK    7  A    between atoms: C_11  and  C_12
REMARK    8  A    between atoms: C_12  and  C_13
REMARK    9  A    between atoms: C_12  and  C_19
REMARK   10  A    between atoms: N_25  and  C_26
REMARK                            x       y       z     vdW  Elec       q    Type
REMARK                         _______ _______ _______ _____ _____    ______ ____
ROOT
ATOM      1  C   UNL     1      -4.539  12.179  19.078  0.00  0.00    +0.000 A 
ATOM      2  C   UNL     1      -3.262  11.624  18.761  0.00  0.00    +0.000 A 
ATOM      3  C   UNL     1      -2.312  12.153  19.666  0.00  0.00    +0.000 A 
ATOM      4  N   UNL     1      -2.995  13.042  20.541  0.00  0.00    +0.000 N 
ATOM      5  C   UNL     1      -4.342  12.973  20.184  0.00  0.00    +0.000 A 
ATOM      6 CL   UNL     1      -5.584  13.717  21.121  0.00  0.00    +0.000 Cl
ENDROOT
BRANCH   4   7
ATOM      7  C   UNL     1      -2.452  13.862  21.610  0.00  0.00    +0.000 A 
ATOM      8  C   UNL     1      -2.040  13.299  22.825  0.00  0.00    +0.000 A 
ATOM      9  C   UNL     1      -1.461  14.090  23.831  0.00  0.00    +0.000 A 
ATOM     10  C   UNL     1      -1.316  15.463  23.655  0.00  0.00    +0.000 A 
ATOM     11  C   UNL     1      -1.739  16.037  22.472  0.00  0.00    +0.000 A 
ATOM     12  C   UNL     1      -2.279  15.236  21.461  0.00  0.00    +0.000 A 
ENDBRANCH   4   7
BRANCH   1  13
ATOM     13  C   UNL     1      -5.827  11.964  18.411  0.00  0.00    +0.000 C 
ATOM     14  O   UNL     1      -6.050  12.280  17.248  0.00  0.00    +0.000 OA
BRANCH  13  16
ATOM     15  C   UNL     1      -6.752   9.909  19.055  0.00  0.00    +0.000 C 
ATOM     16  O   UNL     1      -6.737  11.332  19.206  0.00  0.00    +0.000 OA
ENDBRANCH  13  16
ENDBRANCH   1  13
BRANCH   2  17
ATOM     17  C   UNL     1      -2.994  10.671  17.675  0.00  0.00    +0.000 C 
ATOM     18  O   UNL     1      -3.159   9.461  17.771  0.00  0.00    +0.000 OA
BRANCH  17  19
ATOM     19  O   UNL     1      -2.544  11.295  16.548  0.00  0.00    +0.000 OA
ATOM     20  C   UNL     1      -3.036  10.753  15.320  0.00  0.00    +0.000 C 
ENDBRANCH  17  19
ENDBRANCH   2  17
BRANCH   3  21
ATOM     21  C   UNL     1      -0.781  11.904  19.617  0.00  0.00    +0.000 C 
BRANCH  21  22
ATOM     22  C   UNL     1       0.016  13.225  19.706  0.00  0.00    +0.000 A 
ATOM     23  C   UNL     1       0.959  13.507  20.711  0.00  0.00    +0.000 A 
ATOM     24  C   UNL     1       1.623  14.735  20.763  0.00  0.00    +0.000 A 
ATOM     25  C   UNL     1       1.364  15.710  19.807  0.00  0.00    +0.000 A 
ATOM     26  C   UNL     1       0.451  15.451  18.789  0.00  0.00    +0.000 A 
ATOM     27  C   UNL     1      -0.210  14.220  18.734  0.00  0.00    +0.000 A 
ENDBRANCH  21  22
BRANCH  21  28
ATOM     28  C   UNL     1      -0.266  10.689  20.430  0.00  0.00    +0.000 A 
ATOM     29  C   UNL     1      -0.571  10.483  21.790  0.00  0.00    +0.000 A 
ATOM     30  C   UNL     1       0.074   9.486  22.532  0.00  0.00    +0.000 A 
ATOM     31  C   UNL     1       0.973   8.622  21.915  0.00  0.00    +0.000 A 
ATOM     32  C   UNL     1       1.206   8.734  20.549  0.00  0.00    +0.000 A 
ATOM     33  C   UNL     1       0.578   9.744  19.812  0.00  0.00    +0.000 A 
ENDBRANCH  21  28
ENDBRANCH   3  21
TORSDOF 8
ENDMDL
MODEL 4
REMARK VINA RESULT:      -6.4      0.723      1.172
REMARK  Name = 
REMARK  10 active torsions:
REMARK  status: ('A' for Active; 'I' for Inactive)
REMARK    1  A    between atoms: C_1  and  O_2
REMARK    2  A    between atoms: O_2  and  C_3
REMARK    3  A    between atoms: C_3  and  C_5
REMARK    4  A    between atoms: C_6  and  C_7
REMARK    5  A    between atoms: C_7  and  O_9
REMARK    6  A    between atoms: O_9  and  C_10
REMARK    7  A    between atoms: C_11  and  C_12
REMARK    8  A    between atoms: C_12  and  C_13
REMARK    9  A    between atoms: C_12  and  C_19
REMARK   10  A    between atoms: N_25  and  C_26
REMARK                            x       y       z     vdW  Elec       q    Type
REMARK                         _______ _______ _______ _____ _____    ______ ____
ROOT
ATOM      1  C   UNL     1      -4.719  12.087  18.802  0.00  0.00    +0.000 A 
ATOM      2  C   UNL     1      -3.377  11.615  18.679  0.00  0.00    +0.000 A 
ATOM      3  C   UNL     1      -2.599  12.219  19.695  0.00  0.00    +0.000 A 
ATOM      4  N   UNL     1      -3.455  13.073  20.446  0.00  0.00    +0.000 N 
ATOM      5  C   UNL     1      -4.731  12.908  19.907  0.00  0.00    +0.000 A 
ATOM      6 CL   UNL     1      -6.137  13.579  20.644  0.00  0.00    +0.000 Cl
ENDROOT
BRANCH   4   7
ATOM      7  C   UNL     1      -3.121  13.942  21.560  0.00  0.00    +0.000 A 
ATOM      8  C   UNL     1      -2.936  13.434  22.853  0.00  0.00    +0.000 A 
ATOM      9  C   UNL     1      -2.555  14.273  23.914  0.00  0.00    +0.000 A 
ATOM     10  C   UNL     1      -2.389  15.639  23.710  0.00  0.00    +0.000 A 
ATOM     11  C   UNL     1      -2.591  16.159  22.446  0.00  0.00    +0.000 A 
ATOM     12  C   UNL     1      -2.932  15.311  21.388  0.00  0.00    +0.000 A 
ENDBRANCH   4   7
BRANCH   1  13
ATOM     13  C   UNL     1      -5.884  11.776  17.969  0.00  0.00    +0.000 C 
ATOM     14  O   UNL     1      -6.712  10.917  18.252  0.00  0.00    +0.000 OA
BRANCH  13  16
ATOM     15  C   UNL     1      -6.952  13.615  16.985  0.00  0.00    +0.000 C 
ATOM     16  O   UNL     1      -5.977  12.575  16.868  0.00  0.00    +0.000 OA
ENDBRANCH  13  16
ENDBRANCH   1  13
BRANCH   2  17
ATOM     17  C   UNL     1      -2.898  10.667  17.664  0.00  0.00    +0.000 C 
ATOM     18  O   UNL     1      -2.866   9.453  17.822  0.00  0.00    +0.000 OA
BRANCH  17  19
ATOM     19  O   UNL     1      -2.496  11.301  16.524  0.00  0.00    +0.000 OA
ATOM     20  C   UNL     1      -2.921  10.682  15.307  0.00  0.00    +0.000 C 
ENDBRANCH  17  19
ENDBRANCH   2  17
BRANCH   3  21
ATOM     21  C   UNL     1      -1.064  12.074  19.866  0.00  0.00    +0.000 C 
BRANCH  21  22
ATOM     22  C   UNL     1      -0.363  13.449  19.926  0.00  0.00    +0.000 A 
ATOM     23  C   UNL     1       0.410  13.890  21.015  0.00  0.00    +0.000 A 
ATOM     24  C   UNL     1       0.990  15.161  21.032  0.00  0.00    +0.000 A 
ATOM     25  C   UNL     1       0.817  16.021  19.954  0.00  0.00    +0.000 A 
ATOM     26  C   UNL     1       0.075  15.605  18.852  0.00  0.00    +0.000 A 
ATOM     27  C   UNL     1      -0.502  14.331  18.835  0.00  0.00    +0.000 A 
ENDBRANCH  21  22
BRANCH  21  28
ATOM     28  C   UNL     1      -0.593  10.975  20.851  0.00  0.00    +0.000 A 
ATOM     29  C   UNL     1       0.098   9.816  20.445  0.00  0.00    +0.000 A 
ATOM     30  C   UNL     1       0.327   8.761  21.337  0.00  0.00    +0.000 A 
ATOM     31  C   UNL     1      -0.055   8.873  22.670  0.00  0.00    +0.000 A 
ATOM     32  C   UNL     1      -0.637  10.053  23.120  0.00  0.00    +0.000 A 
ATOM     33  C   UNL     1      -0.886  11.099  22.225  0.00  0.00    +0.000 A 
ENDBRANCH  21  28
ENDBRANCH   3  21
TORSDOF 8
ENDMDL
MODEL 5
REMARK VINA RESULT:      -6.3      0.700      1.561
REMARK  Name = 
REMARK  10 active torsions:
REMARK  status: ('A' for Active; 'I' for Inactive)
REMARK    1  A    between atoms: C_1  and  O_2
REMARK    2  A    between atoms: O_2  and  C_3
REMARK    3  A    between atoms: C_3  and  C_5
REMARK    4  A    between atoms: C_6  and  C_7
REMARK    5  A    between atoms: C_7  and  O_9
REMARK    6  A    between atoms: O_9  and  C_10
REMARK    7  A    between atoms: C_11  and  C_12
REMARK    8  A    between atoms: C_12  and  C_13
REMARK    9  A    between atoms: C_12  and  C_19
REMARK   10  A    between atoms: N_25  and  C_26
REMARK                            x       y       z     vdW  Elec       q    Type
REMARK                         _______ _______ _______ _____ _____    ______ ____
ROOT
ATOM      1  C   UNL     1      -4.553  12.171  19.179  0.00  0.00    +0.000 A 
ATOM      2  C   UNL     1      -3.278  11.678  18.767  0.00  0.00    +0.000 A 
ATOM      3  C   UNL     1      -2.293  12.231  19.618  0.00  0.00    +0.000 A 
ATOM      4  N   UNL     1      -2.953  13.073  20.555  0.00  0.00    +0.000 N 
ATOM      5  C   UNL     1      -4.316  12.952  20.286  0.00  0.00    +0.000 A 
ATOM      6 CL   UNL     1      -5.523  13.624  21.319  0.00  0.00    +0.000 Cl
ENDROOT
BRANCH   4   7
ATOM      7  C   UNL     1      -2.374  13.896  21.603  0.00  0.00    +0.000 A 
ATOM      8  C   UNL     1      -1.898  13.332  22.794  0.00  0.00    +0.000 A 
ATOM      9  C   UNL     1      -1.286  14.127  23.778  0.00  0.00    +0.000 A 
ATOM     10  C   UNL     1      -1.172  15.503  23.605  0.00  0.00    +0.000 A 
ATOM     11  C   UNL     1      -1.658  16.077  22.446  0.00  0.00    +0.000 A 
ATOM     12  C   UNL     1      -2.231  15.273  21.456  0.00  0.00    +0.000 A 
ENDBRANCH   4   7
BRANCH   1  13
ATOM     13  C   UNL     1      -5.873  11.913  18.594  0.00  0.00    +0.000 C 
ATOM     14  O   UNL     1      -6.482  12.726  17.908  0.00  0.00    +0.000 OA
BRANCH  13  16
ATOM     15  C   UNL     1      -7.173  10.567  20.006  0.00  0.00    +0.000 C 
ATOM     16  O   UNL     1      -6.330  10.654  18.853  0.00  0.00    +0.000 OA
ENDBRANCH  13  16
ENDBRANCH   1  13
BRANCH   2  17
ATOM     17  C   UNL     1      -3.043  10.758  17.645  0.00  0.00    +0.000 C 
ATOM     18  O   UNL     1      -2.731   9.582  17.780  0.00  0.00    +0.000 OA
BRANCH  17  19
ATOM     19  O   UNL     1      -3.218  11.370  16.438  0.00  0.00    +0.000 OA
ATOM     20  C   UNL     1      -2.867  10.576  15.302  0.00  0.00    +0.000 C 
ENDBRANCH  17  19
ENDBRANCH   2  17
BRANCH   3  21
ATOM     21  C   UNL     1      -0.759  12.050  19.463  0.00  0.00    +0.000 C 
BRANCH  21  22
ATOM     22  C   UNL     1      -0.011  13.397  19.569  0.00  0.00    +0.000 A 
ATOM     23  C   UNL     1      -0.231  14.487  18.707  0.00  0.00    +0.000 A 
ATOM     24  C   UNL     1       0.503  15.670  18.826  0.00  0.00    +0.000 A 
ATOM     25  C   UNL     1       1.471  15.795  19.815  0.00  0.00    +0.000 A 
ATOM     26  C   UNL     1       1.695  14.741  20.696  0.00  0.00    +0.000 A 
ATOM     27  C   UNL     1       0.958  13.559  20.579  0.00  0.00    +0.000 A 
ENDBRANCH  21  22
BRANCH  21  28
ATOM     28  C   UNL     1      -0.146  10.820  20.181  0.00  0.00    +0.000 A 
ATOM     29  C   UNL     1       0.827   9.988  19.594  0.00  0.00    +0.000 A 
ATOM     30  C   UNL     1       1.205   8.782  20.196  0.00  0.00    +0.000 A 
ATOM     31  C   UNL     1       0.680   8.420  21.432  0.00  0.00    +0.000 A 
ATOM     32  C   UNL     1      -0.198   9.279  22.084  0.00  0.00    +0.000 A 
ATOM     33  C   UNL     1      -0.591  10.474  21.473  0.00  0.00    +0.000 A 
ENDBRANCH  21  28
ENDBRANCH   3  21
TORSDOF 8
ENDMDL
MODEL 6
REMARK VINA RESULT:      -6.0      1.537      2.141
REMARK  Name = 
REMARK  10 active torsions:
REMARK  status: ('A' for Active; 'I' for Inactive)
REMARK    1  A    between atoms: C_1  and  O_2
REMARK    2  A    between atoms: O_2  and  C_3
REMARK    3  A    between atoms: C_3  and  C_5
REMARK    4  A    between atoms: C_6  and  C_7
REMARK    5  A    between atoms: C_7  and  O_9
REMARK    6  A    between atoms: O_9  and  C_10
REMARK    7  A    between atoms: C_11  and  C_12
REMARK    8  A    between atoms: C_12  and  C_13
REMARK    9  A    between atoms: C_12  and  C_19
REMARK   10  A    between atoms: N_25  and  C_26
REMARK                            x       y       z     vdW  Elec       q    Type
REMARK                         _______ _______ _______ _____ _____    ______ ____
ROOT
ATOM      1  C   UNL     1      -4.631  12.097  19.087  0.00  0.00    +0.000 A 
ATOM      2  C   UNL     1      -3.210  11.949  19.065  0.00  0.00    +0.000 A 
ATOM      3  C   UNL     1      -2.682  12.559  20.227  0.00  0.00    +0.000 A 
ATOM      4  N   UNL     1      -3.772  13.092  20.970  0.00  0.00    +0.000 N 
ATOM      5  C   UNL     1      -4.925  12.732  20.272  0.00  0.00    +0.000 A 
ATOM      6 CL   UNL     1      -6.506  12.971  20.917  0.00  0.00    +0.000 Cl
ENDROOT
BRANCH   4   7
ATOM      7  C   UNL     1      -3.744  13.847  22.210  0.00  0.00    +0.000 A 
ATOM      8  C   UNL     1      -3.523  13.220  23.443  0.00  0.00    +0.000 A 
ATOM      9  C   UNL     1      -3.438  13.965  24.631  0.00  0.00    +0.000 A 
ATOM     10  C   UNL     1      -3.609  15.346  24.613  0.00  0.00    +0.000 A 
ATOM     11  C   UNL     1      -3.852  15.977  23.408  0.00  0.00    +0.000 A 
ATOM     12  C   UNL     1      -3.896  15.232  22.226  0.00  0.00    +0.000 A 
ENDBRANCH   4   7
BRANCH   1  13
ATOM     13  C   UNL     1      -5.617  11.661  18.094  0.00  0.00    +0.000 C 
ATOM     14  O   UNL     1      -6.357  10.696  18.251  0.00  0.00    +0.000 OA
BRANCH  13  16
ATOM     15  C   UNL     1      -6.764  13.378  16.986  0.00  0.00    +0.000 C 
ATOM     16  O   UNL     1      -5.658  12.469  16.998  0.00  0.00    +0.000 OA
ENDBRANCH  13  16
ENDBRANCH   1  13
BRANCH   2  17
ATOM     17  C   UNL     1      -2.440  11.280  18.007  0.00  0.00    +0.000 C 
ATOM     18  O   UNL     1      -2.305  11.726  16.875  0.00  0.00    +0.000 OA
BRANCH  17  19
ATOM     19  O   UNL     1      -1.893  10.106  18.438  0.00  0.00    +0.000 OA
ATOM     20  C   UNL     1      -0.600   9.811  17.906  0.00  0.00    +0.000 C 
ENDBRANCH  17  19
ENDBRANCH   2  17
BRANCH   3  21
ATOM     21  C   UNL     1      -1.175  12.727  20.555  0.00  0.00    +0.000 C 
BRANCH  21  22
ATOM     22  C   UNL     1      -0.834  14.183  20.945  0.00  0.00    +0.000 A 
ATOM     23  C   UNL     1      -1.057  15.292  20.109  0.00  0.00    +0.000 A 
ATOM     24  C   UNL     1      -0.694  16.584  20.499  0.00  0.00    +0.000 A 
ATOM     25  C   UNL     1      -0.105  16.799  21.739  0.00  0.00    +0.000 A 
ATOM     26  C   UNL     1       0.109  15.723  22.596  0.00  0.00    +0.000 A 
ATOM     27  C   UNL     1      -0.258  14.431  22.207  0.00  0.00    +0.000 A 
ENDBRANCH  21  22
BRANCH  21  28
ATOM     28  C   UNL     1      -0.529  11.584  21.378  0.00  0.00    +0.000 A 
ATOM     29  C   UNL     1       0.663  10.936  20.999  0.00  0.00    +0.000 A 
ATOM     30  C   UNL     1       1.101   9.783  21.661  0.00  0.00    +0.000 A 
ATOM     31  C   UNL     1       0.405   9.300  22.765  0.00  0.00    +0.000 A 
ATOM     32  C   UNL     1      -0.711   9.988  23.227  0.00  0.00    +0.000 A 
ATOM     33  C   UNL     1      -1.161  11.128  22.552  0.00  0.00    +0.000 A 
ENDBRANCH  21  28
ENDBRANCH   3  21
TORSDOF 8
ENDMDL
MODEL 7
REMARK VINA RESULT:      -5.9      2.529      4.966
REMARK  Name = 
REMARK  10 active torsions:
REMARK  status: ('A' for Active; 'I' for Inactive)
REMARK    1  A    between atoms: C_1  and  O_2
REMARK    2  A    between atoms: O_2  and  C_3
REMARK    3  A    between atoms: C_3  and  C_5
REMARK    4  A    between atoms: C_6  and  C_7
REMARK    5  A    between atoms: C_7  and  O_9
REMARK    6  A    between atoms: O_9  and  C_10
REMARK    7  A    between atoms: C_11  and  C_12
REMARK    8  A    between atoms: C_12  and  C_13
REMARK    9  A    between atoms: C_12  and  C_19
REMARK   10  A    between atoms: N_25  and  C_26
REMARK                            x       y       z     vdW  Elec       q    Type
REMARK                         _______ _______ _______ _____ _____    ______ ____
ROOT
ATOM      1  C   UNL     1      -3.338  12.628  20.861  0.00  0.00    +0.000 A 
ATOM      2  C   UNL     1      -1.914  12.645  20.746  0.00  0.00    +0.000 A 
ATOM      3  C   UNL     1      -1.565  12.108  19.484  0.00  0.00    +0.000 A 
ATOM      4  N   UNL     1      -2.770  11.751  18.817  0.00  0.00    +0.000 N 
ATOM      5  C   UNL     1      -3.808  12.143  19.662  0.00  0.00    +0.000 A 
ATOM      6 CL   UNL     1      -5.460  12.112  19.169  0.00  0.00    +0.000 Cl
ENDROOT
BRANCH   4   7
ATOM      7  C   UNL     1      -2.937  11.123  17.518  0.00  0.00    +0.000 A 
ATOM      8  C   UNL     1      -2.275   9.932  17.192  0.00  0.00    +0.000 A 
ATOM      9  C   UNL     1      -2.488   9.299  15.956  0.00  0.00    +0.000 A 
ATOM     10  C   UNL     1      -3.338   9.864  15.009  0.00  0.00    +0.000 A 
ATOM     11  C   UNL     1      -3.979  11.050  15.306  0.00  0.00    +0.000 A 
ATOM     12  C   UNL     1      -3.791  11.653  16.554  0.00  0.00    +0.000 A 
ENDBRANCH   4   7
BRANCH   1  13
ATOM     13  C   UNL     1      -4.175  13.051  21.988  0.00  0.00    +0.000 C 
ATOM     14  O   UNL     1      -4.866  14.064  21.977  0.00  0.00    +0.000 OA
BRANCH  13  16
ATOM     15  C   UNL     1      -3.963  12.795  24.308  0.00  0.00    +0.000 C 
ATOM     16  O   UNL     1      -4.141  12.174  23.031  0.00  0.00    +0.000 OA
ENDBRANCH  13  16
ENDBRANCH   1  13
BRANCH   2  17
ATOM     17  C   UNL     1      -0.983  13.133  21.772  0.00  0.00    +0.000 C 
ATOM     18  O   UNL     1      -0.304  12.403  22.482  0.00  0.00    +0.000 OA
BRANCH  17  19
ATOM     19  O   UNL     1      -0.964  14.497  21.835  0.00  0.00    +0.000 OA
ATOM     20  C   UNL     1       0.200  15.056  22.450  0.00  0.00    +0.000 C 
ENDBRANCH  17  19
ENDBRANCH   2  17
BRANCH   3  21
ATOM     21  C   UNL     1      -0.121  11.837  18.985  0.00  0.00    +0.000 C 
BRANCH  21  22
ATOM     22  C   UNL     1       0.791  13.070  19.177  0.00  0.00    +0.000 A 
ATOM     23  C   UNL     1       0.489  14.354  18.688  0.00  0.00    +0.000 A 
ATOM     24  C   UNL     1       1.370  15.425  18.859  0.00  0.00    +0.000 A 
ATOM     25  C   UNL     1       2.572  15.240  19.531  0.00  0.00    +0.000 A 
ATOM     26  C   UNL     1       2.888  13.985  20.044  0.00  0.00    +0.000 A 
ATOM     27  C   UNL     1       2.005  12.914  19.876  0.00  0.00    +0.000 A 
ENDBRANCH  21  22
BRANCH  21  28
ATOM     28  C   UNL     1       0.463  10.442  19.323  0.00  0.00    +0.000 A 
ATOM     29  C   UNL     1       0.297   9.817  20.574  0.00  0.00    +0.000 A 
ATOM     30  C   UNL     1       1.004   8.654  20.901  0.00  0.00    +0.000 A 
ATOM     31  C   UNL     1       1.828   8.045  19.959  0.00  0.00    +0.000 A 
ATOM     32  C   UNL     1       1.920   8.581  18.679  0.00  0.00    +0.000 A 
ATOM     33  C   UNL     1       1.230   9.756  18.360  0.00  0.00    +0.000 A 
ENDBRANCH  21  28
ENDBRANCH   3  21
TORSDOF 8
ENDMDL
MODEL 8
REMARK VINA RESULT:      -5.9      1.949      4.246
REMARK  Name = 
REMARK  10 active torsions:
REMARK  status: ('A' for Active; 'I' for Inactive)
REMARK    1  A    between atoms: C_1  and  O_2
REMARK    2  A    between atoms: O_2  and  C_3
REMARK    3  A    between atoms: C_3  and  C_5
REMARK    4  A    between atoms: C_6  and  C_7
REMARK    5  A    between atoms: C_7  and  O_9
REMARK    6  A    between atoms: O_9  and  C_10
REMARK    7  A    between atoms: C_11  and  C_12
REMARK    8  A    between atoms: C_12  and  C_13
REMARK    9  A    between atoms: C_12  and  C_19
REMARK   10  A    between atoms: N_25  and  C_26
REMARK                            x       y       z     vdW  Elec       q    Type
REMARK                         _______ _______ _______ _____ _____    ______ ____
ROOT
ATOM      1  C   UNL     1      -2.490  11.282  18.098  0.00  0.00    +0.000 A 
ATOM      2  C   UNL     1      -1.538  11.686  19.083  0.00  0.00    +0.000 A 
ATOM      3  C   UNL     1      -2.218  12.420  20.082  0.00  0.00    +0.000 A 
ATOM      4  N   UNL     1      -3.592  12.479  19.717  0.00  0.00    +0.000 N 
ATOM      5  C   UNL     1      -3.712  11.726  18.549  0.00  0.00    +0.000 A 
ATOM      6 CL   UNL     1      -5.242  11.329  17.861  0.00  0.00    +0.000 Cl
ENDROOT
BRANCH   4   7
ATOM      7  C   UNL     1      -4.684  13.156  20.395  0.00  0.00    +0.000 A 
ATOM      8  C   UNL     1      -4.867  14.540  20.284  0.00  0.00    +0.000 A 
ATOM      9  C   UNL     1      -5.960  15.179  20.894  0.00  0.00    +0.000 A 
ATOM     10  C   UNL     1      -6.868  14.451  21.656  0.00  0.00    +0.000 A 
ATOM     11  C   UNL     1      -6.688  13.088  21.795  0.00  0.00    +0.000 A 
ATOM     12  C   UNL     1      -5.620  12.456  21.153  0.00  0.00    +0.000 A 
ENDBRANCH   4   7
BRANCH   1  13
ATOM     13  C   UNL     1      -2.270  10.530  16.859  0.00  0.00    +0.000 C 
ATOM     14  O   UNL     1      -1.841   9.382  16.829  0.00  0.00    +0.000 OA
BRANCH  13  16
ATOM     15  C   UNL     1      -3.298  10.430  14.755  0.00  0.00    +0.000 C 
ATOM     16  O   UNL     1      -2.637  11.225  15.745  0.00  0.00    +0.000 OA
ENDBRANCH  13  16
ENDBRANCH   1  13
BRANCH   2  17
ATOM     17  C   UNL     1      -0.099  11.389  19.048  0.00  0.00    +0.000 C 
ATOM     18  O   UNL     1       0.749  12.163  18.625  0.00  0.00    +0.000 OA
BRANCH  17  19
ATOM     19  O   UNL     1       0.177  10.148  19.547  0.00  0.00    +0.000 OA
ATOM     20  C   UNL     1       0.701  10.135  20.877  0.00  0.00    +0.000 C 
ENDBRANCH  17  19
ENDBRANCH   2  17
BRANCH   3  21
ATOM     21  C   UNL     1      -1.553  13.141  21.286  0.00  0.00    +0.000 C 
BRANCH  21  22
ATOM     22  C   UNL     1      -0.784  14.404  20.840  0.00  0.00    +0.000 A 
ATOM     23  C   UNL     1      -1.266  15.325  19.893  0.00  0.00    +0.000 A 
ATOM     24  C   UNL     1      -0.510  16.431  19.499  0.00  0.00    +0.000 A 
ATOM     25  C   UNL     1       0.747  16.648  20.050  0.00  0.00    +0.000 A 
ATOM     26  C   UNL     1       1.243  15.766  21.005  0.00  0.00    +0.000 A 
ATOM     27  C   UNL     1       0.483  14.661  21.402  0.00  0.00    +0.000 A 
ENDBRANCH  21  22
BRANCH  21  28
ATOM     28  C   UNL     1      -2.404  13.226  22.578  0.00  0.00    +0.000 A 
ATOM     29  C   UNL     1      -2.852  12.092  23.285  0.00  0.00    +0.000 A 
ATOM     30  C   UNL     1      -3.779  12.211  24.327  0.00  0.00    +0.000 A 
ATOM     31  C   UNL     1      -4.215  13.466  24.741  0.00  0.00    +0.000 A 
ATOM     32  C   UNL     1      -3.700  14.605  24.133  0.00  0.00    +0.000 A 
ATOM     33  C   UNL     1      -2.790  14.487  23.077  0.00  0.00    +0.000 A 
ENDBRANCH  21  28
ENDBRANCH   3  21
TORSDOF 8
ENDMDL
MODEL 9
REMARK VINA RESULT:      -5.9      1.435      1.798
REMARK  Name = 
REMARK  10 active torsions:
REMARK  status: ('A' for Active; 'I' for Inactive)
REMARK    1  A    between atoms: C_1  and  O_2
REMARK    2  A    between atoms: O_2  and  C_3
REMARK    3  A    between atoms: C_3  and  C_5
REMARK    4  A    between atoms: C_6  and  C_7
REMARK    5  A    between atoms: C_7  and  O_9
REMARK    6  A    between atoms: O_9  and  C_10
REMARK    7  A    between atoms: C_11  and  C_12
REMARK    8  A    between atoms: C_12  and  C_13
REMARK    9  A    between atoms: C_12  and  C_19
REMARK   10  A    between atoms: N_25  and  C_26
REMARK                            x       y       z     vdW  Elec       q    Type
REMARK                         _______ _______ _______ _____ _____    ______ ____
ROOT
ATOM      1  C   UNL     1      -4.769  12.075  18.997  0.00  0.00    +0.000 A 
ATOM      2  C   UNL     1      -3.351  11.911  18.932  0.00  0.00    +0.000 A 
ATOM      3  C   UNL     1      -2.790  12.434  20.121  0.00  0.00    +0.000 A 
ATOM      4  N   UNL     1      -3.856  12.929  20.923  0.00  0.00    +0.000 N 
ATOM      5  C   UNL     1      -5.028  12.632  20.228  0.00  0.00    +0.000 A 
ATOM      6 CL   UNL     1      -6.591  12.847  20.924  0.00  0.00    +0.000 Cl
ENDROOT
BRANCH   4   7
ATOM      7  C   UNL     1      -3.790  13.598  22.210  0.00  0.00    +0.000 A 
ATOM      8  C   UNL     1      -3.912  14.989  22.318  0.00  0.00    +0.000 A 
ATOM      9  C   UNL     1      -3.906  15.622  23.572  0.00  0.00    +0.000 A 
ATOM     10  C   UNL     1      -3.741  14.881  24.738  0.00  0.00    +0.000 A 
ATOM     11  C   UNL     1      -3.594  13.510  24.647  0.00  0.00    +0.000 A 
ATOM     12  C   UNL     1      -3.640  12.884  23.397  0.00  0.00    +0.000 A 
ENDBRANCH   4   7
BRANCH   1  13
ATOM     13  C   UNL     1      -5.783  11.721  17.999  0.00  0.00    +0.000 C 
ATOM     14  O   UNL     1      -6.582  10.802  18.142  0.00  0.00    +0.000 OA
BRANCH  13  16
ATOM     15  C   UNL     1      -6.737  13.607  16.987  0.00  0.00    +0.000 C 
ATOM     16  O   UNL     1      -5.775  12.550  16.917  0.00  0.00    +0.000 OA
ENDBRANCH  13  16
ENDBRANCH   1  13
BRANCH   2  17
ATOM     17  C   UNL     1      -2.615  11.307  17.814  0.00  0.00    +0.000 C 
ATOM     18  O   UNL     1      -1.777  11.900  17.147  0.00  0.00    +0.000 OA
BRANCH  17  19
ATOM     19  O   UNL     1      -2.974  10.005  17.611  0.00  0.00    +0.000 OA
ATOM     20  C   UNL     1      -3.102   9.621  16.240  0.00  0.00    +0.000 C 
ENDBRANCH  17  19
ENDBRANCH   2  17
BRANCH   3  21
ATOM     21  C   UNL     1      -1.273  12.561  20.425  0.00  0.00    +0.000 C 
BRANCH  21  22
ATOM     22  C   UNL     1      -0.903  13.983  20.900  0.00  0.00    +0.000 A 
ATOM     23  C   UNL     1      -1.093  15.143  20.127  0.00  0.00    +0.000 A 
ATOM     24  C   UNL     1      -0.703  16.402  20.593  0.00  0.00    +0.000 A 
ATOM     25  C   UNL     1      -0.120  16.532  21.847  0.00  0.00    +0.000 A 
ATOM     26  C   UNL     1       0.062  15.404  22.643  0.00  0.00    +0.000 A 
ATOM     27  C   UNL     1      -0.332  14.146  22.178  0.00  0.00    +0.000 A 
ENDBRANCH  21  22
BRANCH  21  28
ATOM     28  C   UNL     1      -0.627  11.358  21.158  0.00  0.00    +0.000 A 
ATOM     29  C   UNL     1       0.257  10.456  20.534  0.00  0.00    +0.000 A 
ATOM     30  C   UNL     1       0.658   9.278  21.175  0.00  0.00    +0.000 A 
ATOM     31  C   UNL     1       0.253   9.014  22.480  0.00  0.00    +0.000 A 
ATOM     32  C   UNL     1      -0.528   9.945  23.157  0.00  0.00    +0.000 A 
ATOM     33  C   UNL     1      -0.947  11.112  22.509  0.00  0.00    +0.000 A 
ENDBRANCH  21  28
ENDBRANCH   3  21
TORSDOF 8
ENDMDL
