MODEL 1
REMARK VINA RESULT:      -6.9      0.000      0.000
REMARK  Name = 
REMARK  5 active torsions:
REMARK  status: ('A' for Active; 'I' for Inactive)
REMARK    1  A    between atoms: C_1  and  O_2
REMARK    2  A    between atoms: O_2  and  C_3
REMARK    3  A    between atoms: N_6  and  C_7
REMARK    4  A    between atoms: C_11  and  C_12
REMARK    5  A    between atoms: C_12  and  O_13
REMARK                            x       y       z     vdW  Elec       q    Type
REMARK                         _______ _______ _______ _____ _____    ______ ____
ROOT
ATOM      1  C   UNL     1       6.719   5.382  16.406  0.00  0.00    +0.000 A 
ATOM      2  C   UNL     1       5.322   5.288  15.999  0.00  0.00    +0.000 A 
ATOM      3  C   UNL     1       4.487   5.086  17.015  0.00  0.00    +0.000 A 
ATOM      4  N   UNL     1       4.943   5.001  18.316  0.00  0.00    +0.000 N 
ATOM      5  C   UNL     1       6.296   5.196  18.631  0.00  0.00    +0.000 A 
ATOM      6  O   UNL     1       6.672   5.234  19.801  0.00  0.00    +0.000 OA
ATOM      7  N   UNL     1       7.192   5.349  17.598  0.00  0.00    +0.000 NA
ENDROOT
BRANCH   4   8
ATOM      8  C   UNL     1       4.023   4.770  19.422  0.00  0.00    +0.000 C 
ATOM      9  C   UNL     1       2.640   5.360  19.180  0.00  0.00    +0.000 C 
ATOM     10  C   UNL     1       1.767   4.455  20.005  0.00  0.00    +0.000 C 
ATOM     11  F   UNL     1       1.821   4.879  21.298  0.00  0.00    +0.000 F 
ATOM     12  C   UNL     1       2.451   3.102  19.909  0.00  0.00    +0.000 C 
ATOM     13  O   UNL     1       3.847   3.352  19.622  0.00  0.00    +0.000 OA
BRANCH  12  14
ATOM     14  C   UNL     1       1.897   2.243  18.770  0.00  0.00    +0.000 C 
BRANCH  14  15
ATOM     15  O   UNL     1       2.946   1.500  18.152  0.00  0.00    +0.000 OA
ATOM     16  H   UNL     1       2.554   1.060  17.373  0.00  0.00    +0.000 HD
ENDBRANCH  14  15
ENDBRANCH  12  14
ENDBRANCH   4   8
BRANCH   1  18
ATOM     17  C   UNL     1       7.024   4.790  14.134  0.00  0.00    +0.000 C 
ATOM     18  O   UNL     1       7.480   5.501  15.288  0.00  0.00    +0.000 OA
ENDBRANCH   1  18
TORSDOF 4
ENDMDL
MODEL 2
REMARK VINA RESULT:      -6.7      1.722      1.964
REMARK  Name = 
REMARK  5 active torsions:
REMARK  status: ('A' for Active; 'I' for Inactive)
REMARK    1  A    between atoms: C_1  and  O_2
REMARK    2  A    between atoms: O_2  and  C_3
REMARK    3  A    between atoms: N_6  and  C_7
REMARK    4  A    between atoms: C_11  and  C_12
REMARK    5  A    between atoms: C_12  and  O_13
REMARK                            x       y       z     vdW  Elec       q    Type
REMARK                         _______ _______ _______ _____ _____    ______ ____
ROOT
ATOM      1  C   UNL     1       5.750   5.517  15.449  0.00  0.00    +0.000 A 
ATOM      2  C   UNL     1       5.324   4.150  15.721  0.00  0.00    +0.000 A 
ATOM      3  C   UNL     1       4.455   4.055  16.724  0.00  0.00    +0.000 A 
ATOM      4  N   UNL     1       4.011   5.175  17.400  0.00  0.00    +0.000 N 
ATOM      5  C   UNL     1       4.401   6.465  17.013  0.00  0.00    +0.000 A 
ATOM      6  O   UNL     1       3.911   7.459  17.546  0.00  0.00    +0.000 OA
ATOM      7  N   UNL     1       5.342   6.593  16.017  0.00  0.00    +0.000 NA
ENDROOT
BRANCH   4   8
ATOM      8  C   UNL     1       3.066   5.062  18.504  0.00  0.00    +0.000 C 
ATOM      9  C   UNL     1       1.966   4.042  18.245  0.00  0.00    +0.000 C 
ATOM     10  C   UNL     1       1.611   3.606  19.640  0.00  0.00    +0.000 C 
ATOM     11  F   UNL     1       0.757   4.528  20.166  0.00  0.00    +0.000 F 
ATOM     12  C   UNL     1       2.928   3.680  20.392  0.00  0.00    +0.000 C 
ATOM     13  O   UNL     1       3.759   4.639  19.698  0.00  0.00    +0.000 OA
BRANCH  12  14
ATOM     14  C   UNL     1       3.677   2.345  20.396  0.00  0.00    +0.000 C 
BRANCH  14  15
ATOM     15  O   UNL     1       4.982   2.505  19.842  0.00  0.00    +0.000 OA
ATOM     16  H   UNL     1       5.004   1.975  19.022  0.00  0.00    +0.000 HD
ENDBRANCH  14  15
ENDBRANCH  12  14
ENDBRANCH   4   8
BRANCH   1  18
ATOM     17  C   UNL     1       6.713   4.309  13.655  0.00  0.00    +0.000 C 
ATOM     18  O   UNL     1       6.692   5.482  14.472  0.00  0.00    +0.000 OA
ENDBRANCH   1  18
TORSDOF 4
ENDMDL
MODEL 3
REMARK VINA RESULT:      -6.6      1.799      2.413
REMARK  Name = 
REMARK  5 active torsions:
REMARK  status: ('A' for Active; 'I' for Inactive)
REMARK    1  A    between atoms: C_1  and  O_2
REMARK    2  A    between atoms: O_2  and  C_3
REMARK    3  A    between atoms: N_6  and  C_7
REMARK    4  A    between atoms: C_11  and  C_12
REMARK    5  A    between atoms: C_12  and  O_13
REMARK                            x       y       z     vdW  Elec       q    Type
REMARK                         _______ _______ _______ _____ _____    ______ ____
ROOT
ATOM      1  C   UNL     1       6.849   4.754  14.054  0.00  0.00    +0.000 A 
ATOM      2  C   UNL     1       5.571   4.103  14.320  0.00  0.00    +0.000 A 
ATOM      3  C   UNL     1       5.120   4.304  15.556  0.00  0.00    +0.000 A 
ATOM      4  N   UNL     1       5.820   5.079  16.459  0.00  0.00    +0.000 N 
ATOM      5  C   UNL     1       6.998   5.747  16.093  0.00  0.00    +0.000 A 
ATOM      6  O   UNL     1       7.550   6.525  16.869  0.00  0.00    +0.000 OA
ATOM      7  N   UNL     1       7.520   5.513  14.841  0.00  0.00    +0.000 NA
ENDROOT
BRANCH   4   8
ATOM      8  C   UNL     1       5.325   5.287  17.814  0.00  0.00    +0.000 C 
ATOM      9  C   UNL     1       3.805   5.328  17.893  0.00  0.00    +0.000 C 
ATOM     10  C   UNL     1       3.553   4.846  19.296  0.00  0.00    +0.000 C 
ATOM     11  F   UNL     1       3.715   5.902  20.141  0.00  0.00    +0.000 F 
ATOM     12  C   UNL     1       4.671   3.849  19.545  0.00  0.00    +0.000 C 
ATOM     13  O   UNL     1       5.762   4.206  18.665  0.00  0.00    +0.000 OA
BRANCH  12  14
ATOM     14  C   UNL     1       4.263   2.413  19.209  0.00  0.00    +0.000 C 
BRANCH  14  15
ATOM     15  O   UNL     1       5.091   1.484  19.908  0.00  0.00    +0.000 OA
ATOM     16  H   UNL     1       5.879   1.338  19.349  0.00  0.00    +0.000 HD
ENDBRANCH  14  15
ENDBRANCH  12  14
ENDBRANCH   4   8
BRANCH   1  18
ATOM     17  C   UNL     1       6.474   3.405  12.145  0.00  0.00    +0.000 C 
ATOM     18  O   UNL     1       7.248   4.411  12.803  0.00  0.00    +0.000 OA
ENDBRANCH   1  18
TORSDOF 4
ENDMDL
MODEL 4
REMARK VINA RESULT:      -6.6      1.015      1.033
REMARK  Name = 
REMARK  5 active torsions:
REMARK  status: ('A' for Active; 'I' for Inactive)
REMARK    1  A    between atoms: C_1  and  O_2
REMARK    2  A    between atoms: O_2  and  C_3
REMARK    3  A    between atoms: N_6  and  C_7
REMARK    4  A    between atoms: C_11  and  C_12
REMARK    5  A    between atoms: C_12  and  O_13
REMARK                            x       y       z     vdW  Elec       q    Type
REMARK                         _______ _______ _______ _____ _____    ______ ____
ROOT
ATOM      1  C   UNL     1       6.883   4.960  15.888  0.00  0.00    +0.000 A 
ATOM      2  C   UNL     1       5.481   4.685  15.597  0.00  0.00    +0.000 A 
ATOM      3  C   UNL     1       4.757   4.419  16.681  0.00  0.00    +0.000 A 
ATOM      4  N   UNL     1       5.319   4.434  17.943  0.00  0.00    +0.000 N 
ATOM      5  C   UNL     1       6.657   4.801  18.144  0.00  0.00    +0.000 A 
ATOM      6  O   UNL     1       7.114   4.923  19.279  0.00  0.00    +0.000 OA
ATOM      7  N   UNL     1       7.446   5.025  17.039  0.00  0.00    +0.000 NA
ENDROOT
BRANCH   4   8
ATOM      8  C   UNL     1       4.521   4.132  19.125  0.00  0.00    +0.000 C 
ATOM      9  C   UNL     1       3.604   5.277  19.533  0.00  0.00    +0.000 C 
ATOM     10  C   UNL     1       2.480   4.547  20.217  0.00  0.00    +0.000 C 
ATOM     11  F   UNL     1       2.867   4.281  21.496  0.00  0.00    +0.000 F 
ATOM     12  C   UNL     1       2.381   3.236  19.457  0.00  0.00    +0.000 C 
ATOM     13  O   UNL     1       3.678   2.990  18.866  0.00  0.00    +0.000 OA
BRANCH  12  14
ATOM     14  C   UNL     1       1.362   3.294  18.317  0.00  0.00    +0.000 C 
BRANCH  14  15
ATOM     15  O   UNL     1       0.417   2.233  18.441  0.00  0.00    +0.000 OA
ATOM     16  H   UNL     1       0.315   2.060  19.397  0.00  0.00    +0.000 HD
ENDBRANCH  14  15
ENDBRANCH  12  14
ENDBRANCH   4   8
BRANCH   1  18
ATOM     17  C   UNL     1       6.899   4.592  13.549  0.00  0.00    +0.000 C 
ATOM     18  O   UNL     1       7.536   5.132  14.710  0.00  0.00    +0.000 OA
ENDBRANCH   1  18
TORSDOF 4
ENDMDL
MODEL 5
REMARK VINA RESULT:      -6.5      2.603      5.780
REMARK  Name = 
REMARK  5 active torsions:
REMARK  status: ('A' for Active; 'I' for Inactive)
REMARK    1  A    between atoms: C_1  and  O_2
REMARK    2  A    between atoms: O_2  and  C_3
REMARK    3  A    between atoms: N_6  and  C_7
REMARK    4  A    between atoms: C_11  and  C_12
REMARK    5  A    between atoms: C_12  and  O_13
REMARK                            x       y       z     vdW  Elec       q    Type
REMARK                         _______ _______ _______ _____ _____    ______ ____
ROOT
ATOM      1  C   UNL     1       2.220   3.794  20.084  0.00  0.00    +0.000 A 
ATOM      2  C   UNL     1       2.856   5.101  20.196  0.00  0.00    +0.000 A 
ATOM      3  C   UNL     1       3.899   5.255  19.384  0.00  0.00    +0.000 A 
ATOM      4  N   UNL     1       4.292   4.252  18.520  0.00  0.00    +0.000 N 
ATOM      5  C   UNL     1       3.567   3.056  18.408  0.00  0.00    +0.000 A 
ATOM      6  O   UNL     1       3.858   2.220  17.555  0.00  0.00    +0.000 OA
ATOM      7  N   UNL     1       2.519   2.844  19.274  0.00  0.00    +0.000 NA
ENDROOT
BRANCH   4   8
ATOM      8  C   UNL     1       5.442   4.424  17.641  0.00  0.00    +0.000 C 
ATOM      9  C   UNL     1       5.499   5.804  16.998  0.00  0.00    +0.000 C 
ATOM     10  C   UNL     1       6.976   5.982  16.775  0.00  0.00    +0.000 C 
ATOM     11  F   UNL     1       7.310   5.333  15.624  0.00  0.00    +0.000 F 
ATOM     12  C   UNL     1       7.612   5.253  17.945  0.00  0.00    +0.000 C 
ATOM     13  O   UNL     1       6.661   4.260  18.394  0.00  0.00    +0.000 OA
BRANCH  12  14
ATOM     14  C   UNL     1       7.898   6.180  19.129  0.00  0.00    +0.000 C 
BRANCH  14  15
ATOM     15  O   UNL     1       7.905   5.442  20.349  0.00  0.00    +0.000 OA
ATOM     16  H   UNL     1       7.543   4.558  20.142  0.00  0.00    +0.000 HD
ENDBRANCH  14  15
ENDBRANCH  12  14
ENDBRANCH   4   8
BRANCH   1  18
ATOM     17  C   UNL     1       1.289   2.611  21.911  0.00  0.00    +0.000 C 
ATOM     18  O   UNL     1       1.231   3.721  21.011  0.00  0.00    +0.000 OA
ENDBRANCH   1  18
TORSDOF 4
ENDMDL
MODEL 6
REMARK VINA RESULT:      -6.5      1.307      1.358
REMARK  Name = 
REMARK  5 active torsions:
REMARK  status: ('A' for Active; 'I' for Inactive)
REMARK    1  A    between atoms: C_1  and  O_2
REMARK    2  A    between atoms: O_2  and  C_3
REMARK    3  A    between atoms: N_6  and  C_7
REMARK    4  A    between atoms: C_11  and  C_12
REMARK    5  A    between atoms: C_12  and  O_13
REMARK                            x       y       z     vdW  Elec       q    Type
REMARK                         _______ _______ _______ _____ _____    ______ ____
ROOT
ATOM      1  C   UNL     1       7.032   5.201  15.213  0.00  0.00    +0.000 A 
ATOM      2  C   UNL     1       5.908   4.277  15.112  0.00  0.00    +0.000 A 
ATOM      3  C   UNL     1       5.245   4.124  16.256  0.00  0.00    +0.000 A 
ATOM      4  N   UNL     1       5.609   4.810  17.397  0.00  0.00    +0.000 N 
ATOM      5  C   UNL     1       6.648   5.751  17.384  0.00  0.00    +0.000 A 
ATOM      6  O   UNL     1       6.889   6.439  18.375  0.00  0.00    +0.000 OA
ATOM      7  N   UNL     1       7.390   5.891  16.233  0.00  0.00    +0.000 NA
ENDROOT
BRANCH   4   8
ATOM      8  C   UNL     1       4.883   4.629  18.648  0.00  0.00    +0.000 C 
ATOM      9  C   UNL     1       3.384   4.854  18.505  0.00  0.00    +0.000 C 
ATOM     10  C   UNL     1       2.832   3.979  19.597  0.00  0.00    +0.000 C 
ATOM     11  F   UNL     1       2.915   4.666  20.771  0.00  0.00    +0.000 F 
ATOM     12  C   UNL     1       3.800   2.809  19.651  0.00  0.00    +0.000 C 
ATOM     13  O   UNL     1       5.063   3.279  19.125  0.00  0.00    +0.000 OA
BRANCH  12  14
ATOM     14  C   UNL     1       3.350   1.635  18.778  0.00  0.00    +0.000 C 
BRANCH  14  15
ATOM     15  O   UNL     1       1.928   1.515  18.801  0.00  0.00    +0.000 OA
ATOM     16  H   UNL     1       1.571   2.421  18.732  0.00  0.00    +0.000 HD
ENDBRANCH  14  15
ENDBRANCH  12  14
ENDBRANCH   4   8
BRANCH   1  18
ATOM     17  C   UNL     1       7.107   4.415  12.981  0.00  0.00    +0.000 C 
ATOM     18  O   UNL     1       7.680   5.213  14.020  0.00  0.00    +0.000 OA
ENDBRANCH   1  18
TORSDOF 4
ENDMDL
MODEL 7
REMARK VINA RESULT:      -6.4      1.572      1.693
REMARK  Name = 
REMARK  5 active torsions:
REMARK  status: ('A' for Active; 'I' for Inactive)
REMARK    1  A    between atoms: C_1  and  O_2
REMARK    2  A    between atoms: O_2  and  C_3
REMARK    3  A    between atoms: N_6  and  C_7
REMARK    4  A    between atoms: C_11  and  C_12
REMARK    5  A    between atoms: C_12  and  O_13
REMARK                            x       y       z     vdW  Elec       q    Type
REMARK                         _______ _______ _______ _____ _____    ______ ____
ROOT
ATOM      1  C   UNL     1       5.875   5.438  15.355  0.00  0.00    +0.000 A 
ATOM      2  C   UNL     1       5.502   4.069  15.691  0.00  0.00    +0.000 A 
ATOM      3  C   UNL     1       4.690   3.983  16.742  0.00  0.00    +0.000 A 
ATOM      4  N   UNL     1       4.252   5.112  17.406  0.00  0.00    +0.000 N 
ATOM      5  C   UNL     1       4.585   6.399  16.961  0.00  0.00    +0.000 A 
ATOM      6  O   UNL     1       4.097   7.396  17.490  0.00  0.00    +0.000 OA
ATOM      7  N   UNL     1       5.469   6.520  15.913  0.00  0.00    +0.000 NA
ENDROOT
BRANCH   4   8
ATOM      8  C   UNL     1       3.371   5.009  18.563  0.00  0.00    +0.000 C 
ATOM      9  C   UNL     1       1.909   4.814  18.182  0.00  0.00    +0.000 C 
ATOM     10  C   UNL     1       1.374   4.066  19.373  0.00  0.00    +0.000 C 
ATOM     11  F   UNL     1       1.093   4.974  20.350  0.00  0.00    +0.000 F 
ATOM     12  C   UNL     1       2.547   3.214  19.826  0.00  0.00    +0.000 C 
ATOM     13  O   UNL     1       3.751   3.872  19.367  0.00  0.00    +0.000 OA
BRANCH  12  14
ATOM     14  C   UNL     1       2.528   1.814  19.209  0.00  0.00    +0.000 C 
BRANCH  14  15
ATOM     15  O   UNL     1       1.252   1.542  18.633  0.00  0.00    +0.000 OA
ATOM     16  H   UNL     1       0.873   2.404  18.373  0.00  0.00    +0.000 HD
ENDBRANCH  14  15
ENDBRANCH  12  14
ENDBRANCH   4   8
BRANCH   1  18
ATOM     17  C   UNL     1       6.758   4.210  13.534  0.00  0.00    +0.000 C 
ATOM     18  O   UNL     1       6.765   5.397  14.331  0.00  0.00    +0.000 OA
ENDBRANCH   1  18
TORSDOF 4
ENDMDL
MODEL 8
REMARK VINA RESULT:      -6.3      2.359      3.227
REMARK  Name = 
REMARK  5 active torsions:
REMARK  status: ('A' for Active; 'I' for Inactive)
REMARK    1  A    between atoms: C_1  and  O_2
REMARK    2  A    between atoms: O_2  and  C_3
REMARK    3  A    between atoms: N_6  and  C_7
REMARK    4  A    between atoms: C_11  and  C_12
REMARK    5  A    between atoms: C_12  and  O_13
REMARK                            x       y       z     vdW  Elec       q    Type
REMARK                         _______ _______ _______ _____ _____    ______ ____
ROOT
ATOM      1  C   UNL     1       7.296   6.616  17.959  0.00  0.00    +0.000 A 
ATOM      2  C   UNL     1       6.958   5.746  19.080  0.00  0.00    +0.000 A 
ATOM      3  C   UNL     1       5.924   4.945  18.835  0.00  0.00    +0.000 A 
ATOM      4  N   UNL     1       5.277   4.957  17.616  0.00  0.00    +0.000 N 
ATOM      5  C   UNL     1       5.725   5.761  16.557  0.00  0.00    +0.000 A 
ATOM      6  O   UNL     1       5.213   5.679  15.442  0.00  0.00    +0.000 OA
ATOM      7  N   UNL     1       6.755   6.642  16.796  0.00  0.00    +0.000 NA
ENDROOT
BRANCH   4   8
ATOM      8  C   UNL     1       4.138   4.084  17.360  0.00  0.00    +0.000 C 
ATOM      9  C   UNL     1       4.119   2.853  18.255  0.00  0.00    +0.000 C 
ATOM     10  C   UNL     1       2.648   2.544  18.328  0.00  0.00    +0.000 C 
ATOM     11  F   UNL     1       2.308   1.846  17.208  0.00  0.00    +0.000 F 
ATOM     12  C   UNL     1       1.985   3.909  18.269  0.00  0.00    +0.000 C 
ATOM     13  O   UNL     1       2.909   4.800  17.602  0.00  0.00    +0.000 OA
BRANCH  12  14
ATOM     14  C   UNL     1       1.712   4.489  19.658  0.00  0.00    +0.000 C 
BRANCH  14  15
ATOM     15  O   UNL     1       0.547   3.894  20.225  0.00  0.00    +0.000 OA
ATOM     16  H   UNL     1       0.676   2.927  20.176  0.00  0.00    +0.000 HD
ENDBRANCH  14  15
ENDBRANCH  12  14
ENDBRANCH   4   8
BRANCH   1  18
ATOM     17  C   UNL     1       8.189   8.809  17.949  0.00  0.00    +0.000 C 
ATOM     18  O   UNL     1       8.301   7.441  18.349  0.00  0.00    +0.000 OA
ENDBRANCH   1  18
TORSDOF 4
ENDMDL
MODEL 9
REMARK VINA RESULT:      -6.3      1.794      2.222
REMARK  Name = 
REMARK  5 active torsions:
REMARK  status: ('A' for Active; 'I' for Inactive)
REMARK    1  A    between atoms: C_1  and  O_2
REMARK    2  A    between atoms: O_2  and  C_3
REMARK    3  A    between atoms: N_6  and  C_7
REMARK    4  A    between atoms: C_11  and  C_12
REMARK    5  A    between atoms: C_12  and  O_13
REMARK                            x       y       z     vdW  Elec       q    Type
REMARK                         _______ _______ _______ _____ _____    ______ ____
ROOT
ATOM      1  C   UNL     1       6.974   4.806  14.093  0.00  0.00    +0.000 A 
ATOM      2  C   UNL     1       5.627   4.249  14.124  0.00  0.00    +0.000 A 
ATOM      3  C   UNL     1       5.073   4.269  15.334  0.00  0.00    +0.000 A 
ATOM      4  N   UNL     1       5.739   4.796  16.422  0.00  0.00    +0.000 N 
ATOM      5  C   UNL     1       6.999   5.398  16.288  0.00  0.00    +0.000 A 
ATOM      6  O   UNL     1       7.532   5.966  17.239  0.00  0.00    +0.000 OA
ATOM      7  N   UNL     1       7.623   5.341  15.062  0.00  0.00    +0.000 NA
ENDROOT
BRANCH   4   8
ATOM      8  C   UNL     1       5.129   4.806  17.746  0.00  0.00    +0.000 C 
ATOM      9  C   UNL     1       3.955   5.771  17.853  0.00  0.00    +0.000 C 
ATOM     10  C   UNL     1       3.122   5.128  18.928  0.00  0.00    +0.000 C 
ATOM     11  F   UNL     1       3.643   5.485  20.136  0.00  0.00    +0.000 F 
ATOM     12  C   UNL     1       3.347   3.640  18.723  0.00  0.00    +0.000 C 
ATOM     13  O   UNL     1       4.623   3.492  18.060  0.00  0.00    +0.000 OA
BRANCH  12  14
ATOM     14  C   UNL     1       2.286   3.005  17.822  0.00  0.00    +0.000 C 
BRANCH  14  15
ATOM     15  O   UNL     1       1.190   3.899  17.637  0.00  0.00    +0.000 OA
ATOM     16  H   UNL     1       1.528   4.797  17.824  0.00  0.00    +0.000 HD
ENDBRANCH  14  15
ENDBRANCH  12  14
ENDBRANCH   4   8
BRANCH   1  18
ATOM     17  C   UNL     1       6.837   3.662  12.025  0.00  0.00    +0.000 C 
ATOM     18  O   UNL     1       7.468   4.656  12.838  0.00  0.00    +0.000 OA
ENDBRANCH   1  18
TORSDOF 4
ENDMDL
