MODEL 1
REMARK VINA RESULT:      -7.5      0.000      0.000
REMARK  Name = 
REMARK  10 active torsions:
REMARK  status: ('A' for Active; 'I' for Inactive)
REMARK    1  A    between atoms: C_1  and  O_2
REMARK    2  A    between atoms: O_2  and  C_3
REMARK    3  A    between atoms: C_3  and  C_4
REMARK    4  A    between atoms: C_4  and  N_5
REMARK    5  A    between atoms: N_5  and  C_6
REMARK    6  A    between atoms: N_5  and  C_7
REMARK    7  A    between atoms: C_10  and  N_11
REMARK    8  A    between atoms: C_13  and  C_14
REMARK    9  A    between atoms: N_18  and  C_19
REMARK   10  A    between atoms: C_27  and  C_28
REMARK                            x       y       z     vdW  Elec       q    Type
REMARK                         _______ _______ _______ _____ _____    ______ ____
ROOT
ATOM      1  N   UNL     1       2.184   7.221  19.821  0.00  0.00    +0.000 N 
ATOM      2  C   UNL     1       1.462   6.380  20.600  0.00  0.00    +0.000 A 
ATOM      3  C   UNL     1       2.106   5.155  20.539  0.00  0.00    +0.000 A 
ATOM      4  C   UNL     1       3.220   5.380  19.672  0.00  0.00    +0.000 A 
ATOM      5  N   UNL     1       4.083   4.398  19.297  0.00  0.00    +0.000 N 
ATOM      6  N   UNL     1       3.234   6.644  19.242  0.00  0.00    +0.000 NA
ATOM      7  H   UNL     1       3.991   3.496  19.760  0.00  0.00    +0.000 HD
ENDROOT
BRANCH   5   8
ATOM      8  C   UNL     1       4.929   4.361  18.163  0.00  0.00    +0.000 A 
ATOM      9  C   UNL     1       6.291   4.691  18.213  0.00  0.00    +0.000 A 
ATOM     10  C   UNL     1       7.066   4.814  17.052  0.00  0.00    +0.000 A 
ATOM     11  C   UNL     1       6.476   4.584  15.817  0.00  0.00    +0.000 A 
ATOM     12 CL   UNL     1       7.404   4.777  14.381  0.00  0.00    +0.000 Cl
ATOM     13  C   UNL     1       5.134   4.216  15.738  0.00  0.00    +0.000 A 
ATOM     14  C   UNL     1       4.365   4.104  16.905  0.00  0.00    +0.000 A 
ENDBRANCH   5   8
BRANCH   1  18
ATOM     15  C   UNL     1       0.445  11.138  18.824  0.00  0.00    +0.000 C 
ATOM     16  C   UNL     1       1.368  10.351  17.858  0.00  0.00    +0.000 C 
ATOM     17  C   UNL     1       1.469   8.865  18.153  0.00  0.00    +0.000 C 
ATOM     18  C   UNL     1       1.936   8.638  19.587  0.00  0.00    +0.000 C 
ATOM     19  C   UNL     1       0.901   9.240  20.552  0.00  0.00    +0.000 C 
ATOM     20  C   UNL     1       0.754  10.755  20.294  0.00  0.00    +0.000 C 
BRANCH  15  21
ATOM     21  N   UNL     1       0.612  12.603  18.584  0.00  0.00    +0.000 NA
ATOM     22  C   UNL     1      -0.667  13.248  18.242  0.00  0.00    +0.000 C 
BRANCH  21  23
ATOM     23  C   UNL     1       1.272  13.336  19.696  0.00  0.00    +0.000 C 
BRANCH  23  24
ATOM     24  C   UNL     1       2.734  13.719  19.367  0.00  0.00    +0.000 C 
BRANCH  24  26
ATOM     25  C   UNL     1       3.370  15.289  17.749  0.00  0.00    +0.000 C 
ATOM     26  O   UNL     1       2.910  13.955  17.968  0.00  0.00    +0.000 OA
ENDBRANCH  24  26
ENDBRANCH  23  24
ENDBRANCH  21  23
ENDBRANCH  15  21
BRANCH  19  27
ATOM     27  C   UNL     1       1.319   9.022  21.952  0.00  0.00    +0.000 C 
ATOM     28  N   UNL     1       1.623   8.883  23.062  0.00  0.00    +0.000 NA
ENDBRANCH  19  27
ENDBRANCH   1  18
BRANCH   3  29
ATOM     29  C   UNL     1       1.706   3.930  21.195  0.00  0.00    +0.000 C 
ATOM     30  N   UNL     1       0.669   3.264  20.599  0.00  0.00    +0.000 N 
ATOM     31  O   UNL     1       2.268   3.477  22.186  0.00  0.00    +0.000 OA
ATOM     32  H   UNL     1       0.429   3.454  19.636  0.00  0.00    +0.000 HD
ATOM     33  H   UNL     1       0.461   2.341  20.958  0.00  0.00    +0.000 HD
ENDBRANCH   3  29
TORSDOF 8
ENDMDL
MODEL 2
REMARK VINA RESULT:      -7.3      1.374      2.156
REMARK  Name = 
REMARK  10 active torsions:
REMARK  status: ('A' for Active; 'I' for Inactive)
REMARK    1  A    between atoms: C_1  and  O_2
REMARK    2  A    between atoms: O_2  and  C_3
REMARK    3  A    between atoms: C_3  and  C_4
REMARK    4  A    between atoms: C_4  and  N_5
REMARK    5  A    between atoms: N_5  and  C_6
REMARK    6  A    between atoms: N_5  and  C_7
REMARK    7  A    between atoms: C_10  and  N_11
REMARK    8  A    between atoms: C_13  and  C_14
REMARK    9  A    between atoms: N_18  and  C_19
REMARK   10  A    between atoms: C_27  and  C_28
REMARK                            x       y       z     vdW  Elec       q    Type
REMARK                         _______ _______ _______ _____ _____    ______ ____
ROOT
ATOM      1  N   UNL     1       2.150   7.094  19.951  0.00  0.00    +0.000 N 
ATOM      2  C   UNL     1       1.476   6.224  20.741  0.00  0.00    +0.000 A 
ATOM      3  C   UNL     1       2.169   5.026  20.669  0.00  0.00    +0.000 A 
ATOM      4  C   UNL     1       3.257   5.296  19.782  0.00  0.00    +0.000 A 
ATOM      5  N   UNL     1       4.153   4.351  19.392  0.00  0.00    +0.000 N 
ATOM      6  N   UNL     1       3.212   6.560  19.354  0.00  0.00    +0.000 NA
ATOM      7  H   UNL     1       4.105   3.445  19.855  0.00  0.00    +0.000 HD
ENDROOT
BRANCH   5   8
ATOM      8  C   UNL     1       4.980   4.348  18.243  0.00  0.00    +0.000 A 
ATOM      9  C   UNL     1       6.331   4.722  18.272  0.00  0.00    +0.000 A 
ATOM     10  C   UNL     1       7.081   4.877  17.099  0.00  0.00    +0.000 A 
ATOM     11  C   UNL     1       6.478   4.636  15.872  0.00  0.00    +0.000 A 
ATOM     12 CL   UNL     1       7.374   4.868  14.422  0.00  0.00    +0.000 Cl
ATOM     13  C   UNL     1       5.147   4.226  15.813  0.00  0.00    +0.000 A 
ATOM     14  C   UNL     1       4.402   4.082  16.993  0.00  0.00    +0.000 A 
ENDBRANCH   5   8
BRANCH   1  18
ATOM     15  C   UNL     1       0.204  10.951  19.114  0.00  0.00    +0.000 C 
ATOM     16  C   UNL     1       1.007  10.159  18.051  0.00  0.00    +0.000 C 
ATOM     17  C   UNL     1       1.181   8.683  18.360  0.00  0.00    +0.000 C 
ATOM     18  C   UNL     1       1.841   8.500  19.723  0.00  0.00    +0.000 C 
ATOM     19  C   UNL     1       0.930   9.104  20.805  0.00  0.00    +0.000 C 
ATOM     20  C   UNL     1       0.716  10.609  20.538  0.00  0.00    +0.000 C 
BRANCH  15  21
ATOM     21  N   UNL     1       0.304  12.413  18.824  0.00  0.00    +0.000 NA
ATOM     22  C   UNL     1       1.608  12.763  18.236  0.00  0.00    +0.000 C 
BRANCH  21  23
ATOM     23  C   UNL     1      -0.796  12.948  17.981  0.00  0.00    +0.000 C 
BRANCH  23  24
ATOM     24  C   UNL     1      -2.046  12.036  17.991  0.00  0.00    +0.000 C 
BRANCH  24  26
ATOM     25  C   UNL     1      -2.505  10.083  16.783  0.00  0.00    +0.000 C 
ATOM     26  O   UNL     1      -2.307  11.494  16.693  0.00  0.00    +0.000 OA
ENDBRANCH  24  26
ENDBRANCH  23  24
ENDBRANCH  21  23
ENDBRANCH  15  21
BRANCH  19  27
ATOM     27  C   UNL     1       1.536   8.927  22.141  0.00  0.00    +0.000 C 
ATOM     28  N   UNL     1       1.976   8.769  23.201  0.00  0.00    +0.000 NA
ENDBRANCH  19  27
ENDBRANCH   1  18
BRANCH   3  29
ATOM     29  C   UNL     1       1.829   3.785  21.329  0.00  0.00    +0.000 C 
ATOM     30  N   UNL     1       0.777   3.103  20.782  0.00  0.00    +0.000 N 
ATOM     31  O   UNL     1       2.453   3.334  22.283  0.00  0.00    +0.000 OA
ATOM     32  H   UNL     1       0.482   3.299  19.835  0.00  0.00    +0.000 HD
ATOM     33  H   UNL     1       0.608   2.173  21.140  0.00  0.00    +0.000 HD
ENDBRANCH   3  29
TORSDOF 8
ENDMDL
MODEL 3
REMARK VINA RESULT:      -7.2      3.728      9.278
REMARK  Name = 
REMARK  10 active torsions:
REMARK  status: ('A' for Active; 'I' for Inactive)
REMARK    1  A    between atoms: C_1  and  O_2
REMARK    2  A    between atoms: O_2  and  C_3
REMARK    3  A    between atoms: C_3  and  C_4
REMARK    4  A    between atoms: C_4  and  N_5
REMARK    5  A    between atoms: N_5  and  C_6
REMARK    6  A    between atoms: N_5  and  C_7
REMARK    7  A    between atoms: C_10  and  N_11
REMARK    8  A    between atoms: C_13  and  C_14
REMARK    9  A    between atoms: N_18  and  C_19
REMARK   10  A    between atoms: C_27  and  C_28
REMARK                            x       y       z     vdW  Elec       q    Type
REMARK                         _______ _______ _______ _____ _____    ______ ____
ROOT
ATOM      1  N   UNL     1       1.252   9.874  18.638  0.00  0.00    +0.000 N 
ATOM      2  C   UNL     1       2.088  10.922  18.444  0.00  0.00    +0.000 A 
ATOM      3  C   UNL     1       1.305  12.060  18.549  0.00  0.00    +0.000 A 
ATOM      4  C   UNL     1      -0.012  11.565  18.804  0.00  0.00    +0.000 A 
ATOM      5  N   UNL     1      -1.103  12.370  18.912  0.00  0.00    +0.000 N 
ATOM      6  N   UNL     1      -0.014  10.231  18.841  0.00  0.00    +0.000 NA
ATOM      7  H   UNL     1      -0.940  13.374  18.933  0.00  0.00    +0.000 HD
ENDROOT
BRANCH   5   8
ATOM      8  C   UNL     1      -2.465  12.028  18.736  0.00  0.00    +0.000 A 
ATOM      9  C   UNL     1      -2.961  11.436  17.565  0.00  0.00    +0.000 A 
ATOM     10  C   UNL     1      -4.334  11.266  17.347  0.00  0.00    +0.000 A 
ATOM     11  C   UNL     1      -5.231  11.678  18.323  0.00  0.00    +0.000 A 
ATOM     12 CL   UNL     1      -6.922  11.518  18.047  0.00  0.00    +0.000 Cl
ATOM     13  C   UNL     1      -4.767  12.234  19.513  0.00  0.00    +0.000 A 
ATOM     14  C   UNL     1      -3.391  12.408  19.719  0.00  0.00    +0.000 A 
ENDBRANCH   5   8
BRANCH   1  18
ATOM     15  C   UNL     1       3.292   5.991  18.985  0.00  0.00    +0.000 C 
ATOM     16  C   UNL     1       3.043   6.698  17.628  0.00  0.00    +0.000 C 
ATOM     17  C   UNL     1       2.782   8.190  17.732  0.00  0.00    +0.000 C 
ATOM     18  C   UNL     1       1.602   8.459  18.661  0.00  0.00    +0.000 C 
ATOM     19  C   UNL     1       1.943   7.942  20.068  0.00  0.00    +0.000 C 
ATOM     20  C   UNL     1       2.223   6.425  20.021  0.00  0.00    +0.000 C 
BRANCH  15  21
ATOM     21  N   UNL     1       3.299   4.512  18.779  0.00  0.00    +0.000 NA
ATOM     22  C   UNL     1       3.520   4.160  17.366  0.00  0.00    +0.000 C 
BRANCH  21  23
ATOM     23  C   UNL     1       4.257   3.776  19.644  0.00  0.00    +0.000 C 
BRANCH  23  24
ATOM     24  C   UNL     1       3.606   2.562  20.350  0.00  0.00    +0.000 C 
BRANCH  24  26
ATOM     25  C   UNL     1       1.617   2.810  21.561  0.00  0.00    +0.000 C 
ATOM     26  O   UNL     1       2.179   2.612  20.264  0.00  0.00    +0.000 OA
ENDBRANCH  24  26
ENDBRANCH  23  24
ENDBRANCH  21  23
ENDBRANCH  15  21
BRANCH  19  27
ATOM     27  C   UNL     1       0.824   8.203  20.996  0.00  0.00    +0.000 C 
ATOM     28  N   UNL     1      -0.041   8.448  21.726  0.00  0.00    +0.000 NA
ENDBRANCH  19  27
ENDBRANCH   1  18
BRANCH   3  29
ATOM     29  C   UNL     1       1.740  13.431  18.402  0.00  0.00    +0.000 C 
ATOM     30  N   UNL     1       2.997  13.590  17.884  0.00  0.00    +0.000 N 
ATOM     31  O   UNL     1       1.036  14.398  18.672  0.00  0.00    +0.000 OA
ATOM     32  H   UNL     1       3.435  12.836  17.374  0.00  0.00    +0.000 HD
ATOM     33  H   UNL     1       3.271  14.534  17.646  0.00  0.00    +0.000 HD
ENDBRANCH   3  29
TORSDOF 8
ENDMDL
MODEL 4
REMARK VINA RESULT:      -7.2      3.852      9.044
REMARK  Name = 
REMARK  10 active torsions:
REMARK  status: ('A' for Active; 'I' for Inactive)
REMARK    1  A    between atoms: C_1  and  O_2
REMARK    2  A    between atoms: O_2  and  C_3
REMARK    3  A    between atoms: C_3  and  C_4
REMARK    4  A    between atoms: C_4  and  N_5
REMARK    5  A    between atoms: N_5  and  C_6
REMARK    6  A    between atoms: N_5  and  C_7
REMARK    7  A    between atoms: C_10  and  N_11
REMARK    8  A    between atoms: C_13  and  C_14
REMARK    9  A    between atoms: N_18  and  C_19
REMARK   10  A    between atoms: C_27  and  C_28
REMARK                            x       y       z     vdW  Elec       q    Type
REMARK                         _______ _______ _______ _____ _____    ______ ____
ROOT
ATOM      1  N   UNL     1       0.911  10.179  18.904  0.00  0.00    +0.000 N 
ATOM      2  C   UNL     1       1.745  11.222  18.676  0.00  0.00    +0.000 A 
ATOM      3  C   UNL     1       0.958  12.360  18.730  0.00  0.00    +0.000 A 
ATOM      4  C   UNL     1      -0.359  11.871  18.993  0.00  0.00    +0.000 A 
ATOM      5  N   UNL     1      -1.454  12.676  19.061  0.00  0.00    +0.000 N 
ATOM      6  N   UNL     1      -0.358  10.539  19.082  0.00  0.00    +0.000 NA
ATOM      7  H   UNL     1      -1.294  13.681  19.044  0.00  0.00    +0.000 HD
ENDROOT
BRANCH   5   8
ATOM      8  C   UNL     1      -2.813  12.323  18.888  0.00  0.00    +0.000 A 
ATOM      9  C   UNL     1      -3.798  12.568  19.856  0.00  0.00    +0.000 A 
ATOM     10  C   UNL     1      -5.097  12.058  19.736  0.00  0.00    +0.000 A 
ATOM     11  C   UNL     1      -5.428  11.303  18.619  0.00  0.00    +0.000 A 
ATOM     12 CL   UNL     1      -7.006  10.631  18.482  0.00  0.00    +0.000 Cl
ATOM     13  C   UNL     1      -4.482  11.074  17.621  0.00  0.00    +0.000 A 
ATOM     14  C   UNL     1      -3.182  11.583  17.754  0.00  0.00    +0.000 A 
ENDBRANCH   5   8
BRANCH   1  18
ATOM     15  C   UNL     1       2.974   6.320  19.363  0.00  0.00    +0.000 C 
ATOM     16  C   UNL     1       2.664   6.955  17.983  0.00  0.00    +0.000 C 
ATOM     17  C   UNL     1       2.404   8.450  18.021  0.00  0.00    +0.000 C 
ATOM     18  C   UNL     1       1.265   8.767  18.985  0.00  0.00    +0.000 C 
ATOM     19  C   UNL     1       1.669   8.324  20.401  0.00  0.00    +0.000 C 
ATOM     20  C   UNL     1       1.950   6.807  20.421  0.00  0.00    +0.000 C 
BRANCH  15  21
ATOM     21  N   UNL     1       2.976   4.832  19.234  0.00  0.00    +0.000 NA
ATOM     22  C   UNL     1       2.115   4.380  18.128  0.00  0.00    +0.000 C 
BRANCH  21  23
ATOM     23  C   UNL     1       4.327   4.228  19.108  0.00  0.00    +0.000 C 
BRANCH  23  24
ATOM     24  C   UNL     1       5.437   5.291  18.935  0.00  0.00    +0.000 C 
BRANCH  24  26
ATOM     25  C   UNL     1       7.704   5.740  19.318  0.00  0.00    +0.000 C 
ATOM     26  O   UNL     1       6.563   5.012  19.772  0.00  0.00    +0.000 OA
ENDBRANCH  24  26
ENDBRANCH  23  24
ENDBRANCH  21  23
ENDBRANCH  15  21
BRANCH  19  27
ATOM     27  C   UNL     1       0.591   8.634  21.362  0.00  0.00    +0.000 C 
ATOM     28  N   UNL     1      -0.263   8.836  22.118  0.00  0.00    +0.000 NA
ENDBRANCH  19  27
ENDBRANCH   1  18
BRANCH   3  29
ATOM     29  C   UNL     1       1.390  13.726  18.533  0.00  0.00    +0.000 C 
ATOM     30  N   UNL     1       2.593  13.869  17.896  0.00  0.00    +0.000 N 
ATOM     31  O   UNL     1       0.725  14.701  18.863  0.00  0.00    +0.000 OA
ATOM     32  H   UNL     1       2.973  13.108  17.351  0.00  0.00    +0.000 HD
ATOM     33  H   UNL     1       2.851  14.809  17.627  0.00  0.00    +0.000 HD
ENDBRANCH   3  29
TORSDOF 8
ENDMDL
MODEL 5
REMARK VINA RESULT:      -7.1      3.903      9.382
REMARK  Name = 
REMARK  10 active torsions:
REMARK  status: ('A' for Active; 'I' for Inactive)
REMARK    1  A    between atoms: C_1  and  O_2
REMARK    2  A    between atoms: O_2  and  C_3
REMARK    3  A    between atoms: C_3  and  C_4
REMARK    4  A    between atoms: C_4  and  N_5
REMARK    5  A    between atoms: N_5  and  C_6
REMARK    6  A    between atoms: N_5  and  C_7
REMARK    7  A    between atoms: C_10  and  N_11
REMARK    8  A    between atoms: C_13  and  C_14
REMARK    9  A    between atoms: N_18  and  C_19
REMARK   10  A    between atoms: C_27  and  C_28
REMARK                            x       y       z     vdW  Elec       q    Type
REMARK                         _______ _______ _______ _____ _____    ______ ____
ROOT
ATOM      1  N   UNL     1       0.844  10.142  18.976  0.00  0.00    +0.000 N 
ATOM      2  C   UNL     1       1.702  11.157  18.716  0.00  0.00    +0.000 A 
ATOM      3  C   UNL     1       0.940  12.314  18.731  0.00  0.00    +0.000 A 
ATOM      4  C   UNL     1      -0.388  11.864  19.008  0.00  0.00    +0.000 A 
ATOM      5  N   UNL     1      -1.464  12.695  19.048  0.00  0.00    +0.000 N 
ATOM      6  N   UNL     1      -0.416  10.536  19.141  0.00  0.00    +0.000 NA
ATOM      7  H   UNL     1      -1.281  13.695  18.997  0.00  0.00    +0.000 HD
ENDROOT
BRANCH   5   8
ATOM      8  C   UNL     1      -2.831  12.367  18.884  0.00  0.00    +0.000 A 
ATOM      9  C   UNL     1      -3.801  12.617  19.865  0.00  0.00    +0.000 A 
ATOM     10  C   UNL     1      -5.110  12.130  19.752  0.00  0.00    +0.000 A 
ATOM     11  C   UNL     1      -5.465  11.395  18.630  0.00  0.00    +0.000 A 
ATOM     12 CL   UNL     1      -7.055  10.751  18.501  0.00  0.00    +0.000 Cl
ATOM     13  C   UNL     1      -4.533  11.163  17.620  0.00  0.00    +0.000 A 
ATOM     14  C   UNL     1      -3.223  11.648  17.746  0.00  0.00    +0.000 A 
ENDBRANCH   5   8
BRANCH   1  18
ATOM     15  C   UNL     1       2.825   6.253  19.541  0.00  0.00    +0.000 C 
ATOM     16  C   UNL     1       2.500   6.843  18.145  0.00  0.00    +0.000 C 
ATOM     17  C   UNL     1       2.276   8.345  18.130  0.00  0.00    +0.000 C 
ATOM     18  C   UNL     1       1.166   8.726  19.105  0.00  0.00    +0.000 C 
ATOM     19  C   UNL     1       1.590   8.327  20.528  0.00  0.00    +0.000 C 
ATOM     20  C   UNL     1       1.836   6.805  20.601  0.00  0.00    +0.000 C 
BRANCH  15  21
ATOM     21  N   UNL     1       2.788   4.762  19.470  0.00  0.00    +0.000 NA
ATOM     22  C   UNL     1       2.399   4.164  20.758  0.00  0.00    +0.000 C 
BRANCH  21  23
ATOM     23  C   UNL     1       1.937   4.220  18.378  0.00  0.00    +0.000 C 
BRANCH  23  24
ATOM     24  C   UNL     1       1.698   2.698  18.514  0.00  0.00    +0.000 C 
BRANCH  24  26
ATOM     25  C   UNL     1       3.633   1.381  18.439  0.00  0.00    +0.000 C 
ATOM     26  O   UNL     1       2.578   1.954  17.667  0.00  0.00    +0.000 OA
ENDBRANCH  24  26
ENDBRANCH  23  24
ENDBRANCH  21  23
ENDBRANCH  15  21
BRANCH  19  27
ATOM     27  C   UNL     1       0.541   8.700  21.498  0.00  0.00    +0.000 C 
ATOM     28  N   UNL     1      -0.308   8.965  22.241  0.00  0.00    +0.000 NA
ENDBRANCH  19  27
ENDBRANCH   1  18
BRANCH   3  29
ATOM     29  C   UNL     1       1.404  13.663  18.489  0.00  0.00    +0.000 C 
ATOM     30  N   UNL     1       2.615  13.758  17.861  0.00  0.00    +0.000 N 
ATOM     31  O   UNL     1       0.756  14.663  18.777  0.00  0.00    +0.000 OA
ATOM     32  H   UNL     1       2.985  12.970  17.348  0.00  0.00    +0.000 HD
ATOM     33  H   UNL     1       2.896  14.682  17.561  0.00  0.00    +0.000 HD
ENDBRANCH   3  29
TORSDOF 8
ENDMDL
MODEL 6
REMARK VINA RESULT:      -7.1      4.209      9.799
REMARK  Name = 
REMARK  10 active torsions:
REMARK  status: ('A' for Active; 'I' for Inactive)
REMARK    1  A    between atoms: C_1  and  O_2
REMARK    2  A    between atoms: O_2  and  C_3
REMARK    3  A    between atoms: C_3  and  C_4
REMARK    4  A    between atoms: C_4  and  N_5
REMARK    5  A    between atoms: N_5  and  C_6
REMARK    6  A    between atoms: N_5  and  C_7
REMARK    7  A    between atoms: C_10  and  N_11
REMARK    8  A    between atoms: C_13  and  C_14
REMARK    9  A    between atoms: N_18  and  C_19
REMARK   10  A    between atoms: C_27  and  C_28
REMARK                            x       y       z     vdW  Elec       q    Type
REMARK                         _______ _______ _______ _____ _____    ______ ____
ROOT
ATOM      1  N   UNL     1       0.114  10.960  19.428  0.00  0.00    +0.000 N 
ATOM      2  C   UNL     1       0.830  12.047  19.052  0.00  0.00    +0.000 A 
ATOM      3  C   UNL     1      -0.002  13.138  19.240  0.00  0.00    +0.000 A 
ATOM      4  C   UNL     1      -1.220  12.576  19.734  0.00  0.00    +0.000 A 
ATOM      5  N   UNL     1      -2.332  13.316  19.992  0.00  0.00    +0.000 N 
ATOM      6  N   UNL     1      -1.122  11.248  19.828  0.00  0.00    +0.000 NA
ATOM      7  H   UNL     1      -2.238  14.329  19.942  0.00  0.00    +0.000 HD
ENDROOT
BRANCH   5   8
ATOM      8  C   UNL     1      -3.677  12.882  20.063  0.00  0.00    +0.000 A 
ATOM      9  C   UNL     1      -4.454  12.987  21.225  0.00  0.00    +0.000 A 
ATOM     10  C   UNL     1      -5.721  12.396  21.324  0.00  0.00    +0.000 A 
ATOM     11  C   UNL     1      -6.231  11.702  20.235  0.00  0.00    +0.000 A 
ATOM     12 CL   UNL     1      -7.765  10.931  20.359  0.00  0.00    +0.000 Cl
ATOM     13  C   UNL     1      -5.498  11.613  19.054  0.00  0.00    +0.000 A 
ATOM     14  C   UNL     1      -4.228  12.201  18.967  0.00  0.00    +0.000 A 
ENDBRANCH   5   8
BRANCH   1  18
ATOM     15  C   UNL     1       2.453   7.236  19.573  0.00  0.00    +0.000 C 
ATOM     16  C   UNL     1       1.914   7.847  18.254  0.00  0.00    +0.000 C 
ATOM     17  C   UNL     1       1.571   9.323  18.336  0.00  0.00    +0.000 C 
ATOM     18  C   UNL     1       0.562   9.573  19.452  0.00  0.00    +0.000 C 
ATOM     19  C   UNL     1       1.187   9.161  20.795  0.00  0.00    +0.000 C 
ATOM     20  C   UNL     1       1.560   7.663  20.767  0.00  0.00    +0.000 C 
BRANCH  15  21
ATOM     21  N   UNL     1       2.527   5.751  19.438  0.00  0.00    +0.000 NA
ATOM     22  C   UNL     1       3.856   5.311  18.978  0.00  0.00    +0.000 C 
BRANCH  21  23
ATOM     23  C   UNL     1       2.137   5.002  20.660  0.00  0.00    +0.000 C 
BRANCH  23  24
ATOM     24  C   UNL     1       0.954   4.037  20.412  0.00  0.00    +0.000 C 
BRANCH  24  26
ATOM     25  C   UNL     1       1.793   2.121  19.357  0.00  0.00    +0.000 C 
ATOM     26  O   UNL     1       1.346   2.673  20.595  0.00  0.00    +0.000 OA
ENDBRANCH  24  26
ENDBRANCH  23  24
ENDBRANCH  21  23
ENDBRANCH  15  21
BRANCH  19  27
ATOM     27  C   UNL     1       0.237   9.407  21.899  0.00  0.00    +0.000 C 
ATOM     28  N   UNL     1      -0.509   9.559  22.772  0.00  0.00    +0.000 NA
ENDBRANCH  19  27
ENDBRANCH   1  18
BRANCH   3  29
ATOM     29  C   UNL     1       0.306  14.524  18.963  0.00  0.00    +0.000 C 
ATOM     30  N   UNL     1       1.624  14.787  18.707  0.00  0.00    +0.000 N 
ATOM     31  O   UNL     1      -0.542  15.408  18.911  0.00  0.00    +0.000 OA
ATOM     32  H   UNL     1       2.248  14.040  18.436  0.00  0.00    +0.000 HD
ATOM     33  H   UNL     1       1.842  15.719  18.380  0.00  0.00    +0.000 HD
ENDBRANCH   3  29
TORSDOF 8
ENDMDL
MODEL 7
REMARK VINA RESULT:      -7.1      4.245      9.702
REMARK  Name = 
REMARK  10 active torsions:
REMARK  status: ('A' for Active; 'I' for Inactive)
REMARK    1  A    between atoms: C_1  and  O_2
REMARK    2  A    between atoms: O_2  and  C_3
REMARK    3  A    between atoms: C_3  and  C_4
REMARK    4  A    between atoms: C_4  and  N_5
REMARK    5  A    between atoms: N_5  and  C_6
REMARK    6  A    between atoms: N_5  and  C_7
REMARK    7  A    between atoms: C_10  and  N_11
REMARK    8  A    between atoms: C_13  and  C_14
REMARK    9  A    between atoms: N_18  and  C_19
REMARK   10  A    between atoms: C_27  and  C_28
REMARK                            x       y       z     vdW  Elec       q    Type
REMARK                         _______ _______ _______ _____ _____    ______ ____
ROOT
ATOM      1  N   UNL     1       0.201  10.814  19.353  0.00  0.00    +0.000 N 
ATOM      2  C   UNL     1       0.933  11.895  18.990  0.00  0.00    +0.000 A 
ATOM      3  C   UNL     1       0.108  12.993  19.170  0.00  0.00    +0.000 A 
ATOM      4  C   UNL     1      -1.122  12.441  19.645  0.00  0.00    +0.000 A 
ATOM      5  N   UNL     1      -2.230  13.191  19.889  0.00  0.00    +0.000 N 
ATOM      6  N   UNL     1      -1.038  11.112  19.735  0.00  0.00    +0.000 NA
ATOM      7  H   UNL     1      -2.127  14.202  19.844  0.00  0.00    +0.000 HD
ENDROOT
BRANCH   5   8
ATOM      8  C   UNL     1      -3.580  12.769  19.940  0.00  0.00    +0.000 A 
ATOM      9  C   UNL     1      -4.391  12.931  21.073  0.00  0.00    +0.000 A 
ATOM     10  C   UNL     1      -5.665  12.354  21.160  0.00  0.00    +0.000 A 
ATOM     11  C   UNL     1      -6.148  11.614  20.090  0.00  0.00    +0.000 A 
ATOM     12 CL   UNL     1      -7.690  10.860  20.203  0.00  0.00    +0.000 Cl
ATOM     13  C   UNL     1      -5.381  11.466  18.936  0.00  0.00    +0.000 A 
ATOM     14  C   UNL     1      -4.104  12.042  18.861  0.00  0.00    +0.000 A 
ENDBRANCH   5   8
BRANCH   1  18
ATOM     15  C   UNL     1       2.502   7.068  19.532  0.00  0.00    +0.000 C 
ATOM     16  C   UNL     1       2.004   7.693  18.204  0.00  0.00    +0.000 C 
ATOM     17  C   UNL     1       1.672   9.172  18.287  0.00  0.00    +0.000 C 
ATOM     18  C   UNL     1       0.635   9.423  19.378  0.00  0.00    +0.000 C 
ATOM     19  C   UNL     1       1.221   8.995  20.734  0.00  0.00    +0.000 C 
ATOM     20  C   UNL     1       1.581   7.494  20.705  0.00  0.00    +0.000 C 
BRANCH  15  21
ATOM     21  N   UNL     1       2.566   5.582  19.388  0.00  0.00    +0.000 NA
ATOM     22  C   UNL     1       1.817   4.898  20.455  0.00  0.00    +0.000 C 
BRANCH  21  23
ATOM     23  C   UNL     1       2.137   5.076  18.058  0.00  0.00    +0.000 C 
BRANCH  23  24
ATOM     24  C   UNL     1       3.064   3.959  17.522  0.00  0.00    +0.000 C 
BRANCH  24  26
ATOM     25  C   UNL     1       3.286   1.791  18.379  0.00  0.00    +0.000 C 
ATOM     26  O   UNL     1       2.449   2.673  17.632  0.00  0.00    +0.000 OA
ENDBRANCH  24  26
ENDBRANCH  23  24
ENDBRANCH  21  23
ENDBRANCH  15  21
BRANCH  19  27
ATOM     27  C   UNL     1       0.244   9.242  21.814  0.00  0.00    +0.000 C 
ATOM     28  N   UNL     1      -0.500   9.409  22.686  0.00  0.00    +0.000 NA
ENDBRANCH  19  27
ENDBRANCH   1  18
BRANCH   3  29
ATOM     29  C   UNL     1       0.432  14.377  18.902  0.00  0.00    +0.000 C 
ATOM     30  N   UNL     1       1.748  14.621  18.618  0.00  0.00    +0.000 N 
ATOM     31  O   UNL     1      -0.401  15.275  18.882  0.00  0.00    +0.000 OA
ATOM     32  H   UNL     1       2.353  13.868  18.323  0.00  0.00    +0.000 HD
ATOM     33  H   UNL     1       1.974  15.553  18.297  0.00  0.00    +0.000 HD
ENDBRANCH   3  29
TORSDOF 8
ENDMDL
MODEL 8
REMARK VINA RESULT:      -7.1      3.931      9.114
REMARK  Name = 
REMARK  10 active torsions:
REMARK  status: ('A' for Active; 'I' for Inactive)
REMARK    1  A    between atoms: C_1  and  O_2
REMARK    2  A    between atoms: O_2  and  C_3
REMARK    3  A    between atoms: C_3  and  C_4
REMARK    4  A    between atoms: C_4  and  N_5
REMARK    5  A    between atoms: N_5  and  C_6
REMARK    6  A    between atoms: N_5  and  C_7
REMARK    7  A    between atoms: C_10  and  N_11
REMARK    8  A    between atoms: C_13  and  C_14
REMARK    9  A    between atoms: N_18  and  C_19
REMARK   10  A    between atoms: C_27  and  C_28
REMARK                            x       y       z     vdW  Elec       q    Type
REMARK                         _______ _______ _______ _____ _____    ______ ____
ROOT
ATOM      1  N   UNL     1       0.991   9.990  18.866  0.00  0.00    +0.000 N 
ATOM      2  C   UNL     1       1.827  11.028  18.626  0.00  0.00    +0.000 A 
ATOM      3  C   UNL     1       1.042  12.169  18.673  0.00  0.00    +0.000 A 
ATOM      4  C   UNL     1      -0.275  11.686  18.945  0.00  0.00    +0.000 A 
ATOM      5  N   UNL     1      -1.367  12.494  19.010  0.00  0.00    +0.000 N 
ATOM      6  N   UNL     1      -0.276  10.355  19.047  0.00  0.00    +0.000 NA
ATOM      7  H   UNL     1      -1.204  13.499  18.982  0.00  0.00    +0.000 HD
ENDROOT
BRANCH   5   8
ATOM      8  C   UNL     1      -2.728  12.143  18.844  0.00  0.00    +0.000 A 
ATOM      9  C   UNL     1      -3.228  11.543  17.679  0.00  0.00    +0.000 A 
ATOM     10  C   UNL     1      -4.601  11.363  17.470  0.00  0.00    +0.000 A 
ATOM     11  C   UNL     1      -5.495  11.774  18.450  0.00  0.00    +0.000 A 
ATOM     12 CL   UNL     1      -7.186  11.602  18.186  0.00  0.00    +0.000 Cl
ATOM     13  C   UNL     1      -5.026  12.338  19.635  0.00  0.00    +0.000 A 
ATOM     14  C   UNL     1      -3.650  12.521  19.831  0.00  0.00    +0.000 A 
ENDBRANCH   5   8
BRANCH   1  18
ATOM     15  C   UNL     1       3.038   6.130  19.388  0.00  0.00    +0.000 C 
ATOM     16  C   UNL     1       2.767   6.764  17.999  0.00  0.00    +0.000 C 
ATOM     17  C   UNL     1       2.506   8.259  18.028  0.00  0.00    +0.000 C 
ATOM     18  C   UNL     1       1.341   8.578  18.959  0.00  0.00    +0.000 C 
ATOM     19  C   UNL     1       1.706   8.137  20.387  0.00  0.00    +0.000 C 
ATOM     20  C   UNL     1       1.986   6.620  20.417  0.00  0.00    +0.000 C 
BRANCH  15  21
ATOM     21  N   UNL     1       3.042   4.642  19.261  0.00  0.00    +0.000 NA
ATOM     22  C   UNL     1       1.708   4.121  18.919  0.00  0.00    +0.000 C 
BRANCH  21  23
ATOM     23  C   UNL     1       4.056   4.109  18.315  0.00  0.00    +0.000 C 
BRANCH  23  24
ATOM     24  C   UNL     1       5.504   4.410  18.767  0.00  0.00    +0.000 C 
BRANCH  24  26
ATOM     25  C   UNL     1       5.972   5.400  16.696  0.00  0.00    +0.000 C 
ATOM     26  O   UNL     1       6.404   4.435  17.655  0.00  0.00    +0.000 OA
ENDBRANCH  24  26
ENDBRANCH  23  24
ENDBRANCH  21  23
ENDBRANCH  15  21
BRANCH  19  27
ATOM     27  C   UNL     1       0.602   8.449  21.317  0.00  0.00    +0.000 C 
ATOM     28  N   UNL     1      -0.236   8.703  22.076  0.00  0.00    +0.000 NA
ENDBRANCH  19  27
ENDBRANCH   1  18
BRANCH   3  29
ATOM     29  C   UNL     1       1.478  13.532  18.461  0.00  0.00    +0.000 C 
ATOM     30  N   UNL     1       2.662  13.667  17.789  0.00  0.00    +0.000 N 
ATOM     31  O   UNL     1       0.829  14.512  18.810  0.00  0.00    +0.000 OA
ATOM     32  H   UNL     1       3.021  12.903  17.234  0.00  0.00    +0.000 HD
ATOM     33  H   UNL     1       2.919  14.605  17.511  0.00  0.00    +0.000 HD
ENDBRANCH   3  29
TORSDOF 8
ENDMDL
MODEL 9
REMARK VINA RESULT:      -7.0      1.306      1.756
REMARK  Name = 
REMARK  10 active torsions:
REMARK  status: ('A' for Active; 'I' for Inactive)
REMARK    1  A    between atoms: C_1  and  O_2
REMARK    2  A    between atoms: O_2  and  C_3
REMARK    3  A    between atoms: C_3  and  C_4
REMARK    4  A    between atoms: C_4  and  N_5
REMARK    5  A    between atoms: N_5  and  C_6
REMARK    6  A    between atoms: N_5  and  C_7
REMARK    7  A    between atoms: C_10  and  N_11
REMARK    8  A    between atoms: C_13  and  C_14
REMARK    9  A    between atoms: N_18  and  C_19
REMARK   10  A    between atoms: C_27  and  C_28
REMARK                            x       y       z     vdW  Elec       q    Type
REMARK                         _______ _______ _______ _____ _____    ______ ____
ROOT
ATOM      1  N   UNL     1       2.160   7.141  19.878  0.00  0.00    +0.000 N 
ATOM      2  C   UNL     1       1.475   6.281  20.668  0.00  0.00    +0.000 A 
ATOM      3  C   UNL     1       2.160   5.079  20.609  0.00  0.00    +0.000 A 
ATOM      4  C   UNL     1       3.257   5.336  19.730  0.00  0.00    +0.000 A 
ATOM      5  N   UNL     1       4.151   4.382  19.353  0.00  0.00    +0.000 N 
ATOM      6  N   UNL     1       3.224   6.597  19.293  0.00  0.00    +0.000 NA
ATOM      7  H   UNL     1       4.094   3.481  19.822  0.00  0.00    +0.000 HD
ENDROOT
BRANCH   5   8
ATOM      8  C   UNL     1       4.987   4.367  18.212  0.00  0.00    +0.000 A 
ATOM      9  C   UNL     1       6.336   4.752  18.245  0.00  0.00    +0.000 A 
ATOM     10  C   UNL     1       7.094   4.893  17.076  0.00  0.00    +0.000 A 
ATOM     11  C   UNL     1       6.503   4.628  15.848  0.00  0.00    +0.000 A 
ATOM     12 CL   UNL     1       7.409   4.843  14.402  0.00  0.00    +0.000 Cl
ATOM     13  C   UNL     1       5.176   4.207  15.785  0.00  0.00    +0.000 A 
ATOM     14  C   UNL     1       4.422   4.076  16.961  0.00  0.00    +0.000 A 
ENDBRANCH   5   8
BRANCH   1  18
ATOM     15  C   UNL     1       0.258  10.997  18.940  0.00  0.00    +0.000 C 
ATOM     16  C   UNL     1       1.129  10.213  17.925  0.00  0.00    +0.000 C 
ATOM     17  C   UNL     1       1.288   8.736  18.237  0.00  0.00    +0.000 C 
ATOM     18  C   UNL     1       1.861   8.548  19.638  0.00  0.00    +0.000 C 
ATOM     19  C   UNL     1       0.882   9.143  20.664  0.00  0.00    +0.000 C 
ATOM     20  C   UNL     1       0.680  10.648  20.391  0.00  0.00    +0.000 C 
BRANCH  15  21
ATOM     21  N   UNL     1       0.371  12.460  18.664  0.00  0.00    +0.000 NA
ATOM     22  C   UNL     1      -0.815  12.975  17.959  0.00  0.00    +0.000 C 
BRANCH  21  23
ATOM     23  C   UNL     1       0.651  13.291  19.864  0.00  0.00    +0.000 C 
BRANCH  23  24
ATOM     24  C   UNL     1      -0.560  14.157  20.281  0.00  0.00    +0.000 C 
BRANCH  24  26
ATOM     25  C   UNL     1      -2.493  14.297  21.597  0.00  0.00    +0.000 C 
ATOM     26  O   UNL     1      -1.340  13.512  21.292  0.00  0.00    +0.000 OA
ENDBRANCH  24  26
ENDBRANCH  23  24
ENDBRANCH  21  23
ENDBRANCH  15  21
BRANCH  19  27
ATOM     27  C   UNL     1       1.403   8.961  22.034  0.00  0.00    +0.000 C 
ATOM     28  N   UNL     1       1.806   8.858  23.116  0.00  0.00    +0.000 NA
ENDBRANCH  19  27
ENDBRANCH   1  18
BRANCH   3  29
ATOM     29  C   UNL     1       1.808   3.844  21.275  0.00  0.00    +0.000 C 
ATOM     30  N   UNL     1       0.710   3.203  20.770  0.00  0.00    +0.000 N 
ATOM     31  O   UNL     1       2.458   3.363  22.197  0.00  0.00    +0.000 OA
ATOM     32  H   UNL     1       0.380   3.417  19.839  0.00  0.00    +0.000 HD
ATOM     33  H   UNL     1       0.525   2.276  21.129  0.00  0.00    +0.000 HD
ENDBRANCH   3  29
TORSDOF 8
ENDMDL
