MODEL 1
REMARK VINA RESULT:      -5.7      0.000      0.000
REMARK  Name = 
REMARK  8 active torsions:
REMARK  status: ('A' for Active; 'I' for Inactive)
REMARK    1  A    between atoms: C_4  and  O_5
REMARK    2  A    between atoms: O_5  and  C_6
REMARK    3  A    between atoms: C_6  and  C_8
REMARK    4  A    between atoms: C_8  and  C_9
REMARK    5  A    between atoms: C_8  and  O_10
REMARK    6  A    between atoms: C_8  and  C_11
REMARK    7  A    between atoms: C_11  and  O_12
REMARK    8  A    between atoms: C_23  and  O_24
REMARK                            x       y       z     vdW  Elec       q    Type
REMARK                         _______ _______ _______ _____ _____    ______ ____
ROOT
ATOM      1  C   UNL     1      -0.498  10.368  23.111  0.00  0.00    +0.000 C 
ATOM      2  C   UNL     1      -0.434  11.092  21.980  0.00  0.00    +0.000 C 
ATOM      3  C   UNL     1      -0.466  12.610  22.040  0.00  0.00    +0.000 C 
ATOM      4  C   UNL     1      -1.887  13.220  21.956  0.00  0.00    +0.000 C 
ATOM      5  C   UNL     1      -2.856  12.284  21.191  0.00  0.00    +0.000 C 
ATOM      6  C   UNL     1      -4.208  12.833  20.877  0.00  0.00    +0.000 C 
ATOM      7  C   UNL     1      -5.114  13.369  21.705  0.00  0.00    +0.000 C 
ATOM      8  C   UNL     1      -4.522  12.577  19.458  0.00  0.00    +0.000 C 
ATOM      9  O   UNL     1      -5.568  12.838  18.888  0.00  0.00    +0.000 OA
ATOM     10  O   UNL     1      -3.458  11.944  18.907  0.00  0.00    +0.000 OA
ATOM     11  C   UNL     1      -2.310  11.969  19.782  0.00  0.00    +0.000 C 
ATOM     12  C   UNL     1      -1.572  10.609  19.676  0.00  0.00    +0.000 C 
ATOM     13  C   UNL     1      -0.943  10.350  18.308  0.00  0.00    +0.000 C 
ATOM     14  C   UNL     1      -1.615  10.033  17.190  0.00  0.00    +0.000 C 
ATOM     15  C   UNL     1       0.559  10.411  18.366  0.00  0.00    +0.000 C 
ATOM     16  C   UNL     1       0.877  10.815  19.798  0.00  0.00    +0.000 C 
ATOM     17  C   UNL     1      -0.360  10.414  20.621  0.00  0.00    +0.000 C 
ENDROOT
BRANCH  15  18
ATOM     18  O   UNL     1       1.124   9.143  18.081  0.00  0.00    +0.000 OA
ATOM     19  H   UNL     1       0.426   8.577  17.710  0.00  0.00    +0.000 HD
ENDBRANCH  15  18
BRANCH   4  20
ATOM     20  O   UNL     1      -2.350  13.528  23.306  0.00  0.00    +0.000 OA
BRANCH  20  21
ATOM     21  C   UNL     1      -2.527  14.873  23.544  0.00  0.00    +0.000 C 
ATOM     22  O   UNL     1      -2.321  15.743  22.701  0.00  0.00    +0.000 OA
BRANCH  21  23
ATOM     23  C   UNL     1      -3.009  15.186  24.982  0.00  0.00    +0.000 C 
ATOM     24  C   UNL     1      -3.925  16.413  24.976  0.00  0.00    +0.000 C 
BRANCH  23  25
ATOM     25  O   UNL     1      -3.707  14.093  25.584  0.00  0.00    +0.000 OA
ATOM     26  H   UNL     1      -4.431  14.462  26.120  0.00  0.00    +0.000 HD
ENDBRANCH  23  25
BRANCH  23  27
ATOM     27  C   UNL     1      -1.762  15.464  25.858  0.00  0.00    +0.000 C 
BRANCH  27  28
ATOM     28  O   UNL     1      -0.530  15.356  25.147  0.00  0.00    +0.000 OA
ATOM     29  H   UNL     1       0.149  15.080  25.796  0.00  0.00    +0.000 HD
ENDBRANCH  27  28
ENDBRANCH  23  27
ENDBRANCH  21  23
ENDBRANCH  20  21
ENDBRANCH   4  20
TORSDOF 7
ENDMDL
MODEL 2
REMARK VINA RESULT:      -5.6      8.735     11.148
REMARK  Name = 
REMARK  8 active torsions:
REMARK  status: ('A' for Active; 'I' for Inactive)
REMARK    1  A    between atoms: C_4  and  O_5
REMARK    2  A    between atoms: O_5  and  C_6
REMARK    3  A    between atoms: C_6  and  C_8
REMARK    4  A    between atoms: C_8  and  C_9
REMARK    5  A    between atoms: C_8  and  O_10
REMARK    6  A    between atoms: C_8  and  C_11
REMARK    7  A    between atoms: C_11  and  O_12
REMARK    8  A    between atoms: C_23  and  O_24
REMARK                            x       y       z     vdW  Elec       q    Type
REMARK                         _______ _______ _______ _____ _____    ______ ____
ROOT
ATOM      1  C   UNL     1       8.999  16.615  18.016  0.00  0.00    +0.000 C 
ATOM      2  C   UNL     1       8.863  15.291  18.198  0.00  0.00    +0.000 C 
ATOM      3  C   UNL     1       7.482  14.681  18.370  0.00  0.00    +0.000 C 
ATOM      4  C   UNL     1       7.002  14.596  19.840  0.00  0.00    +0.000 C 
ATOM      5  C   UNL     1       8.200  14.513  20.819  0.00  0.00    +0.000 C 
ATOM      6  C   UNL     1       7.877  14.241  22.250  0.00  0.00    +0.000 C 
ATOM      7  C   UNL     1       7.041  14.897  23.066  0.00  0.00    +0.000 C 
ATOM      8  C   UNL     1       8.751  13.163  22.753  0.00  0.00    +0.000 C 
ATOM      9  O   UNL     1       8.794  12.738  23.894  0.00  0.00    +0.000 OA
ATOM     10  O   UNL     1       9.544  12.764  21.729  0.00  0.00    +0.000 OA
ATOM     11  C   UNL     1       9.106  13.313  20.468  0.00  0.00    +0.000 C 
ATOM     12  C   UNL     1      10.354  13.685  19.625  0.00  0.00    +0.000 C 
ATOM     13  C   UNL     1      11.190  12.482  19.192  0.00  0.00    +0.000 C 
ATOM     14  C   UNL     1      11.990  11.760  19.993  0.00  0.00    +0.000 C 
ATOM     15  C   UNL     1      11.081  12.233  17.712  0.00  0.00    +0.000 C 
ATOM     16  C   UNL     1      10.069  13.256  17.219  0.00  0.00    +0.000 C 
ATOM     17  C   UNL     1      10.079  14.381  18.269  0.00  0.00    +0.000 C 
ENDROOT
BRANCH  15  18
ATOM     18  O   UNL     1      12.331  12.438  17.077  0.00  0.00    +0.000 OA
ATOM     19  H   UNL     1      12.214  12.297  16.123  0.00  0.00    +0.000 HD
ENDBRANCH  15  18
BRANCH   4  20
ATOM     20  O   UNL     1       6.126  15.732  20.118  0.00  0.00    +0.000 OA
BRANCH  20  21
ATOM     21  C   UNL     1       4.789  15.406  20.181  0.00  0.00    +0.000 C 
ATOM     22  O   UNL     1       4.337  14.545  20.932  0.00  0.00    +0.000 OA
BRANCH  21  23
ATOM     23  C   UNL     1       3.908  16.230  19.211  0.00  0.00    +0.000 C 
ATOM     24  C   UNL     1       2.873  17.040  19.996  0.00  0.00    +0.000 C 
BRANCH  23  25
ATOM     25  O   UNL     1       4.668  17.124  18.393  0.00  0.00    +0.000 OA
ATOM     26  H   UNL     1       5.239  17.651  18.980  0.00  0.00    +0.000 HD
ENDBRANCH  23  25
BRANCH  23  27
ATOM     27  C   UNL     1       3.191  15.244  18.256  0.00  0.00    +0.000 C 
BRANCH  27  28
ATOM     28  O   UNL     1       3.710  15.256  16.927  0.00  0.00    +0.000 OA
ATOM     29  H   UNL     1       4.594  15.674  16.972  0.00  0.00    +0.000 HD
ENDBRANCH  27  28
ENDBRANCH  23  27
ENDBRANCH  21  23
ENDBRANCH  20  21
ENDBRANCH   4  20
TORSDOF 7
ENDMDL
MODEL 3
REMARK VINA RESULT:      -5.5      2.378      3.625
REMARK  Name = 
REMARK  8 active torsions:
REMARK  status: ('A' for Active; 'I' for Inactive)
REMARK    1  A    between atoms: C_4  and  O_5
REMARK    2  A    between atoms: O_5  and  C_6
REMARK    3  A    between atoms: C_6  and  C_8
REMARK    4  A    between atoms: C_8  and  C_9
REMARK    5  A    between atoms: C_8  and  O_10
REMARK    6  A    between atoms: C_8  and  C_11
REMARK    7  A    between atoms: C_11  and  O_12
REMARK    8  A    between atoms: C_23  and  O_24
REMARK                            x       y       z     vdW  Elec       q    Type
REMARK                         _______ _______ _______ _____ _____    ______ ____
ROOT
ATOM      1  C   UNL     1      -2.085  11.706  23.186  0.00  0.00    +0.000 C 
ATOM      2  C   UNL     1      -1.737  12.565  22.212  0.00  0.00    +0.000 C 
ATOM      3  C   UNL     1      -2.748  13.564  21.676  0.00  0.00    +0.000 C 
ATOM      4  C   UNL     1      -3.572  13.048  20.469  0.00  0.00    +0.000 C 
ATOM      5  C   UNL     1      -2.789  11.974  19.672  0.00  0.00    +0.000 C 
ATOM      6  C   UNL     1      -3.391  11.530  18.380  0.00  0.00    +0.000 C 
ATOM      7  C   UNL     1      -4.619  11.051  18.142  0.00  0.00    +0.000 C 
ATOM      8  C   UNL     1      -2.357  11.547  17.327  0.00  0.00    +0.000 C 
ATOM      9  O   UNL     1      -2.492  11.184  16.172  0.00  0.00    +0.000 OA
ATOM     10  O   UNL     1      -1.204  11.987  17.888  0.00  0.00    +0.000 OA
ATOM     11  C   UNL     1      -1.425  12.528  19.209  0.00  0.00    +0.000 C 
ATOM     12  C   UNL     1      -0.234  12.124  20.118  0.00  0.00    +0.000 C 
ATOM     13  C   UNL     1       1.096  12.760  19.715  0.00  0.00    +0.000 C 
ATOM     14  C   UNL     1       1.835  12.410  18.651  0.00  0.00    +0.000 C 
ATOM     15  C   UNL     1       1.541  13.795  20.712  0.00  0.00    +0.000 C 
ATOM     16  C   UNL     1       0.406  13.878  21.721  0.00  0.00    +0.000 C 
ATOM     17  C   UNL     1      -0.342  12.538  21.607  0.00  0.00    +0.000 C 
ENDROOT
BRANCH  15  18
ATOM     18  O   UNL     1       2.737  13.390  21.355  0.00  0.00    +0.000 OA
ATOM     19  H   UNL     1       3.091  14.150  21.846  0.00  0.00    +0.000 HD
ENDBRANCH  15  18
BRANCH   4  20
ATOM     20  O   UNL     1      -4.863  12.563  20.950  0.00  0.00    +0.000 OA
BRANCH  20  21
ATOM     21  C   UNL     1      -5.716  13.561  21.365  0.00  0.00    +0.000 C 
ATOM     22  O   UNL     1      -6.035  14.517  20.661  0.00  0.00    +0.000 OA
BRANCH  21  23
ATOM     23  C   UNL     1      -6.236  13.365  22.811  0.00  0.00    +0.000 C 
ATOM     24  C   UNL     1      -7.741  13.084  22.796  0.00  0.00    +0.000 C 
BRANCH  23  25
ATOM     25  O   UNL     1      -5.575  12.299  23.499  0.00  0.00    +0.000 OA
ATOM     26  H   UNL     1      -5.941  12.256  24.400  0.00  0.00    +0.000 HD
ENDBRANCH  23  25
BRANCH  23  27
ATOM     27  C   UNL     1      -5.951  14.663  23.606  0.00  0.00    +0.000 C 
BRANCH  27  28
ATOM     28  O   UNL     1      -4.803  14.574  24.449  0.00  0.00    +0.000 OA
ATOM     29  H   UNL     1      -4.057  14.288  23.884  0.00  0.00    +0.000 HD
ENDBRANCH  27  28
ENDBRANCH  23  27
ENDBRANCH  21  23
ENDBRANCH  20  21
ENDBRANCH   4  20
TORSDOF 7
ENDMDL
MODEL 4
REMARK VINA RESULT:      -5.4      2.136      6.898
REMARK  Name = 
REMARK  8 active torsions:
REMARK  status: ('A' for Active; 'I' for Inactive)
REMARK    1  A    between atoms: C_4  and  O_5
REMARK    2  A    between atoms: O_5  and  C_6
REMARK    3  A    between atoms: C_6  and  C_8
REMARK    4  A    between atoms: C_8  and  C_9
REMARK    5  A    between atoms: C_8  and  O_10
REMARK    6  A    between atoms: C_8  and  C_11
REMARK    7  A    between atoms: C_11  and  O_12
REMARK    8  A    between atoms: C_23  and  O_24
REMARK                            x       y       z     vdW  Elec       q    Type
REMARK                         _______ _______ _______ _____ _____    ______ ____
ROOT
ATOM      1  C   UNL     1      -0.975  10.483  23.180  0.00  0.00    +0.000 C 
ATOM      2  C   UNL     1      -1.556  11.549  22.603  0.00  0.00    +0.000 C 
ATOM      3  C   UNL     1      -1.322  11.845  21.131  0.00  0.00    +0.000 C 
ATOM      4  C   UNL     1      -0.111  12.770  20.853  0.00  0.00    +0.000 C 
ATOM      5  C   UNL     1       0.177  13.698  22.061  0.00  0.00    +0.000 C 
ATOM      6  C   UNL     1       1.198  14.766  21.854  0.00  0.00    +0.000 C 
ATOM      7  C   UNL     1       2.463  14.654  21.427  0.00  0.00    +0.000 C 
ATOM      8  C   UNL     1       0.665  16.053  22.343  0.00  0.00    +0.000 C 
ATOM      9  O   UNL     1       1.260  17.116  22.383  0.00  0.00    +0.000 OA
ATOM     10  O   UNL     1      -0.592  15.833  22.797  0.00  0.00    +0.000 OA
ATOM     11  C   UNL     1      -1.075  14.525  22.421  0.00  0.00    +0.000 C 
ATOM     12  C   UNL     1      -1.904  13.943  23.596  0.00  0.00    +0.000 C 
ATOM     13  C   UNL     1      -3.197  14.707  23.879  0.00  0.00    +0.000 C 
ATOM     14  C   UNL     1      -3.277  15.912  24.467  0.00  0.00    +0.000 C 
ATOM     15  C   UNL     1      -4.412  13.907  23.493  0.00  0.00    +0.000 C 
ATOM     16  C   UNL     1      -3.858  12.640  22.859  0.00  0.00    +0.000 C 
ATOM     17  C   UNL     1      -2.428  12.497  23.411  0.00  0.00    +0.000 C 
ENDROOT
BRANCH  15  18
ATOM     18  O   UNL     1      -5.183  13.583  24.637  0.00  0.00    +0.000 OA
ATOM     19  H   UNL     1      -5.158  14.341  25.245  0.00  0.00    +0.000 HD
ENDBRANCH  15  18
BRANCH   4  20
ATOM     20  O   UNL     1       1.039  11.948  20.488  0.00  0.00    +0.000 OA
BRANCH  20  21
ATOM     21  C   UNL     1       1.134  11.684  19.139  0.00  0.00    +0.000 C 
ATOM     22  O   UNL     1       1.391  12.542  18.298  0.00  0.00    +0.000 OA
BRANCH  21  23
ATOM     23  C   UNL     1       0.881  10.198  18.783  0.00  0.00    +0.000 C 
ATOM     24  C   UNL     1       1.995   9.677  17.873  0.00  0.00    +0.000 C 
BRANCH  23  25
ATOM     25  O   UNL     1       0.797   9.357  19.937  0.00  0.00    +0.000 OA
ATOM     26  H   UNL     1       0.608   8.452  19.632  0.00  0.00    +0.000 HD
ENDBRANCH  23  25
BRANCH  23  27
ATOM     27  C   UNL     1      -0.482  10.103  18.054  0.00  0.00    +0.000 C 
BRANCH  27  28
ATOM     28  O   UNL     1      -0.993  11.367  17.633  0.00  0.00    +0.000 OA
ATOM     29  H   UNL     1      -0.343  12.043  17.912  0.00  0.00    +0.000 HD
ENDBRANCH  27  28
ENDBRANCH  23  27
ENDBRANCH  21  23
ENDBRANCH  20  21
ENDBRANCH   4  20
TORSDOF 7
ENDMDL
MODEL 5
REMARK VINA RESULT:      -5.4      1.825      6.275
REMARK  Name = 
REMARK  8 active torsions:
REMARK  status: ('A' for Active; 'I' for Inactive)
REMARK    1  A    between atoms: C_4  and  O_5
REMARK    2  A    between atoms: O_5  and  C_6
REMARK    3  A    between atoms: C_6  and  C_8
REMARK    4  A    between atoms: C_8  and  C_9
REMARK    5  A    between atoms: C_8  and  O_10
REMARK    6  A    between atoms: C_8  and  C_11
REMARK    7  A    between atoms: C_11  and  O_12
REMARK    8  A    between atoms: C_23  and  O_24
REMARK                            x       y       z     vdW  Elec       q    Type
REMARK                         _______ _______ _______ _____ _____    ______ ____
ROOT
ATOM      1  C   UNL     1      -0.857  14.955  20.724  0.00  0.00    +0.000 C 
ATOM      2  C   UNL     1      -1.513  13.970  21.362  0.00  0.00    +0.000 C 
ATOM      3  C   UNL     1      -1.183  12.516  21.068  0.00  0.00    +0.000 C 
ATOM      4  C   UNL     1      -2.029  11.889  19.932  0.00  0.00    +0.000 C 
ATOM      5  C   UNL     1      -3.403  12.592  19.800  0.00  0.00    +0.000 C 
ATOM      6  C   UNL     1      -4.387  11.967  18.869  0.00  0.00    +0.000 C 
ATOM      7  C   UNL     1      -4.241  11.648  17.576  0.00  0.00    +0.000 C 
ATOM      8  C   UNL     1      -5.696  11.853  19.543  0.00  0.00    +0.000 C 
ATOM      9  O   UNL     1      -6.733  11.446  19.049  0.00  0.00    +0.000 OA
ATOM     10  O   UNL     1      -5.555  12.338  20.801  0.00  0.00    +0.000 OA
ATOM     11  C   UNL     1      -4.167  12.547  21.141  0.00  0.00    +0.000 C 
ATOM     12  C   UNL     1      -4.050  13.844  21.983  0.00  0.00    +0.000 C 
ATOM     13  C   UNL     1      -4.719  13.755  23.354  0.00  0.00    +0.000 C 
ATOM     14  C   UNL     1      -6.043  13.773  23.576  0.00  0.00    +0.000 C 
ATOM     15  C   UNL     1      -3.707  13.727  24.466  0.00  0.00    +0.000 C 
ATOM     16  C   UNL     1      -2.358  13.701  23.764  0.00  0.00    +0.000 C 
ATOM     17  C   UNL     1      -2.614  14.284  22.363  0.00  0.00    +0.000 C 
ENDROOT
BRANCH  15  18
ATOM     18  O   UNL     1      -3.815  14.888  25.272  0.00  0.00    +0.000 OA
ATOM     19  H   UNL     1      -4.384  14.679  26.031  0.00  0.00    +0.000 HD
ENDBRANCH  15  18
BRANCH   4  20
ATOM     20  O   UNL     1      -1.257  11.927  18.692  0.00  0.00    +0.000 OA
BRANCH  20  21
ATOM     21  C   UNL     1      -0.763  10.702  18.303  0.00  0.00    +0.000 C 
ATOM     22  O   UNL     1      -1.449   9.833  17.768  0.00  0.00    +0.000 OA
BRANCH  21  23
ATOM     23  C   UNL     1       0.745  10.521  18.606  0.00  0.00    +0.000 C 
ATOM     24  C   UNL     1       0.933   9.622  19.831  0.00  0.00    +0.000 C 
BRANCH  23  25
ATOM     25  O   UNL     1       1.470   9.961  17.507  0.00  0.00    +0.000 OA
ATOM     26  H   UNL     1       2.333   9.660  17.843  0.00  0.00    +0.000 HD
ENDBRANCH  23  25
BRANCH  23  27
ATOM     27  C   UNL     1       1.352  11.919  18.882  0.00  0.00    +0.000 C 
BRANCH  27  28
ATOM     28  O   UNL     1       1.491  12.722  17.711  0.00  0.00    +0.000 OA
ATOM     29  H   UNL     1       2.027  12.206  17.075  0.00  0.00    +0.000 HD
ENDBRANCH  27  28
ENDBRANCH  23  27
ENDBRANCH  21  23
ENDBRANCH  20  21
ENDBRANCH   4  20
TORSDOF 7
ENDMDL
MODEL 6
REMARK VINA RESULT:      -5.4      2.714      3.935
REMARK  Name = 
REMARK  8 active torsions:
REMARK  status: ('A' for Active; 'I' for Inactive)
REMARK    1  A    between atoms: C_4  and  O_5
REMARK    2  A    between atoms: O_5  and  C_6
REMARK    3  A    between atoms: C_6  and  C_8
REMARK    4  A    between atoms: C_8  and  C_9
REMARK    5  A    between atoms: C_8  and  O_10
REMARK    6  A    between atoms: C_8  and  C_11
REMARK    7  A    between atoms: C_11  and  O_12
REMARK    8  A    between atoms: C_23  and  O_24
REMARK                            x       y       z     vdW  Elec       q    Type
REMARK                         _______ _______ _______ _____ _____    ______ ____
ROOT
ATOM      1  C   UNL     1      -2.094  11.750  23.179  0.00  0.00    +0.000 C 
ATOM      2  C   UNL     1      -1.723  12.590  22.198  0.00  0.00    +0.000 C 
ATOM      3  C   UNL     1      -2.709  13.606  21.646  0.00  0.00    +0.000 C 
ATOM      4  C   UNL     1      -3.541  13.097  20.443  0.00  0.00    +0.000 C 
ATOM      5  C   UNL     1      -2.782  11.995  19.660  0.00  0.00    +0.000 C 
ATOM      6  C   UNL     1      -3.390  11.551  18.372  0.00  0.00    +0.000 C 
ATOM      7  C   UNL     1      -4.628  11.099  18.135  0.00  0.00    +0.000 C 
ATOM      8  C   UNL     1      -2.352  11.532  17.322  0.00  0.00    +0.000 C 
ATOM      9  O   UNL     1      -2.493  11.159  16.171  0.00  0.00    +0.000 OA
ATOM     10  O   UNL     1      -1.191  11.951  17.882  0.00  0.00    +0.000 OA
ATOM     11  C   UNL     1      -1.403  12.511  19.195  0.00  0.00    +0.000 C 
ATOM     12  C   UNL     1      -0.225  12.090  20.113  0.00  0.00    +0.000 C 
ATOM     13  C   UNL     1       1.121  12.690  19.708  0.00  0.00    +0.000 C 
ATOM     14  C   UNL     1       1.855  12.310  18.650  0.00  0.00    +0.000 C 
ATOM     15  C   UNL     1       1.587  13.725  20.695  0.00  0.00    +0.000 C 
ATOM     16  C   UNL     1       0.452  13.846  21.699  0.00  0.00    +0.000 C 
ATOM     17  C   UNL     1      -0.328  12.523  21.597  0.00  0.00    +0.000 C 
ENDROOT
BRANCH  15  18
ATOM     18  O   UNL     1       2.772  13.299  21.346  0.00  0.00    +0.000 OA
ATOM     19  H   UNL     1       3.152  12.566  20.835  0.00  0.00    +0.000 HD
ENDBRANCH  15  18
BRANCH   4  20
ATOM     20  O   UNL     1      -4.844  12.647  20.925  0.00  0.00    +0.000 OA
BRANCH  20  21
ATOM     21  C   UNL     1      -5.858  13.560  20.731  0.00  0.00    +0.000 C 
ATOM     22  O   UNL     1      -6.227  13.937  19.621  0.00  0.00    +0.000 OA
BRANCH  21  23
ATOM     23  C   UNL     1      -6.489  14.069  22.050  0.00  0.00    +0.000 C 
ATOM     24  C   UNL     1      -5.944  15.458  22.394  0.00  0.00    +0.000 C 
BRANCH  23  25
ATOM     25  O   UNL     1      -7.916  14.135  21.995  0.00  0.00    +0.000 OA
ATOM     26  H   UNL     1      -8.178  14.112  21.057  0.00  0.00    +0.000 HD
ENDBRANCH  23  25
BRANCH  23  27
ATOM     27  C   UNL     1      -6.125  13.069  23.175  0.00  0.00    +0.000 C 
BRANCH  27  28
ATOM     28  O   UNL     1      -6.889  11.864  23.136  0.00  0.00    +0.000 OA
ATOM     29  H   UNL     1      -7.684  12.050  22.595  0.00  0.00    +0.000 HD
ENDBRANCH  27  28
ENDBRANCH  23  27
ENDBRANCH  21  23
ENDBRANCH  20  21
ENDBRANCH   4  20
TORSDOF 7
ENDMDL
MODEL 7
REMARK VINA RESULT:      -5.4      8.898     11.238
REMARK  Name = 
REMARK  8 active torsions:
REMARK  status: ('A' for Active; 'I' for Inactive)
REMARK    1  A    between atoms: C_4  and  O_5
REMARK    2  A    between atoms: O_5  and  C_6
REMARK    3  A    between atoms: C_6  and  C_8
REMARK    4  A    between atoms: C_8  and  C_9
REMARK    5  A    between atoms: C_8  and  O_10
REMARK    6  A    between atoms: C_8  and  C_11
REMARK    7  A    between atoms: C_11  and  O_12
REMARK    8  A    between atoms: C_23  and  O_24
REMARK                            x       y       z     vdW  Elec       q    Type
REMARK                         _______ _______ _______ _____ _____    ______ ____
ROOT
ATOM      1  C   UNL     1       9.396  16.890  18.320  0.00  0.00    +0.000 C 
ATOM      2  C   UNL     1       9.130  15.573  18.358  0.00  0.00    +0.000 C 
ATOM      3  C   UNL     1       7.695  15.085  18.457  0.00  0.00    +0.000 C 
ATOM      4  C   UNL     1       7.188  14.892  19.908  0.00  0.00    +0.000 C 
ATOM      5  C   UNL     1       8.358  14.589  20.877  0.00  0.00    +0.000 C 
ATOM      6  C   UNL     1       7.989  14.199  22.270  0.00  0.00    +0.000 C 
ATOM      7  C   UNL     1       7.209  14.843  23.148  0.00  0.00    +0.000 C 
ATOM      8  C   UNL     1       8.748  12.994  22.658  0.00  0.00    +0.000 C 
ATOM      9  O   UNL     1       8.734  12.448  23.747  0.00  0.00    +0.000 OA
ATOM     10  O   UNL     1       9.515  12.632  21.600  0.00  0.00    +0.000 OA
ATOM     11  C   UNL     1       9.150  13.351  20.404  0.00  0.00    +0.000 C 
ATOM     12  C   UNL     1      10.440  13.688  19.611  0.00  0.00    +0.000 C 
ATOM     13  C   UNL     1      11.162  12.462  19.055  0.00  0.00    +0.000 C 
ATOM     14  C   UNL     1      11.877  11.585  19.777  0.00  0.00    +0.000 C 
ATOM     15  C   UNL     1      11.052  12.384  17.556  0.00  0.00    +0.000 C 
ATOM     16  C   UNL     1      10.150  13.546  17.171  0.00  0.00    +0.000 C 
ATOM     17  C   UNL     1      10.253  14.547  18.336  0.00  0.00    +0.000 C 
ENDROOT
BRANCH  15  18
ATOM     18  O   UNL     1      12.325  12.533  16.952  0.00  0.00    +0.000 OA
ATOM     19  H   UNL     1      12.218  13.063  16.145  0.00  0.00    +0.000 HD
ENDBRANCH  15  18
BRANCH   4  20
ATOM     20  O   UNL     1       6.422  16.072  20.302  0.00  0.00    +0.000 OA
BRANCH  20  21
ATOM     21  C   UNL     1       5.505  16.484  19.360  0.00  0.00    +0.000 C 
ATOM     22  O   UNL     1       5.700  17.422  18.590  0.00  0.00    +0.000 OA
BRANCH  21  23
ATOM     23  C   UNL     1       4.199  15.651  19.366  0.00  0.00    +0.000 C 
ATOM     24  C   UNL     1       4.054  14.889  18.047  0.00  0.00    +0.000 C 
BRANCH  23  25
ATOM     25  O   UNL     1       4.141  14.717  20.448  0.00  0.00    +0.000 OA
ATOM     26  H   UNL     1       4.395  13.844  20.100  0.00  0.00    +0.000 HD
ENDBRANCH  23  25
BRANCH  23  27
ATOM     27  C   UNL     1       3.008  16.625  19.545  0.00  0.00    +0.000 C 
BRANCH  27  28
ATOM     28  O   UNL     1       2.827  17.513  18.442  0.00  0.00    +0.000 OA
ATOM     29  H   UNL     1       2.001  17.241  17.992  0.00  0.00    +0.000 HD
ENDBRANCH  27  28
ENDBRANCH  23  27
ENDBRANCH  21  23
ENDBRANCH  20  21
ENDBRANCH   4  20
TORSDOF 7
ENDMDL
MODEL 8
REMARK VINA RESULT:      -5.3      9.816     11.752
REMARK  Name = 
REMARK  8 active torsions:
REMARK  status: ('A' for Active; 'I' for Inactive)
REMARK    1  A    between atoms: C_4  and  O_5
REMARK    2  A    between atoms: O_5  and  C_6
REMARK    3  A    between atoms: C_6  and  C_8
REMARK    4  A    between atoms: C_8  and  C_9
REMARK    5  A    between atoms: C_8  and  O_10
REMARK    6  A    between atoms: C_8  and  C_11
REMARK    7  A    between atoms: C_11  and  O_12
REMARK    8  A    between atoms: C_23  and  O_24
REMARK                            x       y       z     vdW  Elec       q    Type
REMARK                         _______ _______ _______ _____ _____    ______ ____
ROOT
ATOM      1  C   UNL     1       8.858  11.310  19.723  0.00  0.00    +0.000 C 
ATOM      2  C   UNL     1       9.711  12.348  19.756  0.00  0.00    +0.000 C 
ATOM      3  C   UNL     1      10.132  12.950  21.087  0.00  0.00    +0.000 C 
ATOM      4  C   UNL     1       9.227  14.108  21.575  0.00  0.00    +0.000 C 
ATOM      5  C   UNL     1       8.544  14.828  20.386  0.00  0.00    +0.000 C 
ATOM      6  C   UNL     1       7.792  16.077  20.703  0.00  0.00    +0.000 C 
ATOM      7  C   UNL     1       6.813  16.269  21.597  0.00  0.00    +0.000 C 
ATOM      8  C   UNL     1       8.181  17.138  19.752  0.00  0.00    +0.000 C 
ATOM      9  O   UNL     1       7.713  18.261  19.688  0.00  0.00    +0.000 OA
ATOM     10  O   UNL     1       9.115  16.620  18.918  0.00  0.00    +0.000 OA
ATOM     11  C   UNL     1       9.599  15.343  19.383  0.00  0.00    +0.000 C 
ATOM     12  C   UNL     1       9.817  14.416  18.159  0.00  0.00    +0.000 C 
ATOM     13  C   UNL     1      10.936  14.876  17.225  0.00  0.00    +0.000 C 
ATOM     14  C   UNL     1      10.866  15.916  16.381  0.00  0.00    +0.000 C 
ATOM     15  C   UNL     1      12.130  13.963  17.297  0.00  0.00    +0.000 C 
ATOM     16  C   UNL     1      11.784  12.954  18.381  0.00  0.00    +0.000 C 
ATOM     17  C   UNL     1      10.248  12.961  18.472  0.00  0.00    +0.000 C 
ENDROOT
BRANCH  15  18
ATOM     18  O   UNL     1      12.329  13.301  16.059  0.00  0.00    +0.000 OA
ATOM     19  H   UNL     1      11.515  12.819  15.838  0.00  0.00    +0.000 HD
ENDBRANCH  15  18
BRANCH   4  20
ATOM     20  O   UNL     1       8.266  13.581  22.541  0.00  0.00    +0.000 OA
BRANCH  20  21
ATOM     21  C   UNL     1       8.496  13.985  23.838  0.00  0.00    +0.000 C 
ATOM     22  O   UNL     1       9.038  15.049  24.130  0.00  0.00    +0.000 OA
BRANCH  21  23
ATOM     23  C   UNL     1       8.008  12.966  24.897  0.00  0.00    +0.000 C 
ATOM     24  C   UNL     1       7.932  11.565  24.284  0.00  0.00    +0.000 C 
BRANCH  23  25
ATOM     25  O   UNL     1       8.850  12.919  26.052  0.00  0.00    +0.000 OA
ATOM     26  H   UNL     1       9.130  13.830  26.253  0.00  0.00    +0.000 HD
ENDBRANCH  23  25
BRANCH  23  27
ATOM     27  C   UNL     1       6.604  13.407  25.377  0.00  0.00    +0.000 C 
BRANCH  27  28
ATOM     28  O   UNL     1       5.966  14.335  24.501  0.00  0.00    +0.000 OA
ATOM     29  H   UNL     1       5.355  13.818  23.936  0.00  0.00    +0.000 HD
ENDBRANCH  27  28
ENDBRANCH  23  27
ENDBRANCH  21  23
ENDBRANCH  20  21
ENDBRANCH   4  20
TORSDOF 7
ENDMDL
MODEL 9
REMARK VINA RESULT:      -5.3      3.335      5.831
REMARK  Name = 
REMARK  8 active torsions:
REMARK  status: ('A' for Active; 'I' for Inactive)
REMARK    1  A    between atoms: C_4  and  O_5
REMARK    2  A    between atoms: O_5  and  C_6
REMARK    3  A    between atoms: C_6  and  C_8
REMARK    4  A    between atoms: C_8  and  C_9
REMARK    5  A    between atoms: C_8  and  O_10
REMARK    6  A    between atoms: C_8  and  C_11
REMARK    7  A    between atoms: C_11  and  O_12
REMARK    8  A    between atoms: C_23  and  O_24
REMARK                            x       y       z     vdW  Elec       q    Type
REMARK                         _______ _______ _______ _____ _____    ______ ____
ROOT
ATOM      1  C   UNL     1       0.292  14.962  22.072  0.00  0.00    +0.000 C 
ATOM      2  C   UNL     1       0.478  14.979  20.741  0.00  0.00    +0.000 C 
ATOM      3  C   UNL     1      -0.664  14.621  19.804  0.00  0.00    +0.000 C 
ATOM      4  C   UNL     1      -0.740  13.117  19.440  0.00  0.00    +0.000 C 
ATOM      5  C   UNL     1       0.653  12.445  19.532  0.00  0.00    +0.000 C 
ATOM      6  C   UNL     1       0.753  11.044  19.029  0.00  0.00    +0.000 C 
ATOM      7  C   UNL     1       0.028   9.970  19.370  0.00  0.00    +0.000 C 
ATOM      8  C   UNL     1       1.925  10.927  18.139  0.00  0.00    +0.000 C 
ATOM      9  O   UNL     1       2.334   9.909  17.608  0.00  0.00    +0.000 OA
ATOM     10  O   UNL     1       2.507  12.148  18.061  0.00  0.00    +0.000 OA
ATOM     11  C   UNL     1       1.670  13.177  18.631  0.00  0.00    +0.000 C 
ATOM     12  C   UNL     1       2.570  14.192  19.383  0.00  0.00    +0.000 C 
ATOM     13  C   UNL     1       3.502  14.989  18.471  0.00  0.00    +0.000 C 
ATOM     14  C   UNL     1       4.604  14.508  17.874  0.00  0.00    +0.000 C 
ATOM     15  C   UNL     1       3.086  16.432  18.376  0.00  0.00    +0.000 C 
ATOM     16  C   UNL     1       1.797  16.519  19.178  0.00  0.00    +0.000 C 
ATOM     17  C   UNL     1       1.834  15.322  20.145  0.00  0.00    +0.000 C 
ENDROOT
BRANCH  15  18
ATOM     18  O   UNL     1       4.073  17.276  18.943  0.00  0.00    +0.000 OA
ATOM     19  H   UNL     1       3.630  18.063  19.300  0.00  0.00    +0.000 HD
ENDBRANCH  15  18
BRANCH   4  20
ATOM     20  O   UNL     1      -1.734  12.473  20.296  0.00  0.00    +0.000 OA
BRANCH  20  21
ATOM     21  C   UNL     1      -2.981  12.365  19.721  0.00  0.00    +0.000 C 
ATOM     22  O   UNL     1      -3.190  11.781  18.660  0.00  0.00    +0.000 OA
BRANCH  21  23
ATOM     23  C   UNL     1      -4.099  13.053  20.543  0.00  0.00    +0.000 C 
ATOM     24  C   UNL     1      -3.778  12.978  22.038  0.00  0.00    +0.000 C 
BRANCH  23  25
ATOM     25  O   UNL     1      -4.290  14.424  20.181  0.00  0.00    +0.000 OA
ATOM     26  H   UNL     1      -4.943  14.452  19.459  0.00  0.00    +0.000 HD
ENDBRANCH  23  25
BRANCH  23  27
ATOM     27  C   UNL     1      -5.431  12.319  20.253  0.00  0.00    +0.000 C 
BRANCH  27  28
ATOM     28  O   UNL     1      -6.102  11.867  21.429  0.00  0.00    +0.000 OA
ATOM     29  H   UNL     1      -7.055  11.820  21.211  0.00  0.00    +0.000 HD
ENDBRANCH  27  28
ENDBRANCH  23  27
ENDBRANCH  21  23
ENDBRANCH  20  21
ENDBRANCH   4  20
TORSDOF 7
ENDMDL
