MODEL 1
REMARK VINA RESULT:      -7.3      0.000      0.000
REMARK  Name = 
REMARK  6 active torsions:
REMARK  status: ('A' for Active; 'I' for Inactive)
REMARK    1  A    between atoms: C_1  and  C_2
REMARK    2  A    between atoms: C_2  and  N_3
REMARK    3  A    between atoms: C_2  and  C_14
REMARK    4  A    between atoms: N_3  and  C_4
REMARK    5  A    between atoms: C_4  and  C_5
REMARK    6  A    between atoms: C_5  and  C_6
REMARK                            x       y       z     vdW  Elec       q    Type
REMARK                         _______ _______ _______ _____ _____    ______ ____
ROOT
ATOM      1  C   UNL     1       6.897   5.593  18.758  0.00  0.00    +0.000 C 
ATOM      2  C   UNL     1       5.564   4.841  18.624  0.00  0.00    +0.000 C 
ENDROOT
BRANCH   2   3
ATOM      3  C   UNL     1       4.452   5.846  18.505  0.00  0.00    +0.000 A 
ATOM      4  C   UNL     1       4.077   6.779  17.553  0.00  0.00    +0.000 A 
ATOM      5  C   UNL     1       3.026   7.556  18.122  0.00  0.00    +0.000 A 
ATOM      6  C   UNL     1       2.250   8.663  17.735  0.00  0.00    +0.000 A 
ATOM      7  C   UNL     1       1.333   9.192  18.651  0.00  0.00    +0.000 A 
ATOM      8 CL   UNL     1       0.391  10.564  18.201  0.00  0.00    +0.000 Cl
ATOM      9  C   UNL     1       1.165   8.640  19.923  0.00  0.00    +0.000 A 
ATOM     10  C   UNL     1       1.907   7.522  20.317  0.00  0.00    +0.000 A 
ATOM     11  C   UNL     1       2.821   7.022  19.392  0.00  0.00    +0.000 A 
ATOM     12  O   UNL     1       3.656   5.971  19.609  0.00  0.00    +0.000 OA
ENDBRANCH   2   3
BRANCH   2  13
ATOM     13  N   UNL     1       5.538   3.870  17.505  0.00  0.00    +0.000 NA
ATOM     14  H   UNL     1       5.809   4.381  16.663  0.00  0.00    +0.000 HD
BRANCH  13  15
ATOM     15  C   UNL     1       4.181   3.331  17.314  0.00  0.00    +0.000 C 
BRANCH  15  16
ATOM     16  C   UNL     1       4.000   1.906  17.838  0.00  0.00    +0.000 C 
BRANCH  16  17
ATOM     17  C   UNL     1       3.938   1.948  19.360  0.00  0.00    +0.000 C 
ATOM     18  O   UNL     1       4.957   1.831  20.044  0.00  0.00    +0.000 OA
ATOM     19  N   UNL     1       2.706   2.163  19.945  0.00  0.00    +0.000 N 
ATOM     20  C   UNL     1       1.424   2.309  19.254  0.00  0.00    +0.000 C 
ATOM     21  C   UNL     1       0.877   3.727  19.460  0.00  0.00    +0.000 C 
ATOM     22  O   UNL     1       0.802   4.059  20.858  0.00  0.00    +0.000 OA
ATOM     23  C   UNL     1       2.094   3.954  21.486  0.00  0.00    +0.000 C 
ATOM     24  C   UNL     1       2.647   2.529  21.362  0.00  0.00    +0.000 C 
ENDBRANCH  16  17
ENDBRANCH  15  16
ENDBRANCH  13  15
ENDBRANCH   2  13
TORSDOF 5
ENDMDL
MODEL 2
REMARK VINA RESULT:      -7.2      3.125      5.969
REMARK  Name = 
REMARK  6 active torsions:
REMARK  status: ('A' for Active; 'I' for Inactive)
REMARK    1  A    between atoms: C_1  and  C_2
REMARK    2  A    between atoms: C_2  and  N_3
REMARK    3  A    between atoms: C_2  and  C_14
REMARK    4  A    between atoms: N_3  and  C_4
REMARK    5  A    between atoms: C_4  and  C_5
REMARK    6  A    between atoms: C_5  and  C_6
REMARK                            x       y       z     vdW  Elec       q    Type
REMARK                         _______ _______ _______ _____ _____    ______ ____
ROOT
ATOM      1  C   UNL     1       0.900   2.608  19.027  0.00  0.00    +0.000 C 
ATOM      2  C   UNL     1       2.209   3.007  19.726  0.00  0.00    +0.000 C 
ENDROOT
BRANCH   2   3
ATOM      3  C   UNL     1       3.168   3.531  18.694  0.00  0.00    +0.000 A 
ATOM      4  C   UNL     1       3.173   3.599  17.310  0.00  0.00    +0.000 A 
ATOM      5  C   UNL     1       4.468   4.047  16.919  0.00  0.00    +0.000 A 
ATOM      6  C   UNL     1       5.145   4.280  15.710  0.00  0.00    +0.000 A 
ATOM      7  C   UNL     1       6.491   4.665  15.758  0.00  0.00    +0.000 A 
ATOM      8 CL   UNL     1       7.344   4.931  14.283  0.00  0.00    +0.000 Cl
ATOM      9  C   UNL     1       7.163   4.832  16.971  0.00  0.00    +0.000 A 
ATOM     10  C   UNL     1       6.500   4.633  18.186  0.00  0.00    +0.000 A 
ATOM     11  C   UNL     1       5.165   4.240  18.110  0.00  0.00    +0.000 A 
ATOM     12  O   UNL     1       4.372   3.961  19.179  0.00  0.00    +0.000 OA
ENDBRANCH   2   3
BRANCH   2  13
ATOM     13  N   UNL     1       2.022   3.976  20.831  0.00  0.00    +0.000 NA
ATOM     14  H   UNL     1       1.466   3.505  21.548  0.00  0.00    +0.000 HD
BRANCH  13  15
ATOM     15  C   UNL     1       1.283   5.163  20.365  0.00  0.00    +0.000 C 
BRANCH  15  16
ATOM     16  C   UNL     1       1.937   6.490  20.751  0.00  0.00    +0.000 C 
BRANCH  16  17
ATOM     17  C   UNL     1       2.120   7.330  19.493  0.00  0.00    +0.000 C 
ATOM     18  O   UNL     1       2.588   6.841  18.463  0.00  0.00    +0.000 OA
ATOM     19  N   UNL     1       1.705   8.646  19.535  0.00  0.00    +0.000 N 
ATOM     20  C   UNL     1       1.143   9.348  20.689  0.00  0.00    +0.000 C 
ATOM     21  C   UNL     1      -0.315   9.733  20.409  0.00  0.00    +0.000 C 
ATOM     22  O   UNL     1      -0.431  10.480  19.185  0.00  0.00    +0.000 OA
ATOM     23  C   UNL     1       0.083   9.731  18.068  0.00  0.00    +0.000 C 
ATOM     24  C   UNL     1       1.562   9.385  18.279  0.00  0.00    +0.000 C 
ENDBRANCH  16  17
ENDBRANCH  15  16
ENDBRANCH  13  15
ENDBRANCH   2  13
TORSDOF 5
ENDMDL
MODEL 3
REMARK VINA RESULT:      -7.2      3.951      5.483
REMARK  Name = 
REMARK  6 active torsions:
REMARK  status: ('A' for Active; 'I' for Inactive)
REMARK    1  A    between atoms: C_1  and  C_2
REMARK    2  A    between atoms: C_2  and  N_3
REMARK    3  A    between atoms: C_2  and  C_14
REMARK    4  A    between atoms: N_3  and  C_4
REMARK    5  A    between atoms: C_4  and  C_5
REMARK    6  A    between atoms: C_5  and  C_6
REMARK                            x       y       z     vdW  Elec       q    Type
REMARK                         _______ _______ _______ _____ _____    ______ ____
ROOT
ATOM      1  C   UNL     1       7.826   7.528  17.376  0.00  0.00    +0.000 C 
ATOM      2  C   UNL     1       6.622   6.596  17.578  0.00  0.00    +0.000 C 
ENDROOT
BRANCH   2   3
ATOM      3  C   UNL     1       6.319   5.907  16.277  0.00  0.00    +0.000 A 
ATOM      4  C   UNL     1       5.255   5.166  15.789  0.00  0.00    +0.000 A 
ATOM      5  C   UNL     1       5.662   4.632  14.532  0.00  0.00    +0.000 A 
ATOM      6  C   UNL     1       5.110   3.781  13.558  0.00  0.00    +0.000 A 
ATOM      7  C   UNL     1       5.894   3.428  12.453  0.00  0.00    +0.000 A 
ATOM      8 CL   UNL     1       5.242   2.366  11.262  0.00  0.00    +0.000 Cl
ATOM      9  C   UNL     1       7.196   3.910  12.294  0.00  0.00    +0.000 A 
ATOM     10  C   UNL     1       7.753   4.780  13.237  0.00  0.00    +0.000 A 
ATOM     11  C   UNL     1       6.956   5.106  14.332  0.00  0.00    +0.000 A 
ATOM     12  O   UNL     1       7.339   5.901  15.367  0.00  0.00    +0.000 OA
ENDBRANCH   2   3
BRANCH   2  13
ATOM     13  N   UNL     1       6.804   5.619  18.677  0.00  0.00    +0.000 NA
ATOM     14  H   UNL     1       7.219   4.782  18.265  0.00  0.00    +0.000 HD
BRANCH  13  15
ATOM     15  C   UNL     1       5.506   5.259  19.275  0.00  0.00    +0.000 C 
BRANCH  15  16
ATOM     16  C   UNL     1       5.228   3.756  19.290  0.00  0.00    +0.000 C 
BRANCH  16  17
ATOM     17  C   UNL     1       3.894   3.497  18.599  0.00  0.00    +0.000 C 
ATOM     18  O   UNL     1       3.845   3.000  17.472  0.00  0.00    +0.000 OA
ATOM     19  N   UNL     1       2.742   3.803  19.296  0.00  0.00    +0.000 N 
ATOM     20  C   UNL     1       2.660   4.402  20.628  0.00  0.00    +0.000 C 
ATOM     21  C   UNL     1       2.037   3.405  21.613  0.00  0.00    +0.000 C 
ATOM     22  O   UNL     1       0.768   2.923  21.135  0.00  0.00    +0.000 OA
ATOM     23  C   UNL     1       0.905   2.293  19.847  0.00  0.00    +0.000 C 
ATOM     24  C   UNL     1       1.462   3.280  18.814  0.00  0.00    +0.000 C 
ENDBRANCH  16  17
ENDBRANCH  15  16
ENDBRANCH  13  15
ENDBRANCH   2  13
TORSDOF 5
ENDMDL
MODEL 4
REMARK VINA RESULT:      -7.1      2.604      4.694
REMARK  Name = 
REMARK  6 active torsions:
REMARK  status: ('A' for Active; 'I' for Inactive)
REMARK    1  A    between atoms: C_1  and  C_2
REMARK    2  A    between atoms: C_2  and  N_3
REMARK    3  A    between atoms: C_2  and  C_14
REMARK    4  A    between atoms: N_3  and  C_4
REMARK    5  A    between atoms: C_4  and  C_5
REMARK    6  A    between atoms: C_5  and  C_6
REMARK                            x       y       z     vdW  Elec       q    Type
REMARK                         _______ _______ _______ _____ _____    ______ ____
ROOT
ATOM      1  C   UNL     1       3.355   7.382  17.617  0.00  0.00    +0.000 C 
ATOM      2  C   UNL     1       2.889   6.642  18.879  0.00  0.00    +0.000 C 
ENDROOT
BRANCH   2   3
ATOM      3  C   UNL     1       2.129   7.602  19.751  0.00  0.00    +0.000 A 
ATOM      4  C   UNL     1       1.656   7.575  21.052  0.00  0.00    +0.000 A 
ATOM      5  C   UNL     1       0.848   8.736  21.226  0.00  0.00    +0.000 A 
ATOM      6  C   UNL     1       0.054   9.283  22.249  0.00  0.00    +0.000 A 
ATOM      7  C   UNL     1      -0.667  10.454  21.985  0.00  0.00    +0.000 A 
ATOM      8 CL   UNL     1      -1.665  11.125  23.221  0.00  0.00    +0.000 Cl
ATOM      9  C   UNL     1      -0.603  11.090  20.744  0.00  0.00    +0.000 A 
ATOM     10  C   UNL     1       0.203  10.579  19.722  0.00  0.00    +0.000 A 
ATOM     11  C   UNL     1       0.901   9.407  20.006  0.00  0.00    +0.000 A 
ATOM     12  O   UNL     1       1.699   8.741  19.129  0.00  0.00    +0.000 OA
ENDBRANCH   2   3
BRANCH   2  13
ATOM     13  N   UNL     1       2.094   5.424  18.595  0.00  0.00    +0.000 NA
ATOM     14  H   UNL     1       1.138   5.615  18.902  0.00  0.00    +0.000 HD
BRANCH  13  15
ATOM     15  C   UNL     1       2.612   4.274  19.355  0.00  0.00    +0.000 C 
BRANCH  15  16
ATOM     16  C   UNL     1       4.123   4.077  19.227  0.00  0.00    +0.000 C 
BRANCH  16  17
ATOM     17  C   UNL     1       4.446   3.683  17.791  0.00  0.00    +0.000 C 
ATOM     18  O   UNL     1       3.617   3.101  17.088  0.00  0.00    +0.000 OA
ATOM     19  N   UNL     1       5.684   4.035  17.293  0.00  0.00    +0.000 N 
ATOM     20  C   UNL     1       6.756   4.716  18.019  0.00  0.00    +0.000 C 
ATOM     21  C   UNL     1       7.004   6.102  17.410  0.00  0.00    +0.000 C 
ATOM     22  O   UNL     1       7.252   6.013  15.996  0.00  0.00    +0.000 OA
ATOM     23  C   UNL     1       6.149   5.387  15.314  0.00  0.00    +0.000 C 
ATOM     24  C   UNL     1       5.912   3.969  15.848  0.00  0.00    +0.000 C 
ENDBRANCH  16  17
ENDBRANCH  15  16
ENDBRANCH  13  15
ENDBRANCH   2  13
TORSDOF 5
ENDMDL
MODEL 5
REMARK VINA RESULT:      -7.1      2.698      4.774
REMARK  Name = 
REMARK  6 active torsions:
REMARK  status: ('A' for Active; 'I' for Inactive)
REMARK    1  A    between atoms: C_1  and  C_2
REMARK    2  A    between atoms: C_2  and  N_3
REMARK    3  A    between atoms: C_2  and  C_14
REMARK    4  A    between atoms: N_3  and  C_4
REMARK    5  A    between atoms: C_4  and  C_5
REMARK    6  A    between atoms: C_5  and  C_6
REMARK                            x       y       z     vdW  Elec       q    Type
REMARK                         _______ _______ _______ _____ _____    ______ ____
ROOT
ATOM      1  C   UNL     1       3.286   7.675  17.725  0.00  0.00    +0.000 C 
ATOM      2  C   UNL     1       2.770   7.111  19.058  0.00  0.00    +0.000 C 
ENDROOT
BRANCH   2   3
ATOM      3  C   UNL     1       1.786   8.082  19.646  0.00  0.00    +0.000 A 
ATOM      4  C   UNL     1       1.208   9.266  19.219  0.00  0.00    +0.000 A 
ATOM      5  C   UNL     1       0.488   9.802  20.327  0.00  0.00    +0.000 A 
ATOM      6  C   UNL     1      -0.260  10.962  20.593  0.00  0.00    +0.000 A 
ATOM      7  C   UNL     1      -0.764  11.153  21.885  0.00  0.00    +0.000 A 
ATOM      8 CL   UNL     1      -1.663  12.582  22.235  0.00  0.00    +0.000 Cl
ATOM      9  C   UNL     1      -0.550  10.219  22.901  0.00  0.00    +0.000 A 
ATOM     10  C   UNL     1       0.167   9.045  22.650  0.00  0.00    +0.000 A 
ATOM     11  C   UNL     1       0.667   8.884  21.360  0.00  0.00    +0.000 A 
ATOM     12  O   UNL     1       1.420   7.833  20.940  0.00  0.00    +0.000 OA
ENDBRANCH   2   3
BRANCH   2  13
ATOM     13  N   UNL     1       2.188   5.753  18.943  0.00  0.00    +0.000 NA
ATOM     14  H   UNL     1       1.222   5.815  19.271  0.00  0.00    +0.000 HD
BRANCH  13  15
ATOM     15  C   UNL     1       2.917   4.799  19.796  0.00  0.00    +0.000 C 
BRANCH  15  16
ATOM     16  C   UNL     1       4.394   4.646  19.434  0.00  0.00    +0.000 C 
BRANCH  16  17
ATOM     17  C   UNL     1       4.497   4.065  18.030  0.00  0.00    +0.000 C 
ATOM     18  O   UNL     1       3.532   3.514  17.495  0.00  0.00    +0.000 OA
ATOM     19  N   UNL     1       5.696   4.212  17.361  0.00  0.00    +0.000 N 
ATOM     20  C   UNL     1       6.915   4.834  17.880  0.00  0.00    +0.000 C 
ATOM     21  C   UNL     1       7.233   6.107  17.086  0.00  0.00    +0.000 C 
ATOM     22  O   UNL     1       7.296   5.838  15.674  0.00  0.00    +0.000 OA
ATOM     23  C   UNL     1       6.059   5.279  15.196  0.00  0.00    +0.000 C 
ATOM     24  C   UNL     1       5.739   3.965  15.919  0.00  0.00    +0.000 C 
ENDBRANCH  16  17
ENDBRANCH  15  16
ENDBRANCH  13  15
ENDBRANCH   2  13
TORSDOF 5
ENDMDL
MODEL 6
REMARK VINA RESULT:      -7.1      2.221      4.109
REMARK  Name = 
REMARK  6 active torsions:
REMARK  status: ('A' for Active; 'I' for Inactive)
REMARK    1  A    between atoms: C_1  and  C_2
REMARK    2  A    between atoms: C_2  and  N_3
REMARK    3  A    between atoms: C_2  and  C_14
REMARK    4  A    between atoms: N_3  and  C_4
REMARK    5  A    between atoms: C_4  and  C_5
REMARK    6  A    between atoms: C_5  and  C_6
REMARK                            x       y       z     vdW  Elec       q    Type
REMARK                         _______ _______ _______ _____ _____    ______ ____
ROOT
ATOM      1  C   UNL     1       2.110   6.085  18.498  0.00  0.00    +0.000 C 
ATOM      2  C   UNL     1       2.507   6.560  19.903  0.00  0.00    +0.000 C 
ENDROOT
BRANCH   2   3
ATOM      3  C   UNL     1       1.765   7.830  20.213  0.00  0.00    +0.000 A 
ATOM      4  C   UNL     1       1.114   8.335  21.326  0.00  0.00    +0.000 A 
ATOM      5  C   UNL     1       0.449   9.527  20.916  0.00  0.00    +0.000 A 
ATOM      6  C   UNL     1      -0.402  10.476  21.509  0.00  0.00    +0.000 A 
ATOM      7  C   UNL     1      -0.917  11.505  20.711  0.00  0.00    +0.000 A 
ATOM      8 CL   UNL     1      -1.983  12.663  21.415  0.00  0.00    +0.000 Cl
ATOM      9  C   UNL     1      -0.596  11.613  19.356  0.00  0.00    +0.000 A 
ATOM     10  C   UNL     1       0.271  10.696  18.754  0.00  0.00    +0.000 A 
ATOM     11  C   UNL     1       0.762   9.676  19.567  0.00  0.00    +0.000 A 
ATOM     12  O   UNL     1       1.581   8.673  19.152  0.00  0.00    +0.000 OA
ENDBRANCH   2   3
BRANCH   2  13
ATOM     13  N   UNL     1       2.296   5.540  20.957  0.00  0.00    +0.000 NA
ATOM     14  H   UNL     1       3.159   4.997  21.022  0.00  0.00    +0.000 HD
BRANCH  13  15
ATOM     15  C   UNL     1       1.193   4.634  20.593  0.00  0.00    +0.000 C 
BRANCH  15  16
ATOM     16  C   UNL     1       1.524   3.152  20.775  0.00  0.00    +0.000 C 
BRANCH  16  17
ATOM     17  C   UNL     1       1.826   2.546  19.411  0.00  0.00    +0.000 C 
ATOM     18  O   UNL     1       0.918   2.180  18.661  0.00  0.00    +0.000 OA
ATOM     19  N   UNL     1       3.149   2.457  19.027  0.00  0.00    +0.000 N 
ATOM     20  C   UNL     1       4.316   2.844  19.821  0.00  0.00    +0.000 C 
ATOM     21  C   UNL     1       5.033   4.025  19.155  0.00  0.00    +0.000 C 
ATOM     22  O   UNL     1       5.357   3.733  17.784  0.00  0.00    +0.000 OA
ATOM     23  C   UNL     1       4.175   3.411  17.028  0.00  0.00    +0.000 C 
ATOM     24  C   UNL     1       3.464   2.189  17.622  0.00  0.00    +0.000 C 
ENDBRANCH  16  17
ENDBRANCH  15  16
ENDBRANCH  13  15
ENDBRANCH   2  13
TORSDOF 5
ENDMDL
MODEL 7
REMARK VINA RESULT:      -7.0      2.454      4.179
REMARK  Name = 
REMARK  6 active torsions:
REMARK  status: ('A' for Active; 'I' for Inactive)
REMARK    1  A    between atoms: C_1  and  C_2
REMARK    2  A    between atoms: C_2  and  N_3
REMARK    3  A    between atoms: C_2  and  C_14
REMARK    4  A    between atoms: N_3  and  C_4
REMARK    5  A    between atoms: C_4  and  C_5
REMARK    6  A    between atoms: C_5  and  C_6
REMARK                            x       y       z     vdW  Elec       q    Type
REMARK                         _______ _______ _______ _____ _____    ______ ____
ROOT
ATOM      1  C   UNL     1       2.841   6.999  18.439  0.00  0.00    +0.000 C 
ATOM      2  C   UNL     1       2.343   6.787  19.876  0.00  0.00    +0.000 C 
ENDROOT
BRANCH   2   3
ATOM      3  C   UNL     1       1.486   7.958  20.269  0.00  0.00    +0.000 A 
ATOM      4  C   UNL     1       1.209   9.196  19.712  0.00  0.00    +0.000 A 
ATOM      5  C   UNL     1       0.454   9.926  20.676  0.00  0.00    +0.000 A 
ATOM      6  C   UNL     1      -0.092  11.218  20.779  0.00  0.00    +0.000 A 
ATOM      7  C   UNL     1      -0.727  11.584  21.971  0.00  0.00    +0.000 A 
ATOM      8 CL   UNL     1      -1.381  13.173  22.123  0.00  0.00    +0.000 Cl
ATOM      9  C   UNL     1      -0.840  10.698  23.045  0.00  0.00    +0.000 A 
ATOM     10  C   UNL     1      -0.328   9.399  22.953  0.00  0.00    +0.000 A 
ATOM     11  C   UNL     1       0.309   9.063  21.760  0.00  0.00    +0.000 A 
ATOM     12  O   UNL     1       0.901   7.867  21.501  0.00  0.00    +0.000 OA
ENDBRANCH   2   3
BRANCH   2  13
ATOM     13  N   UNL     1       1.629   5.504  20.075  0.00  0.00    +0.000 NA
ATOM     14  H   UNL     1       0.653   5.734  20.268  0.00  0.00    +0.000 HD
BRANCH  13  15
ATOM     15  C   UNL     1       2.180   4.774  21.230  0.00  0.00    +0.000 C 
BRANCH  15  16
ATOM     16  C   UNL     1       1.862   3.279  21.227  0.00  0.00    +0.000 C 
BRANCH  16  17
ATOM     17  C   UNL     1       1.771   2.800  19.783  0.00  0.00    +0.000 C 
ATOM     18  O   UNL     1       0.680   2.626  19.236  0.00  0.00    +0.000 OA
ATOM     19  N   UNL     1       2.954   2.605  19.097  0.00  0.00    +0.000 N 
ATOM     20  C   UNL     1       4.308   2.766  19.628  0.00  0.00    +0.000 C 
ATOM     21  C   UNL     1       5.015   3.926  18.916  0.00  0.00    +0.000 C 
ATOM     22  O   UNL     1       4.988   3.755  17.488  0.00  0.00    +0.000 OA
ATOM     23  C   UNL     1       3.636   3.656  17.002  0.00  0.00    +0.000 C 
ATOM     24  C   UNL     1       2.913   2.463  17.640  0.00  0.00    +0.000 C 
ENDBRANCH  16  17
ENDBRANCH  15  16
ENDBRANCH  13  15
ENDBRANCH   2  13
TORSDOF 5
ENDMDL
MODEL 8
REMARK VINA RESULT:      -7.0      3.903      5.346
REMARK  Name = 
REMARK  6 active torsions:
REMARK  status: ('A' for Active; 'I' for Inactive)
REMARK    1  A    between atoms: C_1  and  C_2
REMARK    2  A    between atoms: C_2  and  N_3
REMARK    3  A    between atoms: C_2  and  C_14
REMARK    4  A    between atoms: N_3  and  C_4
REMARK    5  A    between atoms: C_4  and  C_5
REMARK    6  A    between atoms: C_5  and  C_6
REMARK                            x       y       z     vdW  Elec       q    Type
REMARK                         _______ _______ _______ _____ _____    ______ ____
ROOT
ATOM      1  C   UNL     1       7.342   6.662  17.893  0.00  0.00    +0.000 C 
ATOM      2  C   UNL     1       5.869   6.562  17.470  0.00  0.00    +0.000 C 
ENDROOT
BRANCH   2   3
ATOM      3  C   UNL     1       5.789   5.818  16.166  0.00  0.00    +0.000 A 
ATOM      4  C   UNL     1       4.903   4.908  15.613  0.00  0.00    +0.000 A 
ATOM      5  C   UNL     1       5.493   4.432  14.406  0.00  0.00    +0.000 A 
ATOM      6  C   UNL     1       5.168   3.491  13.413  0.00  0.00    +0.000 A 
ATOM      7  C   UNL     1       6.088   3.258  12.384  0.00  0.00    +0.000 A 
ATOM      8 CL   UNL     1       5.716   2.089  11.171  0.00  0.00    +0.000 Cl
ATOM      9  C   UNL     1       7.303   3.942  12.318  0.00  0.00    +0.000 A 
ATOM     10  C   UNL     1       7.633   4.902  13.279  0.00  0.00    +0.000 A 
ATOM     11  C   UNL     1       6.706   5.108  14.299  0.00  0.00    +0.000 A 
ATOM     12  O   UNL     1       6.869   5.966  15.341  0.00  0.00    +0.000 OA
ENDBRANCH   2   3
BRANCH   2  13
ATOM     13  N   UNL     1       4.995   5.948  18.497  0.00  0.00    +0.000 NA
ATOM     14  H   UNL     1       4.799   6.672  19.191  0.00  0.00    +0.000 HD
BRANCH  13  15
ATOM     15  C   UNL     1       5.680   4.827  19.163  0.00  0.00    +0.000 C 
BRANCH  15  16
ATOM     16  C   UNL     1       5.302   3.453  18.610  0.00  0.00    +0.000 C 
BRANCH  16  17
ATOM     17  C   UNL     1       4.496   2.705  19.665  0.00  0.00    +0.000 C 
ATOM     18  O   UNL     1       5.055   2.078  20.568  0.00  0.00    +0.000 OA
ATOM     19  N   UNL     1       3.120   2.786  19.598  0.00  0.00    +0.000 N 
ATOM     20  C   UNL     1       2.335   3.485  18.579  0.00  0.00    +0.000 C 
ATOM     21  C   UNL     1       1.575   4.655  19.216  0.00  0.00    +0.000 C 
ATOM     22  O   UNL     1       0.782   4.216  20.333  0.00  0.00    +0.000 OA
ATOM     23  C   UNL     1       1.601   3.583  21.334  0.00  0.00    +0.000 C 
ATOM     24  C   UNL     1       2.327   2.364  20.754  0.00  0.00    +0.000 C 
ENDBRANCH  16  17
ENDBRANCH  15  16
ENDBRANCH  13  15
ENDBRANCH   2  13
TORSDOF 5
ENDMDL
MODEL 9
REMARK VINA RESULT:      -6.9      4.125      5.853
REMARK  Name = 
REMARK  6 active torsions:
REMARK  status: ('A' for Active; 'I' for Inactive)
REMARK    1  A    between atoms: C_1  and  C_2
REMARK    2  A    between atoms: C_2  and  N_3
REMARK    3  A    between atoms: C_2  and  C_14
REMARK    4  A    between atoms: N_3  and  C_4
REMARK    5  A    between atoms: C_4  and  C_5
REMARK    6  A    between atoms: C_5  and  C_6
REMARK                            x       y       z     vdW  Elec       q    Type
REMARK                         _______ _______ _______ _____ _____    ______ ____
ROOT
ATOM      1  C   UNL     1       7.476   6.583  17.636  0.00  0.00    +0.000 C 
ATOM      2  C   UNL     1       6.027   6.641  17.131  0.00  0.00    +0.000 C 
ENDROOT
BRANCH   2   3
ATOM      3  C   UNL     1       5.913   5.801  15.889  0.00  0.00    +0.000 A 
ATOM      4  C   UNL     1       5.096   4.758  15.487  0.00  0.00    +0.000 A 
ATOM      5  C   UNL     1       5.620   4.268  14.255  0.00  0.00    +0.000 A 
ATOM      6  C   UNL     1       5.318   3.228  13.359  0.00  0.00    +0.000 A 
ATOM      7  C   UNL     1       6.155   3.030  12.255  0.00  0.00    +0.000 A 
ATOM      8 CL   UNL     1       5.814   1.743  11.159  0.00  0.00    +0.000 Cl
ATOM      9  C   UNL     1       7.265   3.845  12.020  0.00  0.00    +0.000 A 
ATOM     10  C   UNL     1       7.566   4.903  12.884  0.00  0.00    +0.000 A 
ATOM     11  C   UNL     1       6.725   5.072  13.981  0.00  0.00    +0.000 A 
ATOM     12  O   UNL     1       6.881   6.015  14.947  0.00  0.00    +0.000 OA
ENDBRANCH   2   3
BRANCH   2  13
ATOM     13  N   UNL     1       5.026   6.240  18.148  0.00  0.00    +0.000 NA
ATOM     14  H   UNL     1       4.834   5.248  18.000  0.00  0.00    +0.000 HD
BRANCH  13  15
ATOM     15  C   UNL     1       3.774   6.996  17.973  0.00  0.00    +0.000 C 
BRANCH  15  16
ATOM     16  C   UNL     1       2.511   6.149  18.138  0.00  0.00    +0.000 C 
BRANCH  16  17
ATOM     17  C   UNL     1       2.344   5.801  19.612  0.00  0.00    +0.000 C 
ATOM     18  O   UNL     1       1.923   6.632  20.420  0.00  0.00    +0.000 OA
ATOM     19  N   UNL     1       2.642   4.512  20.004  0.00  0.00    +0.000 N 
ATOM     20  C   UNL     1       3.156   3.437  19.154  0.00  0.00    +0.000 C 
ATOM     21  C   UNL     1       2.119   2.312  19.048  0.00  0.00    +0.000 C 
ATOM     22  O   UNL     1       1.712   1.853  20.349  0.00  0.00    +0.000 OA
ATOM     23  C   UNL     1       1.163   2.931  21.132  0.00  0.00    +0.000 C 
ATOM     24  C   UNL     1       2.196   4.049  21.320  0.00  0.00    +0.000 C 
ENDBRANCH  16  17
ENDBRANCH  15  16
ENDBRANCH  13  15
ENDBRANCH   2  13
TORSDOF 5
ENDMDL
