MODEL 1
REMARK VINA RESULT:      -7.2      0.000      0.000
REMARK  Name = 
REMARK  7 active torsions:
REMARK  status: ('A' for Active; 'I' for Inactive)
REMARK    1  A    between atoms: C_1  and  C_2
REMARK    2  A    between atoms: C_2  and  C_3
REMARK    3  A    between atoms: N_5  and  C_6
REMARK    4  A    between atoms: C_6  and  C_7
REMARK    5  A    between atoms: C_9  and  C_10
REMARK    6  A    between atoms: C_16  and  C_17
REMARK    7  A    between atoms: C_17  and  C_18
REMARK                            x       y       z     vdW  Elec       q    Type
REMARK                         _______ _______ _______ _____ _____    ______ ____
ROOT
ATOM      1  C   UNL     1       4.833   5.325  16.365  0.00  0.00    +0.000 A 
ATOM      2  C   UNL     1       4.980   6.709  16.567  0.00  0.00    +0.000 A 
ATOM      3  C   UNL     1       4.185   7.415  17.481  0.00  0.00    +0.000 A 
ATOM      4  C   UNL     1       3.201   6.765  18.239  0.00  0.00    +0.000 A 
ATOM      5  C   UNL     1       3.030   5.387  18.050  0.00  0.00    +0.000 A 
ATOM      6  N   UNL     1       2.176   4.497  18.651  0.00  0.00    +0.000 NA
ATOM      7  C   UNL     1       2.496   3.340  18.093  0.00  0.00    +0.000 A 
ATOM      8  O   UNL     1       3.489   3.407  17.159  0.00  0.00    +0.000 OA
ATOM      9  C   UNL     1       3.836   4.729  17.136  0.00  0.00    +0.000 A 
ENDROOT
BRANCH   1  12
ATOM     10  C   UNL     1       6.008   4.796  14.079  0.00  0.00    +0.000 C 
ATOM     11  C   UNL     1       7.097   4.873  15.117  0.00  0.00    +0.000 C 
ATOM     12  C   UNL     1       5.710   4.449  15.526  0.00  0.00    +0.000 C 
BRANCH  10  13
ATOM     13  C   UNL     1       6.041   3.701  13.054  0.00  0.00    +0.000 C 
BRANCH  13  16
ATOM     14  C   UNL     1       4.622   2.674  11.353  0.00  0.00    +0.000 C 
ATOM     15  O   UNL     1       5.349   1.687  11.281  0.00  0.00    +0.000 OA
ATOM     16  N   UNL     1       4.873   3.728  12.203  0.00  0.00    +0.000 N 
ATOM     17  H   UNL     1       4.223   4.499  12.266  0.00  0.00    +0.000 HD
BRANCH  14  19
ATOM     18  C   UNL     1       3.192   4.288  10.052  0.00  0.00    +0.000 C 
ATOM     19  C   UNL     1       3.375   2.849  10.507  0.00  0.00    +0.000 C 
ENDBRANCH  14  19
ENDBRANCH  13  16
ENDBRANCH  10  13
ENDBRANCH   1  12
BRANCH   7  20
ATOM     20  C   UNL     1       1.926   1.996  18.343  0.00  0.00    +0.000 C 
ATOM     21  C   UNL     1       0.580   2.091  19.040  0.00  0.00    +0.000 C 
ENDBRANCH   7  20
TORSDOF 5
ENDMDL
MODEL 2
REMARK VINA RESULT:      -7.1      2.439      4.076
REMARK  Name = 
REMARK  7 active torsions:
REMARK  status: ('A' for Active; 'I' for Inactive)
REMARK    1  A    between atoms: C_1  and  C_2
REMARK    2  A    between atoms: C_2  and  C_3
REMARK    3  A    between atoms: N_5  and  C_6
REMARK    4  A    between atoms: C_6  and  C_7
REMARK    5  A    between atoms: C_9  and  C_10
REMARK    6  A    between atoms: C_16  and  C_17
REMARK    7  A    between atoms: C_17  and  C_18
REMARK                            x       y       z     vdW  Elec       q    Type
REMARK                         _______ _______ _______ _____ _____    ______ ____
ROOT
ATOM      1  C   UNL     1       4.330   4.398  19.106  0.00  0.00    +0.000 A 
ATOM      2  C   UNL     1       4.259   3.079  19.589  0.00  0.00    +0.000 A 
ATOM      3  C   UNL     1       3.279   2.676  20.507  0.00  0.00    +0.000 A 
ATOM      4  C   UNL     1       2.319   3.579  20.986  0.00  0.00    +0.000 A 
ATOM      5  C   UNL     1       2.374   4.901  20.526  0.00  0.00    +0.000 A 
ATOM      6  N   UNL     1       1.573   5.981  20.799  0.00  0.00    +0.000 NA
ATOM      7  C   UNL     1       2.090   6.943  20.051  0.00  0.00    +0.000 A 
ATOM      8  O   UNL     1       3.181   6.578  19.316  0.00  0.00    +0.000 OA
ATOM      9  C   UNL     1       3.360   5.257  19.620  0.00  0.00    +0.000 A 
ENDROOT
BRANCH   1  12
ATOM     10  C   UNL     1       5.281   4.238  16.665  0.00  0.00    +0.000 C 
ATOM     11  C   UNL     1       4.705   5.622  16.816  0.00  0.00    +0.000 C 
ATOM     12  C   UNL     1       5.237   4.905  18.028  0.00  0.00    +0.000 C 
BRANCH  10  13
ATOM     13  C   UNL     1       6.602   4.059  15.978  0.00  0.00    +0.000 C 
BRANCH  13  16
ATOM     14  C   UNL     1       7.044   4.465  13.612  0.00  0.00    +0.000 C 
ATOM     15  O   UNL     1       7.735   5.448  13.865  0.00  0.00    +0.000 OA
ATOM     16  N   UNL     1       6.439   3.703  14.587  0.00  0.00    +0.000 N 
ATOM     17  H   UNL     1       5.919   2.873  14.338  0.00  0.00    +0.000 HD
BRANCH  14  19
ATOM     18  C   UNL     1       5.458   3.221  12.101  0.00  0.00    +0.000 C 
ATOM     19  C   UNL     1       6.769   3.986  12.199  0.00  0.00    +0.000 C 
ENDBRANCH  14  19
ENDBRANCH  13  16
ENDBRANCH  10  13
ENDBRANCH   1  12
BRANCH   7  20
ATOM     20  C   UNL     1       1.648   8.349  19.906  0.00  0.00    +0.000 C 
ATOM     21  C   UNL     1       1.803   8.829  18.473  0.00  0.00    +0.000 C 
ENDBRANCH   7  20
TORSDOF 5
ENDMDL
MODEL 3
REMARK VINA RESULT:      -7.1      2.346      4.024
REMARK  Name = 
REMARK  7 active torsions:
REMARK  status: ('A' for Active; 'I' for Inactive)
REMARK    1  A    between atoms: C_1  and  C_2
REMARK    2  A    between atoms: C_2  and  C_3
REMARK    3  A    between atoms: N_5  and  C_6
REMARK    4  A    between atoms: C_6  and  C_7
REMARK    5  A    between atoms: C_9  and  C_10
REMARK    6  A    between atoms: C_16  and  C_17
REMARK    7  A    between atoms: C_17  and  C_18
REMARK                            x       y       z     vdW  Elec       q    Type
REMARK                         _______ _______ _______ _____ _____    ______ ____
ROOT
ATOM      1  C   UNL     1       3.638   3.968  18.737  0.00  0.00    +0.000 A 
ATOM      2  C   UNL     1       3.230   2.622  18.734  0.00  0.00    +0.000 A 
ATOM      3  C   UNL     1       2.064   2.198  19.386  0.00  0.00    +0.000 A 
ATOM      4  C   UNL     1       1.247   3.105  20.074  0.00  0.00    +0.000 A 
ATOM      5  C   UNL     1       1.636   4.451  20.099  0.00  0.00    +0.000 A 
ATOM      6  N   UNL     1       1.038   5.549  20.666  0.00  0.00    +0.000 NA
ATOM      7  C   UNL     1       1.844   6.544  20.330  0.00  0.00    +0.000 A 
ATOM      8  O   UNL     1       2.935   6.179  19.595  0.00  0.00    +0.000 OA
ATOM      9  C   UNL     1       2.796   4.827  19.442  0.00  0.00    +0.000 A 
ENDROOT
BRANCH   1  12
ATOM     10  C   UNL     1       4.923   4.310  16.475  0.00  0.00    +0.000 C 
ATOM     11  C   UNL     1       4.578   5.684  16.988  0.00  0.00    +0.000 C 
ATOM     12  C   UNL     1       4.778   4.556  17.966  0.00  0.00    +0.000 C 
BRANCH  10  13
ATOM     13  C   UNL     1       6.287   4.057  15.902  0.00  0.00    +0.000 C 
BRANCH  13  16
ATOM     14  C   UNL     1       6.821   4.321  13.535  0.00  0.00    +0.000 C 
ATOM     15  O   UNL     1       7.436   5.363  13.746  0.00  0.00    +0.000 OA
ATOM     16  N   UNL     1       6.216   3.594  14.535  0.00  0.00    +0.000 N 
ATOM     17  H   UNL     1       5.761   2.716  14.325  0.00  0.00    +0.000 HD
BRANCH  14  19
ATOM     18  C   UNL     1       5.271   3.109  11.963  0.00  0.00    +0.000 C 
ATOM     19  C   UNL     1       6.648   3.726  12.150  0.00  0.00    +0.000 C 
ENDBRANCH  14  19
ENDBRANCH  13  16
ENDBRANCH  10  13
ENDBRANCH   1  12
BRANCH   7  20
ATOM     20  C   UNL     1       1.723   7.986  20.643  0.00  0.00    +0.000 C 
ATOM     21  C   UNL     1       0.463   8.271  21.442  0.00  0.00    +0.000 C 
ENDBRANCH   7  20
TORSDOF 5
ENDMDL
MODEL 4
REMARK VINA RESULT:      -7.0      2.402      4.204
REMARK  Name = 
REMARK  7 active torsions:
REMARK  status: ('A' for Active; 'I' for Inactive)
REMARK    1  A    between atoms: C_1  and  C_2
REMARK    2  A    between atoms: C_2  and  C_3
REMARK    3  A    between atoms: N_5  and  C_6
REMARK    4  A    between atoms: C_6  and  C_7
REMARK    5  A    between atoms: C_9  and  C_10
REMARK    6  A    between atoms: C_16  and  C_17
REMARK    7  A    between atoms: C_17  and  C_18
REMARK                            x       y       z     vdW  Elec       q    Type
REMARK                         _______ _______ _______ _____ _____    ______ ____
ROOT
ATOM      1  C   UNL     1       3.281   4.221  18.665  0.00  0.00    +0.000 A 
ATOM      2  C   UNL     1       3.234   3.070  19.471  0.00  0.00    +0.000 A 
ATOM      3  C   UNL     1       2.656   3.079  20.748  0.00  0.00    +0.000 A 
ATOM      4  C   UNL     1       2.092   4.248  21.280  0.00  0.00    +0.000 A 
ATOM      5  C   UNL     1       2.133   5.411  20.499  0.00  0.00    +0.000 A 
ATOM      6  N   UNL     1       1.655   6.674  20.743  0.00  0.00    +0.000 NA
ATOM      7  C   UNL     1       1.954   7.334  19.635  0.00  0.00    +0.000 A 
ATOM      8  O   UNL     1       2.606   6.600  18.686  0.00  0.00    +0.000 OA
ATOM      9  C   UNL     1       2.716   5.357  19.243  0.00  0.00    +0.000 A 
ENDROOT
BRANCH   1  12
ATOM     10  C   UNL     1       5.146   4.767  16.901  0.00  0.00    +0.000 C 
ATOM     11  C   UNL     1       4.754   3.328  16.686  0.00  0.00    +0.000 C 
ATOM     12  C   UNL     1       3.744   4.296  17.244  0.00  0.00    +0.000 C 
BRANCH  10  13
ATOM     13  C   UNL     1       5.350   5.662  15.715  0.00  0.00    +0.000 C 
BRANCH  13  16
ATOM     14  C   UNL     1       6.829   4.776  13.987  0.00  0.00    +0.000 C 
ATOM     15  O   UNL     1       7.817   5.276  14.515  0.00  0.00    +0.000 OA
ATOM     16  N   UNL     1       5.558   4.904  14.502  0.00  0.00    +0.000 N 
ATOM     17  H   UNL     1       4.779   4.434  14.063  0.00  0.00    +0.000 HD
BRANCH  14  19
ATOM     18  C   UNL     1       5.541   3.383  12.329  0.00  0.00    +0.000 C 
ATOM     19  C   UNL     1       6.894   3.971  12.702  0.00  0.00    +0.000 C 
ENDBRANCH  14  19
ENDBRANCH  13  16
ENDBRANCH  10  13
ENDBRANCH   1  12
BRANCH   7  20
ATOM     20  C   UNL     1       1.680   8.748  19.291  0.00  0.00    +0.000 C 
ATOM     21  C   UNL     1       1.789   8.980  17.794  0.00  0.00    +0.000 C 
ENDBRANCH   7  20
TORSDOF 5
ENDMDL
MODEL 5
REMARK VINA RESULT:      -6.9      1.755      2.184
REMARK  Name = 
REMARK  7 active torsions:
REMARK  status: ('A' for Active; 'I' for Inactive)
REMARK    1  A    between atoms: C_1  and  C_2
REMARK    2  A    between atoms: C_2  and  C_3
REMARK    3  A    between atoms: N_5  and  C_6
REMARK    4  A    between atoms: C_6  and  C_7
REMARK    5  A    between atoms: C_9  and  C_10
REMARK    6  A    between atoms: C_16  and  C_17
REMARK    7  A    between atoms: C_17  and  C_18
REMARK                            x       y       z     vdW  Elec       q    Type
REMARK                         _______ _______ _______ _____ _____    ______ ____
ROOT
ATOM      1  C   UNL     1       4.512   6.016  17.573  0.00  0.00    +0.000 A 
ATOM      2  C   UNL     1       4.206   7.361  17.297  0.00  0.00    +0.000 A 
ATOM      3  C   UNL     1       3.040   7.972  17.778  0.00  0.00    +0.000 A 
ATOM      4  C   UNL     1       2.121   7.261  18.564  0.00  0.00    +0.000 A 
ATOM      5  C   UNL     1       2.399   5.918  18.846  0.00  0.00    +0.000 A 
ATOM      6  N   UNL     1       1.708   4.994  19.589  0.00  0.00    +0.000 NA
ATOM      7  C   UNL     1       2.472   3.915  19.525  0.00  0.00    +0.000 A 
ATOM      8  O   UNL     1       3.609   4.057  18.782  0.00  0.00    +0.000 OA
ATOM      9  C   UNL     1       3.562   5.353  18.349  0.00  0.00    +0.000 A 
ENDROOT
BRANCH   1  12
ATOM     10  C   UNL     1       6.414   5.442  15.859  0.00  0.00    +0.000 C 
ATOM     11  C   UNL     1       7.087   6.040  17.067  0.00  0.00    +0.000 C 
ATOM     12  C   UNL     1       5.783   5.303  17.232  0.00  0.00    +0.000 C 
BRANCH  10  13
ATOM     13  C   UNL     1       7.015   4.234  15.202  0.00  0.00    +0.000 C 
BRANCH  13  16
ATOM     14  C   UNL     1       6.336   3.795  12.898  0.00  0.00    +0.000 C 
ATOM     15  O   UNL     1       7.290   4.425  12.452  0.00  0.00    +0.000 OA
ATOM     16  N   UNL     1       6.108   3.637  14.248  0.00  0.00    +0.000 N 
ATOM     17  H   UNL     1       5.338   3.069  14.573  0.00  0.00    +0.000 HD
BRANCH  14  19
ATOM     18  C   UNL     1       5.810   1.844  11.394  0.00  0.00    +0.000 C 
ATOM     19  C   UNL     1       5.294   3.131  12.017  0.00  0.00    +0.000 C 
ENDBRANCH  14  19
ENDBRANCH  13  16
ENDBRANCH  10  13
ENDBRANCH   1  12
BRANCH   7  20
ATOM     20  C   UNL     1       2.260   2.586  20.143  0.00  0.00    +0.000 C 
ATOM     21  C   UNL     1       2.534   2.626  21.637  0.00  0.00    +0.000 C 
ENDBRANCH   7  20
TORSDOF 5
ENDMDL
MODEL 6
REMARK VINA RESULT:      -6.9      1.802      2.245
REMARK  Name = 
REMARK  7 active torsions:
REMARK  status: ('A' for Active; 'I' for Inactive)
REMARK    1  A    between atoms: C_1  and  C_2
REMARK    2  A    between atoms: C_2  and  C_3
REMARK    3  A    between atoms: N_5  and  C_6
REMARK    4  A    between atoms: C_6  and  C_7
REMARK    5  A    between atoms: C_9  and  C_10
REMARK    6  A    between atoms: C_16  and  C_17
REMARK    7  A    between atoms: C_17  and  C_18
REMARK                            x       y       z     vdW  Elec       q    Type
REMARK                         _______ _______ _______ _____ _____    ______ ____
ROOT
ATOM      1  C   UNL     1       6.322   4.576  16.788  0.00  0.00    +0.000 A 
ATOM      2  C   UNL     1       7.315   5.250  17.521  0.00  0.00    +0.000 A 
ATOM      3  C   UNL     1       7.141   5.590  18.870  0.00  0.00    +0.000 A 
ATOM      4  C   UNL     1       5.958   5.267  19.552  0.00  0.00    +0.000 A 
ATOM      5  C   UNL     1       4.951   4.601  18.841  0.00  0.00    +0.000 A 
ATOM      6  N   UNL     1       3.718   4.149  19.240  0.00  0.00    +0.000 NA
ATOM      7  C   UNL     1       3.235   3.574  18.149  0.00  0.00    +0.000 A 
ATOM      8  O   UNL     1       4.055   3.627  17.059  0.00  0.00    +0.000 OA
ATOM      9  C   UNL     1       5.165   4.287  17.508  0.00  0.00    +0.000 A 
ENDROOT
BRANCH   1  12
ATOM     10  C   UNL     1       5.874   4.800  14.212  0.00  0.00    +0.000 C 
ATOM     11  C   UNL     1       7.367   4.681  14.382  0.00  0.00    +0.000 C 
ATOM     12  C   UNL     1       6.451   4.043  15.394  0.00  0.00    +0.000 C 
BRANCH  10  13
ATOM     13  C   UNL     1       5.194   4.036  13.114  0.00  0.00    +0.000 C 
BRANCH  13  16
ATOM     14  C   UNL     1       5.593   2.216  11.537  0.00  0.00    +0.000 C 
ATOM     15  O   UNL     1       4.454   2.297  11.089  0.00  0.00    +0.000 OA
ATOM     16  N   UNL     1       6.063   3.034  12.541  0.00  0.00    +0.000 N 
ATOM     17  H   UNL     1       7.023   2.967  12.846  0.00  0.00    +0.000 HD
BRANCH  14  19
ATOM     18  C   UNL     1       6.168  -0.228  11.329  0.00  0.00    +0.000 C 
ATOM     19  C   UNL     1       6.608   1.200  11.046  0.00  0.00    +0.000 C 
ENDBRANCH  14  19
ENDBRANCH  13  16
ENDBRANCH  10  13
ENDBRANCH   1  12
BRANCH   7  20
ATOM     20  C   UNL     1       1.937   2.889  17.956  0.00  0.00    +0.000 C 
ATOM     21  C   UNL     1       1.561   2.068  19.178  0.00  0.00    +0.000 C 
ENDBRANCH   7  20
TORSDOF 5
ENDMDL
MODEL 7
REMARK VINA RESULT:      -6.9      1.608      1.737
REMARK  Name = 
REMARK  7 active torsions:
REMARK  status: ('A' for Active; 'I' for Inactive)
REMARK    1  A    between atoms: C_1  and  C_2
REMARK    2  A    between atoms: C_2  and  C_3
REMARK    3  A    between atoms: N_5  and  C_6
REMARK    4  A    between atoms: C_6  and  C_7
REMARK    5  A    between atoms: C_9  and  C_10
REMARK    6  A    between atoms: C_16  and  C_17
REMARK    7  A    between atoms: C_17  and  C_18
REMARK                            x       y       z     vdW  Elec       q    Type
REMARK                         _______ _______ _______ _____ _____    ______ ____
ROOT
ATOM      1  C   UNL     1       6.732   4.865  16.703  0.00  0.00    +0.000 A 
ATOM      2  C   UNL     1       7.470   5.766  17.493  0.00  0.00    +0.000 A 
ATOM      3  C   UNL     1       7.124   6.043  18.823  0.00  0.00    +0.000 A 
ATOM      4  C   UNL     1       6.019   5.427  19.429  0.00  0.00    +0.000 A 
ATOM      5  C   UNL     1       5.264   4.532  18.660  0.00  0.00    +0.000 A 
ATOM      6  N   UNL     1       4.162   3.780  18.982  0.00  0.00    +0.000 NA
ATOM      7  C   UNL     1       3.915   3.106  17.869  0.00  0.00    +0.000 A 
ATOM      8  O   UNL     1       4.766   3.371  16.835  0.00  0.00    +0.000 OA
ATOM      9  C   UNL     1       5.639   4.288  17.349  0.00  0.00    +0.000 A 
ENDROOT
BRANCH   1  12
ATOM     10  C   UNL     1       6.159   4.641  14.152  0.00  0.00    +0.000 C 
ATOM     11  C   UNL     1       7.488   5.347  14.237  0.00  0.00    +0.000 C 
ATOM     12  C   UNL     1       7.085   4.390  15.328  0.00  0.00    +0.000 C 
BRANCH  10  13
ATOM     13  C   UNL     1       5.961   3.561  13.131  0.00  0.00    +0.000 C 
BRANCH  13  16
ATOM     14  C   UNL     1       4.395   2.856  11.395  0.00  0.00    +0.000 C 
ATOM     15  O   UNL     1       5.138   1.949  11.033  0.00  0.00    +0.000 OA
ATOM     16  N   UNL     1       4.707   3.712  12.428  0.00  0.00    +0.000 N 
ATOM     17  H   UNL     1       4.045   4.414  12.726  0.00  0.00    +0.000 HD
BRANCH  14  19
ATOM     18  C   UNL     1       3.190   4.128   9.585  0.00  0.00    +0.000 C 
ATOM     19  C   UNL     1       3.058   3.145  10.738  0.00  0.00    +0.000 C 
ENDBRANCH  14  19
ENDBRANCH  13  16
ENDBRANCH  10  13
ENDBRANCH   1  12
BRANCH   7  20
ATOM     20  C   UNL     1       2.849   2.115  17.598  0.00  0.00    +0.000 C 
ATOM     21  C   UNL     1       1.591   2.431  18.388  0.00  0.00    +0.000 C 
ENDBRANCH   7  20
TORSDOF 5
ENDMDL
MODEL 8
REMARK VINA RESULT:      -6.8      3.157      7.023
REMARK  Name = 
REMARK  7 active torsions:
REMARK  status: ('A' for Active; 'I' for Inactive)
REMARK    1  A    between atoms: C_1  and  C_2
REMARK    2  A    between atoms: C_2  and  C_3
REMARK    3  A    between atoms: N_5  and  C_6
REMARK    4  A    between atoms: C_6  and  C_7
REMARK    5  A    between atoms: C_9  and  C_10
REMARK    6  A    between atoms: C_16  and  C_17
REMARK    7  A    between atoms: C_17  and  C_18
REMARK                            x       y       z     vdW  Elec       q    Type
REMARK                         _______ _______ _______ _____ _____    ______ ____
ROOT
ATOM      1  C   UNL     1       4.885   4.325  16.243  0.00  0.00    +0.000 A 
ATOM      2  C   UNL     1       4.893   3.725  14.971  0.00  0.00    +0.000 A 
ATOM      3  C   UNL     1       5.898   3.992  14.031  0.00  0.00    +0.000 A 
ATOM      4  C   UNL     1       6.948   4.875  14.322  0.00  0.00    +0.000 A 
ATOM      5  C   UNL     1       6.957   5.491  15.580  0.00  0.00    +0.000 A 
ATOM      6  N   UNL     1       7.849   6.369  16.144  0.00  0.00    +0.000 NA
ATOM      7  C   UNL     1       7.355   6.573  17.355  0.00  0.00    +0.000 A 
ATOM      8  O   UNL     1       6.196   5.902  17.624  0.00  0.00    +0.000 OA
ATOM      9  C   UNL     1       5.944   5.200  16.479  0.00  0.00    +0.000 A 
ENDROOT
BRANCH   1  12
ATOM     10  C   UNL     1       2.552   3.483  17.101  0.00  0.00    +0.000 C 
ATOM     11  C   UNL     1       3.593   2.596  17.735  0.00  0.00    +0.000 C 
ATOM     12  C   UNL     1       3.949   4.013  17.369  0.00  0.00    +0.000 C 
BRANCH  10  13
ATOM     13  C   UNL     1       1.406   3.984  17.929  0.00  0.00    +0.000 C 
BRANCH  13  16
ATOM     14  C   UNL     1       1.607   4.189  20.353  0.00  0.00    +0.000 C 
ATOM     15  O   UNL     1       1.796   5.400  20.278  0.00  0.00    +0.000 OA
ATOM     16  N   UNL     1       1.400   3.394  19.248  0.00  0.00    +0.000 N 
ATOM     17  H   UNL     1       1.199   2.410  19.358  0.00  0.00    +0.000 HD
BRANCH  14  19
ATOM     18  C   UNL     1       2.600   2.291  21.679  0.00  0.00    +0.000 C 
ATOM     19  C   UNL     1       1.594   3.432  21.668  0.00  0.00    +0.000 C 
ENDBRANCH  14  19
ENDBRANCH  13  16
ENDBRANCH  10  13
ENDBRANCH   1  12
BRANCH   7  20
ATOM     20  C   UNL     1       7.885   7.422  18.446  0.00  0.00    +0.000 C 
ATOM     21  C   UNL     1       8.181   8.828  17.953  0.00  0.00    +0.000 C 
ENDBRANCH   7  20
TORSDOF 5
ENDMDL
MODEL 9
REMARK VINA RESULT:      -6.8      3.544      6.742
REMARK  Name = 
REMARK  7 active torsions:
REMARK  status: ('A' for Active; 'I' for Inactive)
REMARK    1  A    between atoms: C_1  and  C_2
REMARK    2  A    between atoms: C_2  and  C_3
REMARK    3  A    between atoms: N_5  and  C_6
REMARK    4  A    between atoms: C_6  and  C_7
REMARK    5  A    between atoms: C_9  and  C_10
REMARK    6  A    between atoms: C_16  and  C_17
REMARK    7  A    between atoms: C_17  and  C_18
REMARK                            x       y       z     vdW  Elec       q    Type
REMARK                         _______ _______ _______ _____ _____    ______ ____
ROOT
ATOM      1  C   UNL     1       4.143   6.526  17.396  0.00  0.00    +0.000 A 
ATOM      2  C   UNL     1       5.017   6.658  16.302  0.00  0.00    +0.000 A 
ATOM      3  C   UNL     1       5.461   5.549  15.569  0.00  0.00    +0.000 A 
ATOM      4  C   UNL     1       5.050   4.249  15.898  0.00  0.00    +0.000 A 
ATOM      5  C   UNL     1       4.186   4.091  16.989  0.00  0.00    +0.000 A 
ATOM      6  N   UNL     1       3.612   2.966  17.525  0.00  0.00    +0.000 NA
ATOM      7  C   UNL     1       2.871   3.440  18.514  0.00  0.00    +0.000 A 
ATOM      8  O   UNL     1       2.926   4.795  18.676  0.00  0.00    +0.000 OA
ATOM      9  C   UNL     1       3.772   5.214  17.687  0.00  0.00    +0.000 A 
ENDROOT
BRANCH   1  12
ATOM     10  C   UNL     1       2.095   8.112  17.819  0.00  0.00    +0.000 C 
ATOM     11  C   UNL     1       2.360   7.391  19.116  0.00  0.00    +0.000 C 
ATOM     12  C   UNL     1       3.497   7.640  18.160  0.00  0.00    +0.000 C 
BRANCH  10  13
ATOM     13  C   UNL     1       1.790   9.580  17.839  0.00  0.00    +0.000 C 
BRANCH  13  16
ATOM     14  C   UNL     1      -0.259  10.563  18.729  0.00  0.00    +0.000 C 
ATOM     15  O   UNL     1       0.333  11.025  19.700  0.00  0.00    +0.000 OA
ATOM     16  N   UNL     1       0.371   9.834  17.746  0.00  0.00    +0.000 N 
ATOM     17  H   UNL     1      -0.145   9.514  16.938  0.00  0.00    +0.000 HD
BRANCH  14  19
ATOM     18  C   UNL     1      -2.215  10.076  17.219  0.00  0.00    +0.000 C 
ATOM     19  C   UNL     1      -1.751  10.733  18.510  0.00  0.00    +0.000 C 
ENDBRANCH  14  19
ENDBRANCH  13  16
ENDBRANCH  10  13
ENDBRANCH   1  12
BRANCH   7  20
ATOM     20  C   UNL     1       1.999   2.706  19.459  0.00  0.00    +0.000 C 
ATOM     21  C   UNL     1       1.038   3.648  20.164  0.00  0.00    +0.000 C 
ENDBRANCH   7  20
TORSDOF 5
ENDMDL
