MODEL 1
REMARK VINA RESULT:      -8.7      0.000      0.000
REMARK  Name = 
REMARK  1 active torsions:
REMARK  status: ('A' for Active; 'I' for Inactive)
REMARK    1  A    between atoms: C_7  and  C_8
REMARK                            x       y       z     vdW  Elec       q    Type
REMARK                         _______ _______ _______ _____ _____    ______ ____
ROOT
ATOM      1  C   UNL     1       3.924   5.446  18.826  0.00  0.00    +0.000 C 
ATOM      2  C   UNL     1       3.130   6.785  18.709  0.00  0.00    +0.000 A 
ATOM      3  C   UNL     1       3.356   7.737  17.692  0.00  0.00    +0.000 A 
ATOM      4  C   UNL     1       2.594   8.903  17.580  0.00  0.00    +0.000 A 
ATOM      5  C   UNL     1       1.603   9.178  18.508  0.00  0.00    +0.000 A 
ATOM      6  C   UNL     1       1.409   8.303  19.572  0.00  0.00    +0.000 A 
ATOM      7  C   UNL     1       2.180   7.130  19.694  0.00  0.00    +0.000 A 
ATOM      8  C   UNL     1       1.991   6.247  20.890  0.00  0.00    +0.000 C 
ATOM      9  N   UNL     1       1.309   5.037  20.520  0.00  0.00    +0.000 N 
ATOM     10  C   UNL     1       1.842   4.070  19.679  0.00  0.00    +0.000 A 
ATOM     11  C   UNL     1       1.120   2.851  19.664  0.00  0.00    +0.000 A 
ATOM     12  C   UNL     1       1.591   1.707  19.026  0.00  0.00    +0.000 A 
ATOM     13  C   UNL     1       2.826   1.742  18.416  0.00  0.00    +0.000 A 
ATOM     14  C   UNL     1       3.554   2.936  18.409  0.00  0.00    +0.000 A 
ATOM     15  C   UNL     1       3.065   4.146  18.977  0.00  0.00    +0.000 A 
ATOM     16  H   UNL     1       0.299   5.116  20.468  0.00  0.00    +0.000 HD
ENDROOT
BRANCH   1  23
ATOM     17 CL   UNL     1       7.037   5.583  19.537  0.00  0.00    +0.000 Cl
ATOM     18  C   UNL     1       6.375   5.369  17.956  0.00  0.00    +0.000 A 
ATOM     19  C   UNL     1       7.289   5.227  16.902  0.00  0.00    +0.000 A 
ATOM     20  C   UNL     1       6.843   5.026  15.596  0.00  0.00    +0.000 A 
ATOM     21  C   UNL     1       5.482   4.937  15.335  0.00  0.00    +0.000 A 
ATOM     22  C   UNL     1       4.569   5.052  16.382  0.00  0.00    +0.000 A 
ATOM     23  C   UNL     1       4.993   5.305  17.711  0.00  0.00    +0.000 A 
ENDBRANCH   1  23
TORSDOF 1
ENDMDL
MODEL 2
REMARK VINA RESULT:      -7.5      1.252      1.648
REMARK  Name = 
REMARK  1 active torsions:
REMARK  status: ('A' for Active; 'I' for Inactive)
REMARK    1  A    between atoms: C_7  and  C_8
REMARK                            x       y       z     vdW  Elec       q    Type
REMARK                         _______ _______ _______ _____ _____    ______ ____
ROOT
ATOM      1  C   UNL     1       3.979   5.405  19.370  0.00  0.00    +0.000 C 
ATOM      2  C   UNL     1       3.266   6.717  18.914  0.00  0.00    +0.000 A 
ATOM      3  C   UNL     1       3.716   7.513  17.839  0.00  0.00    +0.000 A 
ATOM      4  C   UNL     1       3.028   8.654  17.418  0.00  0.00    +0.000 A 
ATOM      5  C   UNL     1       1.885   9.062  18.085  0.00  0.00    +0.000 A 
ATOM      6  C   UNL     1       1.459   8.348  19.201  0.00  0.00    +0.000 A 
ATOM      7  C   UNL     1       2.154   7.202  19.634  0.00  0.00    +0.000 A 
ATOM      8  C   UNL     1       1.707   6.500  20.881  0.00  0.00    +0.000 C 
ATOM      9  N   UNL     1       1.072   5.252  20.556  0.00  0.00    +0.000 N 
ATOM     10  C   UNL     1       1.728   4.173  19.979  0.00  0.00    +0.000 A 
ATOM     11  C   UNL     1       0.984   2.967  19.992  0.00  0.00    +0.000 A 
ATOM     12  C   UNL     1       1.534   1.742  19.625  0.00  0.00    +0.000 A 
ATOM     13  C   UNL     1       2.864   1.685  19.272  0.00  0.00    +0.000 A 
ATOM     14  C   UNL     1       3.617   2.862  19.242  0.00  0.00    +0.000 A 
ATOM     15  C   UNL     1       3.066   4.143  19.528  0.00  0.00    +0.000 A 
ATOM     16  H   UNL     1       0.095   5.326  20.296  0.00  0.00    +0.000 HD
ENDROOT
BRANCH   1  23
ATOM     17 CL   UNL     1       3.695   4.229  16.411  0.00  0.00    +0.000 Cl
ATOM     18  C   UNL     1       5.183   4.573  17.219  0.00  0.00    +0.000 A 
ATOM     19  C   UNL     1       6.362   4.327  16.502  0.00  0.00    +0.000 A 
ATOM     20  C   UNL     1       7.608   4.597  17.067  0.00  0.00    +0.000 A 
ATOM     21  C   UNL     1       7.686   5.142  18.342  0.00  0.00    +0.000 A 
ATOM     22  C   UNL     1       6.516   5.412  19.051  0.00  0.00    +0.000 A 
ATOM     23  C   UNL     1       5.239   5.102  18.519  0.00  0.00    +0.000 A 
ENDBRANCH   1  23
TORSDOF 1
ENDMDL
MODEL 3
REMARK VINA RESULT:      -7.3      1.793      4.629
REMARK  Name = 
REMARK  1 active torsions:
REMARK  status: ('A' for Active; 'I' for Inactive)
REMARK    1  A    between atoms: C_7  and  C_8
REMARK                            x       y       z     vdW  Elec       q    Type
REMARK                         _______ _______ _______ _____ _____    ______ ____
ROOT
ATOM      1  C   UNL     1       3.533   5.500  17.511  0.00  0.00    +0.000 C 
ATOM      2  C   UNL     1       5.079   5.533  17.721  0.00  0.00    +0.000 A 
ATOM      3  C   UNL     1       5.744   6.543  18.451  0.00  0.00    +0.000 A 
ATOM      4  C   UNL     1       7.124   6.519  18.669  0.00  0.00    +0.000 A 
ATOM      5  C   UNL     1       7.896   5.502  18.129  0.00  0.00    +0.000 A 
ATOM      6  C   UNL     1       7.285   4.536  17.336  0.00  0.00    +0.000 A 
ATOM      7  C   UNL     1       5.896   4.561  17.106  0.00  0.00    +0.000 A 
ATOM      8  C   UNL     1       5.285   3.544  16.189  0.00  0.00    +0.000 C 
ATOM      9  N   UNL     1       4.533   2.576  16.940  0.00  0.00    +0.000 N 
ATOM     10  C   UNL     1       3.381   2.872  17.657  0.00  0.00    +0.000 A 
ATOM     11  C   UNL     1       2.662   1.732  18.096  0.00  0.00    +0.000 A 
ATOM     12  C   UNL     1       1.398   1.818  18.671  0.00  0.00    +0.000 A 
ATOM     13  C   UNL     1       0.798   3.054  18.787  0.00  0.00    +0.000 A 
ATOM     14  C   UNL     1       1.491   4.194  18.370  0.00  0.00    +0.000 A 
ATOM     15  C   UNL     1       2.819   4.151  17.856  0.00  0.00    +0.000 A 
ATOM     16  H   UNL     1       5.085   1.825  17.340  0.00  0.00    +0.000 HD
ENDROOT
BRANCH   1  23
ATOM     17 CL   UNL     1       2.893   5.488  20.643  0.00  0.00    +0.000 Cl
ATOM     18  C   UNL     1       2.509   6.763  19.543  0.00  0.00    +0.000 A 
ATOM     19  C   UNL     1       1.877   7.893  20.081  0.00  0.00    +0.000 A 
ATOM     20  C   UNL     1       1.551   8.980  19.271  0.00  0.00    +0.000 A 
ATOM     21  C   UNL     1       1.880   8.960  17.922  0.00  0.00    +0.000 A 
ATOM     22  C   UNL     1       2.531   7.850  17.385  0.00  0.00    +0.000 A 
ATOM     23  C   UNL     1       2.829   6.712  18.176  0.00  0.00    +0.000 A 
ENDBRANCH   1  23
TORSDOF 1
ENDMDL
MODEL 4
REMARK VINA RESULT:      -7.3      1.962      5.316
REMARK  Name = 
REMARK  1 active torsions:
REMARK  status: ('A' for Active; 'I' for Inactive)
REMARK    1  A    between atoms: C_7  and  C_8
REMARK                            x       y       z     vdW  Elec       q    Type
REMARK                         _______ _______ _______ _____ _____    ______ ____
ROOT
ATOM      1  C   UNL     1       3.578   5.765  19.197  0.00  0.00    +0.000 C 
ATOM      2  C   UNL     1       2.703   4.482  19.038  0.00  0.00    +0.000 A 
ATOM      3  C   UNL     1       1.340   4.511  18.674  0.00  0.00    +0.000 A 
ATOM      4  C   UNL     1       0.593   3.344  18.486  0.00  0.00    +0.000 A 
ATOM      5  C   UNL     1       1.176   2.105  18.696  0.00  0.00    +0.000 A 
ATOM      6  C   UNL     1       2.495   2.041  19.135  0.00  0.00    +0.000 A 
ATOM      7  C   UNL     1       3.248   3.215  19.334  0.00  0.00    +0.000 A 
ATOM      8  C   UNL     1       4.642   3.110  19.875  0.00  0.00    +0.000 C 
ATOM      9  N   UNL     1       5.604   3.389  18.844  0.00  0.00    +0.000 N 
ATOM     10  C   UNL     1       5.753   4.627  18.233  0.00  0.00    +0.000 A 
ATOM     11  C   UNL     1       6.925   4.749  17.446  0.00  0.00    +0.000 A 
ATOM     12  C   UNL     1       7.340   5.961  16.902  0.00  0.00    +0.000 A 
ATOM     13  C   UNL     1       6.610   7.099  17.167  0.00  0.00    +0.000 A 
ATOM     14  C   UNL     1       5.444   7.002  17.933  0.00  0.00    +0.000 A 
ATOM     15  C   UNL     1       4.944   5.766  18.433  0.00  0.00    +0.000 A 
ATOM     16  H   UNL     1       5.823   2.604  18.241  0.00  0.00    +0.000 HD
ENDROOT
BRANCH   1  23
ATOM     17 CL   UNL     1       1.712   7.008  21.476  0.00  0.00    +0.000 Cl
ATOM     18  C   UNL     1       1.919   7.648  19.885  0.00  0.00    +0.000 A 
ATOM     19  C   UNL     1       1.219   8.823  19.581  0.00  0.00    +0.000 A 
ATOM     20  C   UNL     1       1.344   9.423  18.328  0.00  0.00    +0.000 A 
ATOM     21  C   UNL     1       2.193   8.871  17.378  0.00  0.00    +0.000 A 
ATOM     22  C   UNL     1       2.913   7.716  17.683  0.00  0.00    +0.000 A 
ATOM     23  C   UNL     1       2.766   7.059  18.931  0.00  0.00    +0.000 A 
ENDBRANCH   1  23
TORSDOF 1
ENDMDL
MODEL 5
REMARK VINA RESULT:      -7.0      4.524      7.426
REMARK  Name = 
REMARK  1 active torsions:
REMARK  status: ('A' for Active; 'I' for Inactive)
REMARK    1  A    between atoms: C_7  and  C_8
REMARK                            x       y       z     vdW  Elec       q    Type
REMARK                         _______ _______ _______ _____ _____    ______ ____
ROOT
ATOM      1  C   UNL     1      -0.008  11.023  19.571  0.00  0.00    +0.000 C 
ATOM      2  C   UNL     1       0.770  12.365  19.400  0.00  0.00    +0.000 A 
ATOM      3  C   UNL     1       2.117  12.436  18.985  0.00  0.00    +0.000 A 
ATOM      4  C   UNL     1       2.774  13.654  18.788  0.00  0.00    +0.000 A 
ATOM      5  C   UNL     1       2.115  14.847  19.039  0.00  0.00    +0.000 A 
ATOM      6  C   UNL     1       0.813  14.813  19.528  0.00  0.00    +0.000 A 
ATOM      7  C   UNL     1       0.150  13.587  19.736  0.00  0.00    +0.000 A 
ATOM      8  C   UNL     1      -1.226  13.588  20.330  0.00  0.00    +0.000 C 
ATOM      9  N   UNL     1      -2.205  13.256  19.332  0.00  0.00    +0.000 N 
ATOM     10  C   UNL     1      -2.291  12.019  18.707  0.00  0.00    +0.000 A 
ATOM     11  C   UNL     1      -3.481  11.826  17.963  0.00  0.00    +0.000 A 
ATOM     12  C   UNL     1      -3.832  10.595  17.415  0.00  0.00    +0.000 A 
ATOM     13  C   UNL     1      -3.016   9.508  17.635  0.00  0.00    +0.000 A 
ATOM     14  C   UNL     1      -1.831   9.675  18.359  0.00  0.00    +0.000 A 
ATOM     15  C   UNL     1      -1.399  10.936  18.859  0.00  0.00    +0.000 A 
ATOM     16  H   UNL     1      -2.500  14.033  18.749  0.00  0.00    +0.000 HD
ENDROOT
BRANCH   1  23
ATOM     17 CL   UNL     1       0.572   8.821  21.815  0.00  0.00    +0.000 Cl
ATOM     18  C   UNL     1       1.183   8.796  20.200  0.00  0.00    +0.000 A 
ATOM     19  C   UNL     1       1.989   7.705  19.845  0.00  0.00    +0.000 A 
ATOM     20  C   UNL     1       2.507   7.591  18.555  0.00  0.00    +0.000 A 
ATOM     21  C   UNL     1       2.201   8.551  17.599  0.00  0.00    +0.000 A 
ATOM     22  C   UNL     1       1.379   9.626  17.938  0.00  0.00    +0.000 A 
ATOM     23  C   UNL     1       0.880   9.791  19.255  0.00  0.00    +0.000 A 
ENDBRANCH   1  23
TORSDOF 1
ENDMDL
MODEL 6
REMARK VINA RESULT:      -6.9      4.789      7.674
REMARK  Name = 
REMARK  1 active torsions:
REMARK  status: ('A' for Active; 'I' for Inactive)
REMARK    1  A    between atoms: C_7  and  C_8
REMARK                            x       y       z     vdW  Elec       q    Type
REMARK                         _______ _______ _______ _____ _____    ______ ____
ROOT
ATOM      1  C   UNL     1      -0.781  10.756  19.765  0.00  0.00    +0.000 C 
ATOM      2  C   UNL     1      -0.229  12.144  20.217  0.00  0.00    +0.000 A 
ATOM      3  C   UNL     1       1.147  12.454  20.269  0.00  0.00    +0.000 A 
ATOM      4  C   UNL     1       1.612  13.723  20.627  0.00  0.00    +0.000 A 
ATOM      5  C   UNL     1       0.715  14.716  20.986  0.00  0.00    +0.000 A 
ATOM      6  C   UNL     1      -0.644  14.421  21.025  0.00  0.00    +0.000 A 
ATOM      7  C   UNL     1      -1.116  13.141  20.674  0.00  0.00    +0.000 A 
ATOM      8  C   UNL     1      -2.580  12.839  20.796  0.00  0.00    +0.000 C 
ATOM      9  N   UNL     1      -3.187  12.759  19.496  0.00  0.00    +0.000 N 
ATOM     10  C   UNL     1      -2.890  11.779  18.558  0.00  0.00    +0.000 A 
ATOM     11  C   UNL     1      -3.789  11.731  17.463  0.00  0.00    +0.000 A 
ATOM     12  C   UNL     1      -3.765  10.712  16.517  0.00  0.00    +0.000 A 
ATOM     13  C   UNL     1      -2.861   9.683  16.664  0.00  0.00    +0.000 A 
ATOM     14  C   UNL     1      -1.958   9.712  17.731  0.00  0.00    +0.000 A 
ATOM     15  C   UNL     1      -1.897  10.782  18.668  0.00  0.00    +0.000 A 
ATOM     16  H   UNL     1      -3.447  13.651  19.091  0.00  0.00    +0.000 HD
ENDROOT
BRANCH   1  23
ATOM     17 CL   UNL     1       0.235   8.606  21.901  0.00  0.00    +0.000 Cl
ATOM     18  C   UNL     1       0.858   8.807  20.303  0.00  0.00    +0.000 A 
ATOM     19  C   UNL     1       1.886   7.938  19.911  0.00  0.00    +0.000 A 
ATOM     20  C   UNL     1       2.433   8.014  18.630  0.00  0.00    +0.000 A 
ATOM     21  C   UNL     1       1.938   8.938  17.720  0.00  0.00    +0.000 A 
ATOM     22  C   UNL     1       0.898   9.789  18.095  0.00  0.00    +0.000 A 
ATOM     23  C   UNL     1       0.358   9.766  19.405  0.00  0.00    +0.000 A 
ENDBRANCH   1  23
TORSDOF 1
ENDMDL
MODEL 7
REMARK VINA RESULT:      -6.7      2.212      4.852
REMARK  Name = 
REMARK  1 active torsions:
REMARK  status: ('A' for Active; 'I' for Inactive)
REMARK    1  A    between atoms: C_7  and  C_8
REMARK                            x       y       z     vdW  Elec       q    Type
REMARK                         _______ _______ _______ _____ _____    ______ ____
ROOT
ATOM      1  C   UNL     1       2.251   5.913  18.900  0.00  0.00    +0.000 C 
ATOM      2  C   UNL     1       1.789   7.220  19.619  0.00  0.00    +0.000 A 
ATOM      3  C   UNL     1       1.259   7.241  20.927  0.00  0.00    +0.000 A 
ATOM      4  C   UNL     1       0.902   8.432  21.567  0.00  0.00    +0.000 A 
ATOM      5  C   UNL     1       1.026   9.641  20.903  0.00  0.00    +0.000 A 
ATOM      6  C   UNL     1       1.467   9.649  19.584  0.00  0.00    +0.000 A 
ATOM      7  C   UNL     1       1.819   8.451  18.932  0.00  0.00    +0.000 A 
ATOM      8  C   UNL     1       2.222   8.492  17.489  0.00  0.00    +0.000 C 
ATOM      9  N   UNL     1       3.637   8.273  17.355  0.00  0.00    +0.000 N 
ATOM     10  C   UNL     1       4.273   7.081  17.675  0.00  0.00    +0.000 A 
ATOM     11  C   UNL     1       5.612   6.997  17.219  0.00  0.00    +0.000 A 
ATOM     12  C   UNL     1       6.355   5.822  17.285  0.00  0.00    +0.000 A 
ATOM     13  C   UNL     1       5.759   4.681  17.776  0.00  0.00    +0.000 A 
ATOM     14  C   UNL     1       4.442   4.740  18.241  0.00  0.00    +0.000 A 
ATOM     15  C   UNL     1       3.683   5.944  18.268  0.00  0.00    +0.000 A 
ATOM     16  H   UNL     1       4.211   9.097  17.496  0.00  0.00    +0.000 HD
ENDROOT
BRANCH   1  23
ATOM     17 CL   UNL     1       0.995   3.250  17.656  0.00  0.00    +0.000 Cl
ATOM     18  C   UNL     1       1.479   3.461  19.301  0.00  0.00    +0.000 A 
ATOM     19  C   UNL     1       1.319   2.359  20.153  0.00  0.00    +0.000 A 
ATOM     20  C   UNL     1       1.705   2.432  21.491  0.00  0.00    +0.000 A 
ATOM     21  C   UNL     1       2.281   3.596  21.983  0.00  0.00    +0.000 A 
ATOM     22  C   UNL     1       2.466   4.687  21.135  0.00  0.00    +0.000 A 
ATOM     23  C   UNL     1       2.038   4.656  19.783  0.00  0.00    +0.000 A 
ENDBRANCH   1  23
TORSDOF 1
ENDMDL
MODEL 8
REMARK VINA RESULT:      -6.7      6.456      9.794
REMARK  Name = 
REMARK  1 active torsions:
REMARK  status: ('A' for Active; 'I' for Inactive)
REMARK    1  A    between atoms: C_7  and  C_8
REMARK                            x       y       z     vdW  Elec       q    Type
REMARK                         _______ _______ _______ _____ _____    ______ ____
ROOT
ATOM      1  C   UNL     1      -0.733  11.583  20.213  0.00  0.00    +0.000 C 
ATOM      2  C   UNL     1      -1.600  11.087  19.014  0.00  0.00    +0.000 A 
ATOM      3  C   UNL     1      -2.978  11.362  18.885  0.00  0.00    +0.000 A 
ATOM      4  C   UNL     1      -3.720  10.951  17.774  0.00  0.00    +0.000 A 
ATOM      5  C   UNL     1      -3.115  10.213  16.769  0.00  0.00    +0.000 A 
ATOM      6  C   UNL     1      -1.779   9.853  16.903  0.00  0.00    +0.000 A 
ATOM      7  C   UNL     1      -1.029  10.258  18.025  0.00  0.00    +0.000 A 
ATOM      8  C   UNL     1       0.388   9.792  18.169  0.00  0.00    +0.000 C 
ATOM      9  N   UNL     1       1.301  10.875  17.925  0.00  0.00    +0.000 N 
ATOM     10  C   UNL     1       1.410  11.999  18.733  0.00  0.00    +0.000 A 
ATOM     11  C   UNL     1       2.545  12.802  18.461  0.00  0.00    +0.000 A 
ATOM     12  C   UNL     1       2.923  13.866  19.274  0.00  0.00    +0.000 A 
ATOM     13  C   UNL     1       2.193  14.131  20.412  0.00  0.00    +0.000 A 
ATOM     14  C   UNL     1       1.063  13.358  20.697  0.00  0.00    +0.000 A 
ATOM     15  C   UNL     1       0.599  12.318  19.843  0.00  0.00    +0.000 A 
ATOM     16  H   UNL     1       1.501  11.051  16.946  0.00  0.00    +0.000 HD
ENDROOT
BRANCH   1  23
ATOM     17 CL   UNL     1      -1.114  10.497  23.195  0.00  0.00    +0.000 Cl
ATOM     18  C   UNL     1      -1.784  11.958  22.563  0.00  0.00    +0.000 A 
ATOM     19  C   UNL     1      -2.546  12.737  23.446  0.00  0.00    +0.000 A 
ATOM     20  C   UNL     1      -3.107  13.944  23.028  0.00  0.00    +0.000 A 
ATOM     21  C   UNL     1      -2.887  14.397  21.734  0.00  0.00    +0.000 A 
ATOM     22  C   UNL     1      -2.109  13.640  20.859  0.00  0.00    +0.000 A 
ATOM     23  C   UNL     1      -1.569  12.387  21.243  0.00  0.00    +0.000 A 
ENDBRANCH   1  23
TORSDOF 1
ENDMDL
MODEL 9
REMARK VINA RESULT:      -6.6      6.648     10.593
REMARK  Name = 
REMARK  1 active torsions:
REMARK  status: ('A' for Active; 'I' for Inactive)
REMARK    1  A    between atoms: C_7  and  C_8
REMARK                            x       y       z     vdW  Elec       q    Type
REMARK                         _______ _______ _______ _____ _____    ______ ____
ROOT
ATOM      1  C   UNL     1      -1.716  12.427  21.197  0.00  0.00    +0.000 C 
ATOM      2  C   UNL     1      -0.823  11.172  21.448  0.00  0.00    +0.000 A 
ATOM      3  C   UNL     1      -0.584  10.631  22.730  0.00  0.00    +0.000 A 
ATOM      4  C   UNL     1       0.177   9.475  22.922  0.00  0.00    +0.000 A 
ATOM      5  C   UNL     1       0.760   8.839  21.837  0.00  0.00    +0.000 A 
ATOM      6  C   UNL     1       0.614   9.391  20.569  0.00  0.00    +0.000 A 
ATOM      7  C   UNL     1      -0.145  10.561  20.372  0.00  0.00    +0.000 A 
ATOM      8  C   UNL     1      -0.221  11.165  19.002  0.00  0.00    +0.000 C 
ATOM      9  N   UNL     1      -1.522  10.950  18.429  0.00  0.00    +0.000 N 
ATOM     10  C   UNL     1      -2.693  11.508  18.926  0.00  0.00    +0.000 A 
ATOM     11  C   UNL     1      -3.808  11.384  18.061  0.00  0.00    +0.000 A 
ATOM     12  C   UNL     1      -5.018  12.030  18.298  0.00  0.00    +0.000 A 
ATOM     13  C   UNL     1      -5.131  12.856  19.395  0.00  0.00    +0.000 A 
ATOM     14  C   UNL     1      -4.048  12.988  20.269  0.00  0.00    +0.000 A 
ATOM     15  C   UNL     1      -2.826  12.276  20.103  0.00  0.00    +0.000 A 
ATOM     16  H   UNL     1      -1.651  10.044  17.993  0.00  0.00    +0.000 HD
ENDROOT
BRANCH   1  23
ATOM     17 CL   UNL     1      -0.486  15.100  22.446  0.00  0.00    +0.000 Cl
ATOM     18  C   UNL     1      -1.778  14.175  23.123  0.00  0.00    +0.000 A 
ATOM     19  C   UNL     1      -2.341  14.653  24.315  0.00  0.00    +0.000 A 
ATOM     20  C   UNL     1      -3.404  13.982  24.920  0.00  0.00    +0.000 A 
ATOM     21  C   UNL     1      -3.932  12.845  24.325  0.00  0.00    +0.000 A 
ATOM     22  C   UNL     1      -3.394  12.378  23.126  0.00  0.00    +0.000 A 
ATOM     23  C   UNL     1      -2.282  13.012  22.517  0.00  0.00    +0.000 A 
ENDBRANCH   1  23
TORSDOF 1
ENDMDL
