MODEL 1
REMARK VINA RESULT:      -7.7      0.000      0.000
REMARK  Name = 
REMARK  8 active torsions:
REMARK  status: ('A' for Active; 'I' for Inactive)
REMARK    1  A    between atoms: C_2  and  C_3
REMARK    2  A    between atoms: C_2  and  C_21
REMARK    3  A    between atoms: C_3  and  C_4
REMARK    4  A    between atoms: C_4  and  C_5
REMARK    5  A    between atoms: C_5  and  N_6
REMARK    6  A    between atoms: C_9  and  C_10
REMARK    7  A    between atoms: C_9  and  C_12
REMARK    8  A    between atoms: C_10  and  O_11
REMARK                            x       y       z     vdW  Elec       q    Type
REMARK                         _______ _______ _______ _____ _____    ______ ____
ROOT
ATOM      1  N   UNL     1       7.612   6.850  17.583  0.00  0.00    +0.000 NA
ATOM      2  C   UNL     1       7.655   5.488  18.125  0.00  0.00    +0.000 C 
ATOM      3  C   UNL     1       7.138   4.444  17.151  0.00  0.00    +0.000 C 
ATOM      4  C   UNL     1       5.717   4.754  16.621  0.00  0.00    +0.000 C 
ATOM      5  C   UNL     1       5.778   6.203  16.048  0.00  0.00    +0.000 C 
ATOM      6  C   UNL     1       6.305   7.231  17.050  0.00  0.00    +0.000 C 
ENDROOT
BRANCH   4   7
ATOM      7  C   UNL     1       4.611   4.579  17.695  0.00  0.00    +0.000 A 
ATOM      8  C   UNL     1       4.752   3.672  18.765  0.00  0.00    +0.000 A 
ATOM      9  C   UNL     1       3.752   3.501  19.729  0.00  0.00    +0.000 A 
ATOM     10  C   UNL     1       2.584   4.252  19.660  0.00  0.00    +0.000 A 
ATOM     11 CL   UNL     1       1.355   4.042  20.843  0.00  0.00    +0.000 Cl
ATOM     12  C   UNL     1       2.419   5.174  18.637  0.00  0.00    +0.000 A 
ATOM     13  C   UNL     1       3.423   5.341  17.672  0.00  0.00    +0.000 A 
ENDBRANCH   4   7
BRANCH   1  14
ATOM     14  C   UNL     1       8.068   7.827  18.589  0.00  0.00    +0.000 C 
BRANCH  14  15
ATOM     15  C   UNL     1       8.342   9.191  17.953  0.00  0.00    +0.000 C 
BRANCH  15  16
ATOM     16  C   UNL     1       9.145  10.071  18.909  0.00  0.00    +0.000 C 
BRANCH  16  18
ATOM     17  O   UNL     1      10.696  11.322  17.562  0.00  0.00    +0.000 OA
ATOM     18  C   UNL     1       9.664  11.313  18.229  0.00  0.00    +0.000 C 
BRANCH  18  19
ATOM     19  C   UNL     1       8.874  12.567  18.379  0.00  0.00    +0.000 A 
ATOM     20  C   UNL     1       7.903  12.847  17.406  0.00  0.00    +0.000 A 
ATOM     21  C   UNL     1       7.141  14.017  17.496  0.00  0.00    +0.000 A 
ATOM     22  C   UNL     1       7.354  14.893  18.554  0.00  0.00    +0.000 A 
ATOM     23  F   UNL     1       6.624  16.009  18.641  0.00  0.00    +0.000 F 
ATOM     24  C   UNL     1       8.313  14.623  19.527  0.00  0.00    +0.000 A 
ATOM     25  C   UNL     1       9.073  13.461  19.434  0.00  0.00    +0.000 A 
ENDBRANCH  18  19
ENDBRANCH  16  18
ENDBRANCH  15  16
ENDBRANCH  14  15
ENDBRANCH   1  14
BRANCH   4  26
ATOM     26  C   UNL     1       5.444   3.801  15.421  0.00  0.00    +0.000 C 
BRANCH  26  27
ATOM     27  O   UNL     1       6.431   3.893  14.396  0.00  0.00    +0.000 OA
ATOM     28  H   UNL     1       6.312   4.743  13.939  0.00  0.00    +0.000 HD
ENDBRANCH  26  27
ENDBRANCH   4  26
TORSDOF 8
ENDMDL
MODEL 2
REMARK VINA RESULT:      -7.7      5.798      7.161
REMARK  Name = 
REMARK  8 active torsions:
REMARK  status: ('A' for Active; 'I' for Inactive)
REMARK    1  A    between atoms: C_2  and  C_3
REMARK    2  A    between atoms: C_2  and  C_21
REMARK    3  A    between atoms: C_3  and  C_4
REMARK    4  A    between atoms: C_4  and  C_5
REMARK    5  A    between atoms: C_5  and  N_6
REMARK    6  A    between atoms: C_9  and  C_10
REMARK    7  A    between atoms: C_9  and  C_12
REMARK    8  A    between atoms: C_10  and  O_11
REMARK                            x       y       z     vdW  Elec       q    Type
REMARK                         _______ _______ _______ _____ _____    ______ ____
ROOT
ATOM      1  N   UNL     1       2.577   5.914  19.211  0.00  0.00    +0.000 NA
ATOM      2  C   UNL     1       2.162   5.471  17.876  0.00  0.00    +0.000 C 
ATOM      3  C   UNL     1       2.337   3.977  17.665  0.00  0.00    +0.000 C 
ATOM      4  C   UNL     1       3.773   3.483  17.959  0.00  0.00    +0.000 C 
ATOM      5  C   UNL     1       4.113   3.979  19.398  0.00  0.00    +0.000 C 
ATOM      6  C   UNL     1       3.925   5.485  19.582  0.00  0.00    +0.000 C 
ENDROOT
BRANCH   4   7
ATOM      7  C   UNL     1       4.810   3.948  16.904  0.00  0.00    +0.000 A 
ATOM      8  C   UNL     1       4.485   4.039  15.534  0.00  0.00    +0.000 A 
ATOM      9  C   UNL     1       5.420   4.446  14.576  0.00  0.00    +0.000 A 
ATOM     10  C   UNL     1       6.709   4.794  14.966  0.00  0.00    +0.000 A 
ATOM     11 CL   UNL     1       7.859   5.293  13.790  0.00  0.00    +0.000 Cl
ATOM     12  C   UNL     1       7.060   4.743  16.307  0.00  0.00    +0.000 A 
ATOM     13  C   UNL     1       6.120   4.333  17.263  0.00  0.00    +0.000 A 
ENDBRANCH   4   7
BRANCH   1  14
ATOM     14  C   UNL     1       2.444   7.377  19.341  0.00  0.00    +0.000 C 
BRANCH  14  15
ATOM     15  C   UNL     1       2.101   8.024  17.998  0.00  0.00    +0.000 C 
BRANCH  15  16
ATOM     16  C   UNL     1       1.822   9.514  18.183  0.00  0.00    +0.000 C 
BRANCH  16  18
ATOM     17  O   UNL     1      -0.489   9.655  17.530  0.00  0.00    +0.000 OA
ATOM     18  C   UNL     1       0.357   9.788  18.412  0.00  0.00    +0.000 C 
BRANCH  18  19
ATOM     19  C   UNL     1      -0.062  10.228  19.772  0.00  0.00    +0.000 A 
ATOM     20  C   UNL     1      -0.754  11.443  19.881  0.00  0.00    +0.000 A 
ATOM     21  C   UNL     1      -1.161  11.906  21.138  0.00  0.00    +0.000 A 
ATOM     22  C   UNL     1      -0.874  11.152  22.270  0.00  0.00    +0.000 A 
ATOM     23  F   UNL     1      -1.265  11.592  23.469  0.00  0.00    +0.000 F 
ATOM     24  C   UNL     1      -0.191   9.943  22.173  0.00  0.00    +0.000 A 
ATOM     25  C   UNL     1       0.217   9.486  20.923  0.00  0.00    +0.000 A 
ENDBRANCH  18  19
ENDBRANCH  16  18
ENDBRANCH  15  16
ENDBRANCH  14  15
ENDBRANCH   1  14
BRANCH   4  26
ATOM     26  C   UNL     1       3.733   1.928  18.012  0.00  0.00    +0.000 C 
BRANCH  26  27
ATOM     27  O   UNL     1       2.453   1.410  18.366  0.00  0.00    +0.000 OA
ATOM     28  H   UNL     1       2.536   0.969  19.229  0.00  0.00    +0.000 HD
ENDBRANCH  26  27
ENDBRANCH   4  26
TORSDOF 8
ENDMDL
MODEL 3
REMARK VINA RESULT:      -7.6      1.554      1.858
REMARK  Name = 
REMARK  8 active torsions:
REMARK  status: ('A' for Active; 'I' for Inactive)
REMARK    1  A    between atoms: C_2  and  C_3
REMARK    2  A    between atoms: C_2  and  C_21
REMARK    3  A    between atoms: C_3  and  C_4
REMARK    4  A    between atoms: C_4  and  C_5
REMARK    5  A    between atoms: C_5  and  N_6
REMARK    6  A    between atoms: C_9  and  C_10
REMARK    7  A    between atoms: C_9  and  C_12
REMARK    8  A    between atoms: C_10  and  O_11
REMARK                            x       y       z     vdW  Elec       q    Type
REMARK                         _______ _______ _______ _____ _____    ______ ____
ROOT
ATOM      1  N   UNL     1       7.623   6.835  17.581  0.00  0.00    +0.000 NA
ATOM      2  C   UNL     1       7.631   5.443  18.042  0.00  0.00    +0.000 C 
ATOM      3  C   UNL     1       7.048   4.476  17.025  0.00  0.00    +0.000 C 
ATOM      4  C   UNL     1       5.626   4.867  16.557  0.00  0.00    +0.000 C 
ATOM      5  C   UNL     1       5.724   6.344  16.067  0.00  0.00    +0.000 C 
ATOM      6  C   UNL     1       6.317   7.292  17.110  0.00  0.00    +0.000 C 
ENDROOT
BRANCH   4   7
ATOM      7  C   UNL     1       4.544   4.669  17.651  0.00  0.00    +0.000 A 
ATOM      8  C   UNL     1       4.678   3.691  18.659  0.00  0.00    +0.000 A 
ATOM      9  C   UNL     1       3.700   3.499  19.640  0.00  0.00    +0.000 A 
ATOM     10  C   UNL     1       2.562   4.299  19.654  0.00  0.00    +0.000 A 
ATOM     11 CL   UNL     1       1.359   4.064  20.860  0.00  0.00    +0.000 Cl
ATOM     12  C   UNL     1       2.406   5.290  18.696  0.00  0.00    +0.000 A 
ATOM     13  C   UNL     1       3.388   5.477  17.713  0.00  0.00    +0.000 A 
ENDBRANCH   4   7
BRANCH   1  14
ATOM     14  C   UNL     1       8.143   7.735  18.628  0.00  0.00    +0.000 C 
BRANCH  14  15
ATOM     15  C   UNL     1       8.291   9.165  18.106  0.00  0.00    +0.000 C 
BRANCH  15  16
ATOM     16  C   UNL     1       9.590   9.784  18.616  0.00  0.00    +0.000 C 
BRANCH  16  18
ATOM     17  O   UNL     1       8.769  11.297  20.296  0.00  0.00    +0.000 OA
ATOM     18  C   UNL     1       9.363  11.142  19.231  0.00  0.00    +0.000 C 
BRANCH  18  19
ATOM     19  C   UNL     1       9.895  12.330  18.506  0.00  0.00    +0.000 A 
ATOM     20  C   UNL     1       9.382  13.589  18.850  0.00  0.00    +0.000 A 
ATOM     21  C   UNL     1       9.842  14.735  18.193  0.00  0.00    +0.000 A 
ATOM     22  C   UNL     1      10.809  14.613  17.201  0.00  0.00    +0.000 A 
ATOM     23  F   UNL     1      11.250  15.708  16.575  0.00  0.00    +0.000 F 
ATOM     24  C   UNL     1      11.328  13.368  16.853  0.00  0.00    +0.000 A 
ATOM     25  C   UNL     1      10.866  12.229  17.506  0.00  0.00    +0.000 A 
ENDBRANCH  18  19
ENDBRANCH  16  18
ENDBRANCH  15  16
ENDBRANCH  14  15
ENDBRANCH   1  14
BRANCH   4  26
ATOM     26  C   UNL     1       5.285   3.997  15.313  0.00  0.00    +0.000 C 
BRANCH  26  27
ATOM     27  O   UNL     1       6.436   3.606  14.568  0.00  0.00    +0.000 OA
ATOM     28  H   UNL     1       6.689   2.711  14.854  0.00  0.00    +0.000 HD
ENDBRANCH  26  27
ENDBRANCH   4  26
TORSDOF 8
ENDMDL
MODEL 4
REMARK VINA RESULT:      -7.6      0.809      1.543
REMARK  Name = 
REMARK  8 active torsions:
REMARK  status: ('A' for Active; 'I' for Inactive)
REMARK    1  A    between atoms: C_2  and  C_3
REMARK    2  A    between atoms: C_2  and  C_21
REMARK    3  A    between atoms: C_3  and  C_4
REMARK    4  A    between atoms: C_4  and  C_5
REMARK    5  A    between atoms: C_5  and  N_6
REMARK    6  A    between atoms: C_9  and  C_10
REMARK    7  A    between atoms: C_9  and  C_12
REMARK    8  A    between atoms: C_10  and  O_11
REMARK                            x       y       z     vdW  Elec       q    Type
REMARK                         _______ _______ _______ _____ _____    ______ ____
ROOT
ATOM      1  N   UNL     1       7.652   6.677  17.492  0.00  0.00    +0.000 NA
ATOM      2  C   UNL     1       7.598   5.280  17.937  0.00  0.00    +0.000 C 
ATOM      3  C   UNL     1       6.978   4.352  16.906  0.00  0.00    +0.000 C 
ATOM      4  C   UNL     1       5.576   4.809  16.439  0.00  0.00    +0.000 C 
ATOM      5  C   UNL     1       5.739   6.286  15.967  0.00  0.00    +0.000 C 
ATOM      6  C   UNL     1       6.368   7.195  17.023  0.00  0.00    +0.000 C 
ENDROOT
BRANCH   4   7
ATOM      7  C   UNL     1       4.483   4.644  17.528  0.00  0.00    +0.000 A 
ATOM      8  C   UNL     1       3.427   5.569  17.664  0.00  0.00    +0.000 A 
ATOM      9  C   UNL     1       2.445   5.433  18.651  0.00  0.00    +0.000 A 
ATOM     10  C   UNL     1       2.481   4.350  19.523  0.00  0.00    +0.000 A 
ATOM     11 CL   UNL     1       1.276   4.182  20.738  0.00  0.00    +0.000 Cl
ATOM     12  C   UNL     1       3.489   3.404  19.404  0.00  0.00    +0.000 A 
ATOM     13  C   UNL     1       4.472   3.546  18.414  0.00  0.00    +0.000 A 
ENDBRANCH   4   7
BRANCH   1  14
ATOM     14  C   UNL     1       8.207   7.541  18.551  0.00  0.00    +0.000 C 
BRANCH  14  15
ATOM     15  C   UNL     1       8.336   8.988  18.074  0.00  0.00    +0.000 C 
BRANCH  15  16
ATOM     16  C   UNL     1       9.105   9.818  19.100  0.00  0.00    +0.000 C 
BRANCH  16  18
ATOM     17  O   UNL     1      10.437  11.091  17.553  0.00  0.00    +0.000 OA
ATOM     18  C   UNL     1       9.653  11.088  18.500  0.00  0.00    +0.000 C 
BRANCH  18  19
ATOM     19  C   UNL     1       9.205  12.382  19.087  0.00  0.00    +0.000 A 
ATOM     20  C   UNL     1       9.200  12.498  20.485  0.00  0.00    +0.000 A 
ATOM     21  C   UNL     1       8.779  13.689  21.087  0.00  0.00    +0.000 A 
ATOM     22  C   UNL     1       8.370  14.751  20.288  0.00  0.00    +0.000 A 
ATOM     23  F   UNL     1       7.970  15.889  20.863  0.00  0.00    +0.000 F 
ATOM     24  C   UNL     1       8.374  14.649  18.900  0.00  0.00    +0.000 A 
ATOM     25  C   UNL     1       8.789  13.461  18.303  0.00  0.00    +0.000 A 
ENDBRANCH  18  19
ENDBRANCH  16  18
ENDBRANCH  15  16
ENDBRANCH  14  15
ENDBRANCH   1  14
BRANCH   4  26
ATOM     26  C   UNL     1       5.202   3.969  15.183  0.00  0.00    +0.000 C 
BRANCH  26  27
ATOM     27  O   UNL     1       6.337   3.555  14.426  0.00  0.00    +0.000 OA
ATOM     28  H   UNL     1       6.094   3.579  13.484  0.00  0.00    +0.000 HD
ENDBRANCH  26  27
ENDBRANCH   4  26
TORSDOF 8
ENDMDL
MODEL 5
REMARK VINA RESULT:      -7.6      2.522      3.279
REMARK  Name = 
REMARK  8 active torsions:
REMARK  status: ('A' for Active; 'I' for Inactive)
REMARK    1  A    between atoms: C_2  and  C_3
REMARK    2  A    between atoms: C_2  and  C_21
REMARK    3  A    between atoms: C_3  and  C_4
REMARK    4  A    between atoms: C_4  and  C_5
REMARK    5  A    between atoms: C_5  and  N_6
REMARK    6  A    between atoms: C_9  and  C_10
REMARK    7  A    between atoms: C_9  and  C_12
REMARK    8  A    between atoms: C_10  and  O_11
REMARK                            x       y       z     vdW  Elec       q    Type
REMARK                         _______ _______ _______ _____ _____    ______ ____
ROOT
ATOM      1  N   UNL     1       6.518   5.882  17.292  0.00  0.00    +0.000 NA
ATOM      2  C   UNL     1       6.208   5.938  18.724  0.00  0.00    +0.000 C 
ATOM      3  C   UNL     1       5.117   4.964  19.134  0.00  0.00    +0.000 C 
ATOM      4  C   UNL     1       3.818   5.120  18.309  0.00  0.00    +0.000 C 
ATOM      5  C   UNL     1       4.244   5.025  16.812  0.00  0.00    +0.000 C 
ATOM      6  C   UNL     1       5.345   6.014  16.430  0.00  0.00    +0.000 C 
ENDROOT
BRANCH   4   7
ATOM      7  C   UNL     1       3.040   6.424  18.629  0.00  0.00    +0.000 A 
ATOM      8  C   UNL     1       2.440   6.640  19.887  0.00  0.00    +0.000 A 
ATOM      9  C   UNL     1       1.728   7.808  20.178  0.00  0.00    +0.000 A 
ATOM     10  C   UNL     1       1.611   8.809  19.219  0.00  0.00    +0.000 A 
ATOM     11 CL   UNL     1       0.736  10.245  19.575  0.00  0.00    +0.000 Cl
ATOM     12  C   UNL     1       2.211   8.646  17.979  0.00  0.00    +0.000 A 
ATOM     13  C   UNL     1       2.922   7.472  17.691  0.00  0.00    +0.000 A 
ENDBRANCH   4   7
BRANCH   1  14
ATOM     14  C   UNL     1       7.539   6.887  16.939  0.00  0.00    +0.000 C 
BRANCH  14  15
ATOM     15  C   UNL     1       7.835   7.814  18.119  0.00  0.00    +0.000 C 
BRANCH  15  16
ATOM     16  C   UNL     1       8.114   9.231  17.623  0.00  0.00    +0.000 C 
BRANCH  16  18
ATOM     17  O   UNL     1       9.188   9.613  19.741  0.00  0.00    +0.000 OA
ATOM     18  C   UNL     1       8.939  10.020  18.608  0.00  0.00    +0.000 C 
BRANCH  18  19
ATOM     19  C   UNL     1       9.473  11.339  18.167  0.00  0.00    +0.000 A 
ATOM     20  C   UNL     1      10.804  11.391  17.727  0.00  0.00    +0.000 A 
ATOM     21  C   UNL     1      11.356  12.608  17.311  0.00  0.00    +0.000 A 
ATOM     22  C   UNL     1      10.575  13.758  17.338  0.00  0.00    +0.000 A 
ATOM     23  F   UNL     1      11.101  14.919  16.939  0.00  0.00    +0.000 F 
ATOM     24  C   UNL     1       9.251  13.717  17.770  0.00  0.00    +0.000 A 
ATOM     25  C   UNL     1       8.706  12.506  18.187  0.00  0.00    +0.000 A 
ENDBRANCH  18  19
ENDBRANCH  16  18
ENDBRANCH  15  16
ENDBRANCH  14  15
ENDBRANCH   1  14
BRANCH   4  26
ATOM     26  C   UNL     1       2.920   3.884  18.606  0.00  0.00    +0.000 C 
BRANCH  26  27
ATOM     27  O   UNL     1       2.832   2.978  17.509  0.00  0.00    +0.000 OA
ATOM     28  H   UNL     1       1.998   3.155  17.040  0.00  0.00    +0.000 HD
ENDBRANCH  26  27
ENDBRANCH   4  26
TORSDOF 8
ENDMDL
MODEL 6
REMARK VINA RESULT:      -7.6      0.618      1.111
REMARK  Name = 
REMARK  8 active torsions:
REMARK  status: ('A' for Active; 'I' for Inactive)
REMARK    1  A    between atoms: C_2  and  C_3
REMARK    2  A    between atoms: C_2  and  C_21
REMARK    3  A    between atoms: C_3  and  C_4
REMARK    4  A    between atoms: C_4  and  C_5
REMARK    5  A    between atoms: C_5  and  N_6
REMARK    6  A    between atoms: C_9  and  C_10
REMARK    7  A    between atoms: C_9  and  C_12
REMARK    8  A    between atoms: C_10  and  O_11
REMARK                            x       y       z     vdW  Elec       q    Type
REMARK                         _______ _______ _______ _____ _____    ______ ____
ROOT
ATOM      1  N   UNL     1       7.589   6.803  17.486  0.00  0.00    +0.000 NA
ATOM      2  C   UNL     1       7.628   5.462  18.079  0.00  0.00    +0.000 C 
ATOM      3  C   UNL     1       7.091   4.386  17.150  0.00  0.00    +0.000 C 
ATOM      4  C   UNL     1       5.666   4.688  16.627  0.00  0.00    +0.000 C 
ATOM      5  C   UNL     1       5.730   6.114  15.999  0.00  0.00    +0.000 C 
ATOM      6  C   UNL     1       6.278   7.174  16.955  0.00  0.00    +0.000 C 
ENDROOT
BRANCH   4   7
ATOM      7  C   UNL     1       4.572   4.562  17.720  0.00  0.00    +0.000 A 
ATOM      8  C   UNL     1       3.424   5.381  17.717  0.00  0.00    +0.000 A 
ATOM      9  C   UNL     1       2.440   5.281  18.706  0.00  0.00    +0.000 A 
ATOM     10  C   UNL     1       2.568   4.340  19.722  0.00  0.00    +0.000 A 
ATOM     11 CL   UNL     1       1.359   4.216  20.939  0.00  0.00    +0.000 Cl
ATOM     12  C   UNL     1       3.670   3.498  19.744  0.00  0.00    +0.000 A 
ATOM     13  C   UNL     1       4.654   3.603  18.752  0.00  0.00    +0.000 A 
ENDBRANCH   4   7
BRANCH   1  14
ATOM     14  C   UNL     1       8.065   7.814  18.449  0.00  0.00    +0.000 C 
BRANCH  14  15
ATOM     15  C   UNL     1       8.217   9.184  17.786  0.00  0.00    +0.000 C 
BRANCH  15  16
ATOM     16  C   UNL     1       8.843  10.178  18.760  0.00  0.00    +0.000 C 
BRANCH  16  18
ATOM     17  O   UNL     1      10.770  10.897  17.512  0.00  0.00    +0.000 OA
ATOM     18  C   UNL     1       9.706  11.192  18.052  0.00  0.00    +0.000 C 
BRANCH  18  19
ATOM     19  C   UNL     1       9.227  12.602  18.010  0.00  0.00    +0.000 A 
ATOM     20  C   UNL     1       7.882  12.826  17.680  0.00  0.00    +0.000 A 
ATOM     21  C   UNL     1       7.385  14.132  17.618  0.00  0.00    +0.000 A 
ATOM     22  C   UNL     1       8.233  15.200  17.886  0.00  0.00    +0.000 A 
ATOM     23  F   UNL     1       7.757  16.448  17.829  0.00  0.00    +0.000 F 
ATOM     24  C   UNL     1       9.569  14.990  18.218  0.00  0.00    +0.000 A 
ATOM     25  C   UNL     1      10.062  13.690  18.276  0.00  0.00    +0.000 A 
ENDBRANCH  18  19
ENDBRANCH  16  18
ENDBRANCH  15  16
ENDBRANCH  14  15
ENDBRANCH   1  14
BRANCH   4  26
ATOM     26  C   UNL     1       5.371   3.694  15.467  0.00  0.00    +0.000 C 
BRANCH  26  27
ATOM     27  O   UNL     1       6.380   3.690  14.460  0.00  0.00    +0.000 OA
ATOM     28  H   UNL     1       7.142   3.191  14.800  0.00  0.00    +0.000 HD
ENDBRANCH  26  27
ENDBRANCH   4  26
TORSDOF 8
ENDMDL
MODEL 7
REMARK VINA RESULT:      -7.5      5.780      7.286
REMARK  Name = 
REMARK  8 active torsions:
REMARK  status: ('A' for Active; 'I' for Inactive)
REMARK    1  A    between atoms: C_2  and  C_3
REMARK    2  A    between atoms: C_2  and  C_21
REMARK    3  A    between atoms: C_3  and  C_4
REMARK    4  A    between atoms: C_4  and  C_5
REMARK    5  A    between atoms: C_5  and  N_6
REMARK    6  A    between atoms: C_9  and  C_10
REMARK    7  A    between atoms: C_9  and  C_12
REMARK    8  A    between atoms: C_10  and  O_11
REMARK                            x       y       z     vdW  Elec       q    Type
REMARK                         _______ _______ _______ _____ _____    ______ ____
ROOT
ATOM      1  N   UNL     1       2.587   5.944  19.291  0.00  0.00    +0.000 NA
ATOM      2  C   UNL     1       2.166   5.395  17.997  0.00  0.00    +0.000 C 
ATOM      3  C   UNL     1       2.397   3.898  17.883  0.00  0.00    +0.000 C 
ATOM      4  C   UNL     1       3.857   3.481  18.180  0.00  0.00    +0.000 C 
ATOM      5  C   UNL     1       4.203   4.087  19.575  0.00  0.00    +0.000 C 
ATOM      6  C   UNL     1       3.958   5.594  19.661  0.00  0.00    +0.000 C 
ENDROOT
BRANCH   4   7
ATOM      7  C   UNL     1       4.856   3.914  17.074  0.00  0.00    +0.000 A 
ATOM      8  C   UNL     1       6.188   4.268  17.375  0.00  0.00    +0.000 A 
ATOM      9  C   UNL     1       7.089   4.671  16.383  0.00  0.00    +0.000 A 
ATOM     10  C   UNL     1       6.687   4.713  15.053  0.00  0.00    +0.000 A 
ATOM     11 CL   UNL     1       7.793   5.208  13.834  0.00  0.00    +0.000 Cl
ATOM     12  C   UNL     1       5.392   4.346  14.714  0.00  0.00    +0.000 A 
ATOM     13  C   UNL     1       4.492   3.945  15.711  0.00  0.00    +0.000 A 
ENDBRANCH   4   7
BRANCH   1  14
ATOM     14  C   UNL     1       2.396   7.406  19.325  0.00  0.00    +0.000 C 
BRANCH  14  15
ATOM     15  C   UNL     1       2.189   7.971  17.919  0.00  0.00    +0.000 C 
BRANCH  15  16
ATOM     16  C   UNL     1       1.945   9.477  17.982  0.00  0.00    +0.000 C 
BRANCH  16  18
ATOM     17  O   UNL     1       0.985   9.693  20.177  0.00  0.00    +0.000 OA
ATOM     18  C   UNL     1       0.855   9.830  18.963  0.00  0.00    +0.000 C 
BRANCH  18  19
ATOM     19  C   UNL     1      -0.420  10.373  18.416  0.00  0.00    +0.000 A 
ATOM     20  C   UNL     1      -1.077   9.627  17.428  0.00  0.00    +0.000 A 
ATOM     21  C   UNL     1      -2.273  10.098  16.875  0.00  0.00    +0.000 A 
ATOM     22  C   UNL     1      -2.800  11.308  17.315  0.00  0.00    +0.000 A 
ATOM     23  F   UNL     1      -3.943  11.757  16.789  0.00  0.00    +0.000 F 
ATOM     24  C   UNL     1      -2.157  12.055  18.298  0.00  0.00    +0.000 A 
ATOM     25  C   UNL     1      -0.966  11.586  18.844  0.00  0.00    +0.000 A 
ENDBRANCH  18  19
ENDBRANCH  16  18
ENDBRANCH  15  16
ENDBRANCH  14  15
ENDBRANCH   1  14
BRANCH   4  26
ATOM     26  C   UNL     1       3.882   1.933  18.338  0.00  0.00    +0.000 C 
BRANCH  26  27
ATOM     27  O   UNL     1       4.639   1.496  19.465  0.00  0.00    +0.000 OA
ATOM     28  H   UNL     1       4.862   2.278  19.998  0.00  0.00    +0.000 HD
ENDBRANCH  26  27
ENDBRANCH   4  26
TORSDOF 8
ENDMDL
MODEL 8
REMARK VINA RESULT:      -7.4      1.580      2.098
REMARK  Name = 
REMARK  8 active torsions:
REMARK  status: ('A' for Active; 'I' for Inactive)
REMARK    1  A    between atoms: C_2  and  C_3
REMARK    2  A    between atoms: C_2  and  C_21
REMARK    3  A    between atoms: C_3  and  C_4
REMARK    4  A    between atoms: C_4  and  C_5
REMARK    5  A    between atoms: C_5  and  N_6
REMARK    6  A    between atoms: C_9  and  C_10
REMARK    7  A    between atoms: C_9  and  C_12
REMARK    8  A    between atoms: C_10  and  O_11
REMARK                            x       y       z     vdW  Elec       q    Type
REMARK                         _______ _______ _______ _____ _____    ______ ____
ROOT
ATOM      1  N   UNL     1       7.796   6.861  17.625  0.00  0.00    +0.000 NA
ATOM      2  C   UNL     1       7.754   5.560  18.301  0.00  0.00    +0.000 C 
ATOM      3  C   UNL     1       7.289   4.434  17.394  0.00  0.00    +0.000 C 
ATOM      4  C   UNL     1       5.927   4.719  16.717  0.00  0.00    +0.000 C 
ATOM      5  C   UNL     1       6.078   6.100  16.010  0.00  0.00    +0.000 C 
ATOM      6  C   UNL     1       6.550   7.213  16.947  0.00  0.00    +0.000 C 
ENDROOT
BRANCH   4   7
ATOM      7  C   UNL     1       4.730   4.677  17.703  0.00  0.00    +0.000 A 
ATOM      8  C   UNL     1       3.616   5.527  17.553  0.00  0.00    +0.000 A 
ATOM      9  C   UNL     1       2.539   5.503  18.447  0.00  0.00    +0.000 A 
ATOM     10  C   UNL     1       2.538   4.608  19.511  0.00  0.00    +0.000 A 
ATOM     11 CL   UNL     1       1.216   4.577  20.609  0.00  0.00    +0.000 Cl
ATOM     12  C   UNL     1       3.605   3.736  19.677  0.00  0.00    +0.000 A 
ATOM     13  C   UNL     1       4.682   3.765  18.780  0.00  0.00    +0.000 A 
ENDBRANCH   4   7
BRANCH   1  14
ATOM     14  C   UNL     1       8.196   7.925  18.565  0.00  0.00    +0.000 C 
BRANCH  14  15
ATOM     15  C   UNL     1       8.161   9.299  17.894  0.00  0.00    +0.000 C 
BRANCH  15  16
ATOM     16  C   UNL     1       9.260  10.195  18.460  0.00  0.00    +0.000 C 
BRANCH  16  18
ATOM     17  O   UNL     1       8.279  12.111  17.387  0.00  0.00    +0.000 OA
ATOM     18  C   UNL     1       8.914  11.657  18.336  0.00  0.00    +0.000 C 
BRANCH  18  19
ATOM     19  C   UNL     1       9.364  12.571  19.423  0.00  0.00    +0.000 A 
ATOM     20  C   UNL     1      10.082  13.719  19.057  0.00  0.00    +0.000 A 
ATOM     21  C   UNL     1      10.535  14.604  20.041  0.00  0.00    +0.000 A 
ATOM     22  C   UNL     1      10.266  14.336  21.378  0.00  0.00    +0.000 A 
ATOM     23  F   UNL     1      10.696  15.183  22.318  0.00  0.00    +0.000 F 
ATOM     24  C   UNL     1       9.551  13.202  21.754  0.00  0.00    +0.000 A 
ATOM     25  C   UNL     1       9.104  12.320  20.773  0.00  0.00    +0.000 A 
ENDBRANCH  18  19
ENDBRANCH  16  18
ENDBRANCH  15  16
ENDBRANCH  14  15
ENDBRANCH   1  14
BRANCH   4  26
ATOM     26  C   UNL     1       5.727   3.656  15.598  0.00  0.00    +0.000 C 
BRANCH  26  27
ATOM     27  O   UNL     1       6.329   4.024  14.359  0.00  0.00    +0.000 OA
ATOM     28  H   UNL     1       6.520   4.977  14.390  0.00  0.00    +0.000 HD
ENDBRANCH  26  27
ENDBRANCH   4  26
TORSDOF 8
ENDMDL
MODEL 9
REMARK VINA RESULT:      -7.4      6.126      7.607
REMARK  Name = 
REMARK  8 active torsions:
REMARK  status: ('A' for Active; 'I' for Inactive)
REMARK    1  A    between atoms: C_2  and  C_3
REMARK    2  A    between atoms: C_2  and  C_21
REMARK    3  A    between atoms: C_3  and  C_4
REMARK    4  A    between atoms: C_4  and  C_5
REMARK    5  A    between atoms: C_5  and  N_6
REMARK    6  A    between atoms: C_9  and  C_10
REMARK    7  A    between atoms: C_9  and  C_12
REMARK    8  A    between atoms: C_10  and  O_11
REMARK                            x       y       z     vdW  Elec       q    Type
REMARK                         _______ _______ _______ _____ _____    ______ ____
ROOT
ATOM      1  N   UNL     1       2.491   5.949  19.197  0.00  0.00    +0.000 NA
ATOM      2  C   UNL     1       2.095   5.464  17.870  0.00  0.00    +0.000 C 
ATOM      3  C   UNL     1       2.298   3.968  17.699  0.00  0.00    +0.000 C 
ATOM      4  C   UNL     1       3.740   3.508  18.018  0.00  0.00    +0.000 C 
ATOM      5  C   UNL     1       4.058   4.046  19.446  0.00  0.00    +0.000 C 
ATOM      6  C   UNL     1       3.842   5.553  19.589  0.00  0.00    +0.000 C 
ENDROOT
BRANCH   4   7
ATOM      7  C   UNL     1       4.778   3.964  16.959  0.00  0.00    +0.000 A 
ATOM      8  C   UNL     1       4.430   4.130  15.603  0.00  0.00    +0.000 A 
ATOM      9  C   UNL     1       5.365   4.529  14.642  0.00  0.00    +0.000 A 
ATOM     10  C   UNL     1       6.678   4.794  15.016  0.00  0.00    +0.000 A 
ATOM     11 CL   UNL     1       7.828   5.284  13.836  0.00  0.00    +0.000 Cl
ATOM     12  C   UNL     1       7.053   4.668  16.346  0.00  0.00    +0.000 A 
ATOM     13  C   UNL     1       6.113   4.266  17.305  0.00  0.00    +0.000 A 
ENDBRANCH   4   7
BRANCH   1  14
ATOM     14  C   UNL     1       2.330   7.412  19.288  0.00  0.00    +0.000 C 
BRANCH  14  15
ATOM     15  C   UNL     1       1.630   7.813  20.587  0.00  0.00    +0.000 C 
BRANCH  15  16
ATOM     16  C   UNL     1       0.958   9.176  20.429  0.00  0.00    +0.000 C 
BRANCH  16  18
ATOM     17  O   UNL     1       1.225   9.521  22.795  0.00  0.00    +0.000 OA
ATOM     18  C   UNL     1       0.616   9.792  21.762  0.00  0.00    +0.000 C 
BRANCH  18  19
ATOM     19  C   UNL     1      -0.503  10.775  21.805  0.00  0.00    +0.000 A 
ATOM     20  C   UNL     1      -1.092  11.040  23.050  0.00  0.00    +0.000 A 
ATOM     21  C   UNL     1      -2.153  11.947  23.143  0.00  0.00    +0.000 A 
ATOM     22  C   UNL     1      -2.613  12.581  21.994  0.00  0.00    +0.000 A 
ATOM     23  F   UNL     1      -3.625  13.449  22.083  0.00  0.00    +0.000 F 
ATOM     24  C   UNL     1      -2.034  12.328  20.754  0.00  0.00    +0.000 A 
ATOM     25  C   UNL     1      -0.982  11.422  20.663  0.00  0.00    +0.000 A 
ENDBRANCH  18  19
ENDBRANCH  16  18
ENDBRANCH  15  16
ENDBRANCH  14  15
ENDBRANCH   1  14
BRANCH   4  26
ATOM     26  C   UNL     1       3.727   1.954  18.111  0.00  0.00    +0.000 C 
BRANCH  26  27
ATOM     27  O   UNL     1       2.446   1.421  18.437  0.00  0.00    +0.000 OA
ATOM     28  H   UNL     1       1.848   2.167  18.618  0.00  0.00    +0.000 HD
ENDBRANCH  26  27
ENDBRANCH   4  26
TORSDOF 8
ENDMDL
