MODEL 1
REMARK VINA RESULT:      -7.0      0.000      0.000
REMARK  Name = 
REMARK  5 active torsions:
REMARK  status: ('A' for Active; 'I' for Inactive)
REMARK    1  A    between atoms: C_1  and  O_2
REMARK    2  A    between atoms: O_2  and  C_3
REMARK    3  A    between atoms: C_9  and  C_10
REMARK    4  A    between atoms: C_10  and  C_11
REMARK    5  A    between atoms: C_11  and  C_12
REMARK                            x       y       z     vdW  Elec       q    Type
REMARK                         _______ _______ _______ _____ _____    ______ ____
ROOT
ATOM      1  C   UNL     1       6.502   5.189  16.480  0.00  0.00    +0.000 A 
ATOM      2  C   UNL     1       7.498   5.257  15.495  0.00  0.00    +0.000 A 
ATOM      3  C   UNL     1       7.284   4.715  14.226  0.00  0.00    +0.000 A 
ATOM      4  C   UNL     1       6.073   4.096  13.939  0.00  0.00    +0.000 A 
ATOM      5 BR   UNL     1       5.792   3.346  12.227  0.00  0.00    +0.000 Br
ATOM      6  C   UNL     1       5.076   4.013  14.909  0.00  0.00    +0.000 A 
ATOM      7  C   UNL     1       5.275   4.555  16.193  0.00  0.00    +0.000 A 
ENDROOT
BRANCH   1   9
ATOM      8  C   UNL     1       7.411   6.885  17.877  0.00  0.00    +0.000 C 
ATOM      9  O   UNL     1       6.670   5.674  17.752  0.00  0.00    +0.000 OA
ENDBRANCH   1   9
BRANCH   7  10
ATOM     10  C   UNL     1       4.174   4.397  17.223  0.00  0.00    +0.000 C 
BRANCH  10  11
ATOM     11  C   UNL     1       3.959   2.953  17.683  0.00  0.00    +0.000 C 
BRANCH  11  12
ATOM     12  C   UNL     1       4.071   2.797  19.191  0.00  0.00    +0.000 C 
ATOM     13  O   UNL     1       5.151   2.842  19.779  0.00  0.00    +0.000 OA
ATOM     14  N   UNL     1       2.877   2.637  19.866  0.00  0.00    +0.000 N 
ATOM     15  C   UNL     1       1.548   2.499  19.300  0.00  0.00    +0.000 C 
ATOM     16  C   UNL     1       0.670   3.193  20.324  0.00  0.00    +0.000 C 
ATOM     17  C   UNL     1       1.328   2.825  21.650  0.00  0.00    +0.000 C 
ATOM     18  C   UNL     1       2.815   2.693  21.318  0.00  0.00    +0.000 C 
ENDBRANCH  11  12
ENDBRANCH  10  11
ENDBRANCH   7  10
TORSDOF 4
ENDMDL
MODEL 2
REMARK VINA RESULT:      -6.8      3.420      6.174
REMARK  Name = 
REMARK  5 active torsions:
REMARK  status: ('A' for Active; 'I' for Inactive)
REMARK    1  A    between atoms: C_1  and  O_2
REMARK    2  A    between atoms: O_2  and  C_3
REMARK    3  A    between atoms: C_9  and  C_10
REMARK    4  A    between atoms: C_10  and  C_11
REMARK    5  A    between atoms: C_11  and  C_12
REMARK                            x       y       z     vdW  Elec       q    Type
REMARK                         _______ _______ _______ _____ _____    ______ ____
ROOT
ATOM      1  C   UNL     1       2.168   5.405  20.075  0.00  0.00    +0.000 A 
ATOM      2  C   UNL     1       1.878   6.558  20.818  0.00  0.00    +0.000 A 
ATOM      3  C   UNL     1       1.799   7.805  20.194  0.00  0.00    +0.000 A 
ATOM      4  C   UNL     1       2.016   7.904  18.825  0.00  0.00    +0.000 A 
ATOM      5 BR   UNL     1       1.927   9.596  17.986  0.00  0.00    +0.000 Br
ATOM      6  C   UNL     1       2.312   6.768  18.074  0.00  0.00    +0.000 A 
ATOM      7  C   UNL     1       2.395   5.503  18.687  0.00  0.00    +0.000 A 
ENDROOT
BRANCH   1   9
ATOM      8  C   UNL     1       1.101   3.379  20.718  0.00  0.00    +0.000 C 
ATOM      9  O   UNL     1       2.291   4.160  20.639  0.00  0.00    +0.000 OA
ENDBRANCH   1   9
BRANCH   7  10
ATOM     10  C   UNL     1       2.764   4.308  17.829  0.00  0.00    +0.000 C 
BRANCH  10  11
ATOM     11  C   UNL     1       4.202   4.342  17.306  0.00  0.00    +0.000 C 
BRANCH  11  12
ATOM     12  C   UNL     1       5.227   4.456  18.423  0.00  0.00    +0.000 C 
ATOM     13  O   UNL     1       5.330   3.611  19.311  0.00  0.00    +0.000 OA
ATOM     14  N   UNL     1       6.061   5.554  18.359  0.00  0.00    +0.000 N 
ATOM     15  C   UNL     1       6.008   6.656  17.416  0.00  0.00    +0.000 C 
ATOM     16  C   UNL     1       7.470   7.017  17.235  0.00  0.00    +0.000 C 
ATOM     17  C   UNL     1       8.053   6.810  18.630  0.00  0.00    +0.000 C 
ATOM     18  C   UNL     1       7.219   5.678  19.230  0.00  0.00    +0.000 C 
ENDBRANCH  11  12
ENDBRANCH  10  11
ENDBRANCH   7  10
TORSDOF 4
ENDMDL
MODEL 3
REMARK VINA RESULT:      -6.7      1.385      1.686
REMARK  Name = 
REMARK  5 active torsions:
REMARK  status: ('A' for Active; 'I' for Inactive)
REMARK    1  A    between atoms: C_1  and  O_2
REMARK    2  A    between atoms: O_2  and  C_3
REMARK    3  A    between atoms: C_9  and  C_10
REMARK    4  A    between atoms: C_10  and  C_11
REMARK    5  A    between atoms: C_11  and  C_12
REMARK                            x       y       z     vdW  Elec       q    Type
REMARK                         _______ _______ _______ _____ _____    ______ ____
ROOT
ATOM      1  C   UNL     1       6.531   5.522  16.344  0.00  0.00    +0.000 A 
ATOM      2  C   UNL     1       7.526   5.442  15.360  0.00  0.00    +0.000 A 
ATOM      3  C   UNL     1       7.289   4.767  14.161  0.00  0.00    +0.000 A 
ATOM      4  C   UNL     1       6.057   4.163  13.944  0.00  0.00    +0.000 A 
ATOM      5 BR   UNL     1       5.745   3.232  12.328  0.00  0.00    +0.000 Br
ATOM      6  C   UNL     1       5.059   4.227  14.915  0.00  0.00    +0.000 A 
ATOM      7  C   UNL     1       5.281   4.904  16.130  0.00  0.00    +0.000 A 
ENDROOT
BRANCH   1   9
ATOM      8  C   UNL     1       7.593   7.268  17.560  0.00  0.00    +0.000 C 
ATOM      9  O   UNL     1       6.718   6.143  17.553  0.00  0.00    +0.000 OA
ENDBRANCH   1   9
BRANCH   7  10
ATOM     10  C   UNL     1       4.176   4.904  17.169  0.00  0.00    +0.000 C 
BRANCH  10  11
ATOM     11  C   UNL     1       3.381   3.597  17.227  0.00  0.00    +0.000 C 
BRANCH  11  12
ATOM     12  C   UNL     1       2.047   3.757  17.937  0.00  0.00    +0.000 C 
ATOM     13  O   UNL     1       1.000   3.981  17.331  0.00  0.00    +0.000 OA
ATOM     14  N   UNL     1       2.077   3.600  19.309  0.00  0.00    +0.000 N 
ATOM     15  C   UNL     1       3.240   3.403  20.155  0.00  0.00    +0.000 C 
ATOM     16  C   UNL     1       2.712   2.496  21.250  0.00  0.00    +0.000 C 
ATOM     17  C   UNL     1       1.289   3.002  21.463  0.00  0.00    +0.000 C 
ATOM     18  C   UNL     1       0.853   3.512  20.088  0.00  0.00    +0.000 C 
ENDBRANCH  11  12
ENDBRANCH  10  11
ENDBRANCH   7  10
TORSDOF 4
ENDMDL
MODEL 4
REMARK VINA RESULT:      -6.7      1.931      2.123
REMARK  Name = 
REMARK  5 active torsions:
REMARK  status: ('A' for Active; 'I' for Inactive)
REMARK    1  A    between atoms: C_1  and  O_2
REMARK    2  A    between atoms: O_2  and  C_3
REMARK    3  A    between atoms: C_9  and  C_10
REMARK    4  A    between atoms: C_10  and  C_11
REMARK    5  A    between atoms: C_11  and  C_12
REMARK                            x       y       z     vdW  Elec       q    Type
REMARK                         _______ _______ _______ _____ _____    ______ ____
ROOT
ATOM      1  C   UNL     1       6.353   5.422  17.652  0.00  0.00    +0.000 A 
ATOM      2  C   UNL     1       7.317   4.586  17.070  0.00  0.00    +0.000 A 
ATOM      3  C   UNL     1       7.164   4.127  15.760  0.00  0.00    +0.000 A 
ATOM      4  C   UNL     1       6.043   4.498  15.029  0.00  0.00    +0.000 A 
ATOM      5 BR   UNL     1       5.828   3.861  13.262  0.00  0.00    +0.000 Br
ATOM      6  C   UNL     1       5.072   5.323  15.595  0.00  0.00    +0.000 A 
ATOM      7  C   UNL     1       5.211   5.794  16.914  0.00  0.00    +0.000 A 
ENDROOT
BRANCH   1   9
ATOM      8  C   UNL     1       7.688   5.700  19.601  0.00  0.00    +0.000 C 
ATOM      9  O   UNL     1       6.435   5.875  18.945  0.00  0.00    +0.000 OA
ENDBRANCH   1   9
BRANCH   7  10
ATOM     10  C   UNL     1       4.103   6.652  17.495  0.00  0.00    +0.000 C 
BRANCH  10  11
ATOM     11  C   UNL     1       2.831   5.872  17.837  0.00  0.00    +0.000 C 
BRANCH  11  12
ATOM     12  C   UNL     1       2.571   5.807  19.333  0.00  0.00    +0.000 C 
ATOM     13  O   UNL     1       2.410   6.817  20.018  0.00  0.00    +0.000 OA
ATOM     14  N   UNL     1       2.491   4.538  19.872  0.00  0.00    +0.000 N 
ATOM     15  C   UNL     1       2.726   3.273  19.202  0.00  0.00    +0.000 C 
ATOM     16  C   UNL     1       1.742   2.341  19.884  0.00  0.00    +0.000 C 
ATOM     17  C   UNL     1       1.758   2.822  21.332  0.00  0.00    +0.000 C 
ATOM     18  C   UNL     1       2.036   4.322  21.236  0.00  0.00    +0.000 C 
ENDBRANCH  11  12
ENDBRANCH  10  11
ENDBRANCH   7  10
TORSDOF 4
ENDMDL
MODEL 5
REMARK VINA RESULT:      -6.6      3.511      6.160
REMARK  Name = 
REMARK  5 active torsions:
REMARK  status: ('A' for Active; 'I' for Inactive)
REMARK    1  A    between atoms: C_1  and  O_2
REMARK    2  A    between atoms: O_2  and  C_3
REMARK    3  A    between atoms: C_9  and  C_10
REMARK    4  A    between atoms: C_10  and  C_11
REMARK    5  A    between atoms: C_11  and  C_12
REMARK                            x       y       z     vdW  Elec       q    Type
REMARK                         _______ _______ _______ _____ _____    ______ ____
ROOT
ATOM      1  C   UNL     1       2.843   6.147  18.602  0.00  0.00    +0.000 A 
ATOM      2  C   UNL     1       2.375   6.421  19.895  0.00  0.00    +0.000 A 
ATOM      3  C   UNL     1       2.031   5.382  20.763  0.00  0.00    +0.000 A 
ATOM      4  C   UNL     1       2.149   4.064  20.338  0.00  0.00    +0.000 A 
ATOM      5 BR   UNL     1       1.664   2.660  21.508  0.00  0.00    +0.000 Br
ATOM      6  C   UNL     1       2.606   3.775  19.053  0.00  0.00    +0.000 A 
ATOM      7  C   UNL     1       2.957   4.810  18.166  0.00  0.00    +0.000 A 
ENDROOT
BRANCH   1   9
ATOM      8  C   UNL     1       2.438   8.349  17.800  0.00  0.00    +0.000 C 
ATOM      9  O   UNL     1       3.164   7.126  17.697  0.00  0.00    +0.000 OA
ENDBRANCH   1   9
BRANCH   7  10
ATOM     10  C   UNL     1       3.406   4.440  16.766  0.00  0.00    +0.000 C 
BRANCH  10  11
ATOM     11  C   UNL     1       4.917   4.231  16.635  0.00  0.00    +0.000 C 
BRANCH  11  12
ATOM     12  C   UNL     1       5.667   5.529  16.389  0.00  0.00    +0.000 C 
ATOM     13  O   UNL     1       5.346   6.317  15.499  0.00  0.00    +0.000 OA
ATOM     14  N   UNL     1       6.714   5.789  17.251  0.00  0.00    +0.000 N 
ATOM     15  C   UNL     1       7.242   4.926  18.291  0.00  0.00    +0.000 C 
ATOM     16  C   UNL     1       7.671   5.910  19.362  0.00  0.00    +0.000 C 
ATOM     17  C   UNL     1       8.207   7.088  18.554  0.00  0.00    +0.000 C 
ATOM     18  C   UNL     1       7.377   7.082  17.269  0.00  0.00    +0.000 C 
ENDBRANCH  11  12
ENDBRANCH  10  11
ENDBRANCH   7  10
TORSDOF 4
ENDMDL
MODEL 6
REMARK VINA RESULT:      -6.5      1.500      2.098
REMARK  Name = 
REMARK  5 active torsions:
REMARK  status: ('A' for Active; 'I' for Inactive)
REMARK    1  A    between atoms: C_1  and  O_2
REMARK    2  A    between atoms: O_2  and  C_3
REMARK    3  A    between atoms: C_9  and  C_10
REMARK    4  A    between atoms: C_10  and  C_11
REMARK    5  A    between atoms: C_11  and  C_12
REMARK                            x       y       z     vdW  Elec       q    Type
REMARK                         _______ _______ _______ _____ _____    ______ ____
ROOT
ATOM      1  C   UNL     1       4.381   5.470  17.808  0.00  0.00    +0.000 A 
ATOM      2  C   UNL     1       5.407   6.390  17.547  0.00  0.00    +0.000 A 
ATOM      3  C   UNL     1       6.238   6.234  16.435  0.00  0.00    +0.000 A 
ATOM      4  C   UNL     1       6.049   5.153  15.583  0.00  0.00    +0.000 A 
ATOM      5 BR   UNL     1       7.187   4.933  14.089  0.00  0.00    +0.000 Br
ATOM      6  C   UNL     1       5.038   4.226  15.832  0.00  0.00    +0.000 A 
ATOM      7  C   UNL     1       4.192   4.369  16.947  0.00  0.00    +0.000 A 
ENDROOT
BRANCH   1   9
ATOM      8  C   UNL     1       2.605   6.616  18.898  0.00  0.00    +0.000 C 
ATOM      9  O   UNL     1       3.557   5.555  18.901  0.00  0.00    +0.000 OA
ENDBRANCH   1   9
BRANCH   7  10
ATOM     10  C   UNL     1       3.138   3.307  17.194  0.00  0.00    +0.000 C 
BRANCH  10  11
ATOM     11  C   UNL     1       3.692   2.013  17.798  0.00  0.00    +0.000 C 
BRANCH  11  12
ATOM     12  C   UNL     1       3.856   2.097  19.307  0.00  0.00    +0.000 C 
ATOM     13  O   UNL     1       4.951   1.986  19.857  0.00  0.00    +0.000 OA
ATOM     14  N   UNL     1       2.700   2.340  20.022  0.00  0.00    +0.000 N 
ATOM     15  C   UNL     1       1.343   2.423  19.514  0.00  0.00    +0.000 C 
ATOM     16  C   UNL     1       0.710   3.469  20.412  0.00  0.00    +0.000 C 
ATOM     17  C   UNL     1       1.345   3.189  21.771  0.00  0.00    +0.000 C 
ATOM     18  C   UNL     1       2.739   2.656  21.440  0.00  0.00    +0.000 C 
ENDBRANCH  11  12
ENDBRANCH  10  11
ENDBRANCH   7  10
TORSDOF 4
ENDMDL
MODEL 7
REMARK VINA RESULT:      -6.5      1.244      1.299
REMARK  Name = 
REMARK  5 active torsions:
REMARK  status: ('A' for Active; 'I' for Inactive)
REMARK    1  A    between atoms: C_1  and  O_2
REMARK    2  A    between atoms: O_2  and  C_3
REMARK    3  A    between atoms: C_9  and  C_10
REMARK    4  A    between atoms: C_10  and  C_11
REMARK    5  A    between atoms: C_11  and  C_12
REMARK                            x       y       z     vdW  Elec       q    Type
REMARK                         _______ _______ _______ _____ _____    ______ ____
ROOT
ATOM      1  C   UNL     1       5.980   4.810  17.331  0.00  0.00    +0.000 A 
ATOM      2  C   UNL     1       7.229   4.748  16.698  0.00  0.00    +0.000 A 
ATOM      3  C   UNL     1       7.325   4.454  15.336  0.00  0.00    +0.000 A 
ATOM      4  C   UNL     1       6.169   4.216  14.602  0.00  0.00    +0.000 A 
ATOM      5 BR   UNL     1       6.301   3.800  12.763  0.00  0.00    +0.000 Br
ATOM      6  C   UNL     1       4.920   4.267  15.217  0.00  0.00    +0.000 A 
ATOM      7  C   UNL     1       4.806   4.562  16.589  0.00  0.00    +0.000 A 
ENDROOT
BRANCH   1   9
ATOM      8  C   UNL     1       6.965   5.587  19.351  0.00  0.00    +0.000 C 
ATOM      9  O   UNL     1       5.828   5.061  18.671  0.00  0.00    +0.000 OA
ENDBRANCH   1   9
BRANCH   7  10
ATOM     10  C   UNL     1       3.425   4.561  17.216  0.00  0.00    +0.000 C 
BRANCH  10  11
ATOM     11  C   UNL     1       2.719   3.204  17.155  0.00  0.00    +0.000 C 
BRANCH  11  12
ATOM     12  C   UNL     1       2.928   2.379  18.415  0.00  0.00    +0.000 C 
ATOM     13  O   UNL     1       3.625   1.365  18.431  0.00  0.00    +0.000 OA
ATOM     14  N   UNL     1       2.313   2.861  19.554  0.00  0.00    +0.000 N 
ATOM     15  C   UNL     1       1.415   3.995  19.666  0.00  0.00    +0.000 C 
ATOM     16  C   UNL     1       1.744   4.553  21.037  0.00  0.00    +0.000 C 
ATOM     17  C   UNL     1       2.018   3.300  21.864  0.00  0.00    +0.000 C 
ATOM     18  C   UNL     1       2.600   2.300  20.864  0.00  0.00    +0.000 C 
ENDBRANCH  11  12
ENDBRANCH  10  11
ENDBRANCH   7  10
TORSDOF 4
ENDMDL
MODEL 8
REMARK VINA RESULT:      -6.5      2.932      5.924
REMARK  Name = 
REMARK  5 active torsions:
REMARK  status: ('A' for Active; 'I' for Inactive)
REMARK    1  A    between atoms: C_1  and  O_2
REMARK    2  A    between atoms: O_2  and  C_3
REMARK    3  A    between atoms: C_9  and  C_10
REMARK    4  A    between atoms: C_10  and  C_11
REMARK    5  A    between atoms: C_11  and  C_12
REMARK                            x       y       z     vdW  Elec       q    Type
REMARK                         _______ _______ _______ _____ _____    ______ ____
ROOT
ATOM      1  C   UNL     1       1.883   4.328  19.865  0.00  0.00    +0.000 A 
ATOM      2  C   UNL     1       1.772   5.477  20.662  0.00  0.00    +0.000 A 
ATOM      3  C   UNL     1       1.941   6.748  20.107  0.00  0.00    +0.000 A 
ATOM      4  C   UNL     1       2.227   6.874  18.754  0.00  0.00    +0.000 A 
ATOM      5 BR   UNL     1       2.475   8.593  18.008  0.00  0.00    +0.000 Br
ATOM      6  C   UNL     1       2.348   5.742  17.949  0.00  0.00    +0.000 A 
ATOM      7  C   UNL     1       2.180   4.454  18.492  0.00  0.00    +0.000 A 
ENDROOT
BRANCH   1   9
ATOM      8  C   UNL     1       1.934   2.903  21.768  0.00  0.00    +0.000 C 
ATOM      9  O   UNL     1       1.760   3.056  20.362  0.00  0.00    +0.000 OA
ENDBRANCH   1   9
BRANCH   7  10
ATOM     10  C   UNL     1       2.366   3.256  17.581  0.00  0.00    +0.000 C 
BRANCH  10  11
ATOM     11  C   UNL     1       3.686   2.512  17.797  0.00  0.00    +0.000 C 
BRANCH  11  12
ATOM     12  C   UNL     1       4.822   3.442  18.194  0.00  0.00    +0.000 C 
ATOM     13  O   UNL     1       5.196   3.566  19.359  0.00  0.00    +0.000 OA
ATOM     14  N   UNL     1       5.433   4.116  17.155  0.00  0.00    +0.000 N 
ATOM     15  C   UNL     1       5.056   4.118  15.753  0.00  0.00    +0.000 C 
ATOM     16  C   UNL     1       6.392   4.227  15.043  0.00  0.00    +0.000 C 
ATOM     17  C   UNL     1       7.192   5.155  15.953  0.00  0.00    +0.000 C 
ATOM     18  C   UNL     1       6.662   4.866  17.358  0.00  0.00    +0.000 C 
ENDBRANCH  11  12
ENDBRANCH  10  11
ENDBRANCH   7  10
TORSDOF 4
ENDMDL
MODEL 9
REMARK VINA RESULT:      -6.5      2.906      3.708
REMARK  Name = 
REMARK  5 active torsions:
REMARK  status: ('A' for Active; 'I' for Inactive)
REMARK    1  A    between atoms: C_1  and  O_2
REMARK    2  A    between atoms: O_2  and  C_3
REMARK    3  A    between atoms: C_9  and  C_10
REMARK    4  A    between atoms: C_10  and  C_11
REMARK    5  A    between atoms: C_11  and  C_12
REMARK                            x       y       z     vdW  Elec       q    Type
REMARK                         _______ _______ _______ _____ _____    ______ ____
ROOT
ATOM      1  C   UNL     1       5.844   4.784  18.112  0.00  0.00    +0.000 A 
ATOM      2  C   UNL     1       7.174   4.918  18.535  0.00  0.00    +0.000 A 
ATOM      3  C   UNL     1       7.832   6.146  18.441  0.00  0.00    +0.000 A 
ATOM      4  C   UNL     1       7.162   7.246  17.919  0.00  0.00    +0.000 A 
ATOM      5 BR   UNL     1       8.059   8.904  17.775  0.00  0.00    +0.000 Br
ATOM      6  C   UNL     1       5.841   7.128  17.487  0.00  0.00    +0.000 A 
ATOM      7  C   UNL     1       5.164   5.897  17.575  0.00  0.00    +0.000 A 
ENDROOT
BRANCH   1   9
ATOM      8  C   UNL     1       4.870   3.070  19.442  0.00  0.00    +0.000 C 
ATOM      9  O   UNL     1       5.161   3.595  18.149  0.00  0.00    +0.000 OA
ENDBRANCH   1   9
BRANCH   7  10
ATOM     10  C   UNL     1       3.744   5.815  17.050  0.00  0.00    +0.000 C 
BRANCH  10  11
ATOM     11  C   UNL     1       2.674   5.984  18.132  0.00  0.00    +0.000 C 
BRANCH  11  12
ATOM     12  C   UNL     1       1.778   4.764  18.263  0.00  0.00    +0.000 C 
ATOM     13  O   UNL     1       1.301   4.188  17.286  0.00  0.00    +0.000 OA
ATOM     14  N   UNL     1       1.559   4.318  19.552  0.00  0.00    +0.000 N 
ATOM     15  C   UNL     1       1.998   4.933  20.790  0.00  0.00    +0.000 C 
ATOM     16  C   UNL     1       2.265   3.739  21.686  0.00  0.00    +0.000 C 
ATOM     17  C   UNL     1       1.164   2.758  21.292  0.00  0.00    +0.000 C 
ATOM     18  C   UNL     1       0.906   3.046  19.812  0.00  0.00    +0.000 C 
ENDBRANCH  11  12
ENDBRANCH  10  11
ENDBRANCH   7  10
TORSDOF 4
ENDMDL
