MODEL 1
REMARK VINA RESULT:      -7.0      0.000      0.000
REMARK  Name = 
REMARK  4 active torsions:
REMARK  status: ('A' for Active; 'I' for Inactive)
REMARK    1  A    between atoms: C_1  and  C_2
REMARK    2  A    between atoms: C_2  and  C_3
REMARK    3  A    between atoms: C_3  and  C_4
REMARK    4  A    between atoms: C_7  and  N_8
REMARK                            x       y       z     vdW  Elec       q    Type
REMARK                         _______ _______ _______ _____ _____    ______ ____
ROOT
ATOM      1  C   UNL     1       2.394   3.682  18.465  0.00  0.00    +0.000 A 
ATOM      2  C   UNL     1       3.565   3.095  17.976  0.00  0.00    +0.000 A 
ATOM      3  C   UNL     1       4.736   3.846  17.836  0.00  0.00    +0.000 A 
ATOM      4  C   UNL     1       4.777   5.199  18.196  0.00  0.00    +0.000 A 
ATOM      5  C   UNL     1       3.594   5.784  18.670  0.00  0.00    +0.000 A 
ATOM      6  C   UNL     1       2.413   5.041  18.789  0.00  0.00    +0.000 A 
ENDROOT
BRANCH   4   7
ATOM      7  N   UNL     1       5.980   5.944  18.092  0.00  0.00    +0.000 N 
ATOM      8  C   UNL     1       6.310   6.776  17.057  0.00  0.00    +0.000 C 
ATOM      9  O   UNL     1       5.688   7.114  16.064  0.00  0.00    +0.000 OA
ATOM     10  C   UNL     1       7.640   7.326  17.341  0.00  0.00    +0.000 C 
ATOM     11  C   UNL     1       8.053   6.812  18.496  0.00  0.00    +0.000 C 
ATOM     12  C   UNL     1       7.004   5.922  19.001  0.00  0.00    +0.000 C 
ATOM     13  O   UNL     1       7.150   5.289  20.030  0.00  0.00    +0.000 OA
ENDBRANCH   4   7
BRANCH   1  14
ATOM     14  C   UNL     1       1.136   2.864  18.630  0.00  0.00    +0.000 C 
BRANCH  14  16
ATOM     15  C   UNL     1       1.542   2.617  21.108  0.00  0.00    +0.000 C 
ATOM     16  C   UNL     1       0.538   2.995  20.034  0.00  0.00    +0.000 C 
ENDBRANCH  14  16
ENDBRANCH   1  14
TORSDOF 3
ENDMDL
MODEL 2
REMARK VINA RESULT:      -7.0      2.369      6.054
REMARK  Name = 
REMARK  4 active torsions:
REMARK  status: ('A' for Active; 'I' for Inactive)
REMARK    1  A    between atoms: C_1  and  C_2
REMARK    2  A    between atoms: C_2  and  C_3
REMARK    3  A    between atoms: C_3  and  C_4
REMARK    4  A    between atoms: C_7  and  N_8
REMARK                            x       y       z     vdW  Elec       q    Type
REMARK                         _______ _______ _______ _____ _____    ______ ____
ROOT
ATOM      1  C   UNL     1       6.126   6.208  17.694  0.00  0.00    +0.000 A 
ATOM      2  C   UNL     1       6.207   5.228  18.689  0.00  0.00    +0.000 A 
ATOM      3  C   UNL     1       5.062   4.558  19.126  0.00  0.00    +0.000 A 
ATOM      4  C   UNL     1       3.804   4.832  18.571  0.00  0.00    +0.000 A 
ATOM      5  C   UNL     1       3.729   5.827  17.585  0.00  0.00    +0.000 A 
ATOM      6  C   UNL     1       4.872   6.518  17.163  0.00  0.00    +0.000 A 
ENDROOT
BRANCH   4   7
ATOM      7  N   UNL     1       2.652   4.117  18.989  0.00  0.00    +0.000 N 
ATOM      8  C   UNL     1       2.021   4.264  20.194  0.00  0.00    +0.000 C 
ATOM      9  O   UNL     1       2.228   5.025  21.124  0.00  0.00    +0.000 OA
ATOM     10  C   UNL     1       0.895   3.326  20.219  0.00  0.00    +0.000 C 
ATOM     11  C   UNL     1       0.895   2.661  19.067  0.00  0.00    +0.000 C 
ATOM     12  C   UNL     1       2.014   3.151  18.258  0.00  0.00    +0.000 C 
ATOM     13  O   UNL     1       2.264   2.673  17.166  0.00  0.00    +0.000 OA
ENDBRANCH   4   7
BRANCH   1  14
ATOM     14  C   UNL     1       7.368   6.919  17.213  0.00  0.00    +0.000 C 
BRANCH  14  16
ATOM     15  C   UNL     1       8.319   9.081  18.100  0.00  0.00    +0.000 C 
ATOM     16  C   UNL     1       8.128   7.597  18.357  0.00  0.00    +0.000 C 
ENDBRANCH  14  16
ENDBRANCH   1  14
TORSDOF 3
ENDMDL
MODEL 3
REMARK VINA RESULT:      -7.0      2.415      5.885
REMARK  Name = 
REMARK  4 active torsions:
REMARK  status: ('A' for Active; 'I' for Inactive)
REMARK    1  A    between atoms: C_1  and  C_2
REMARK    2  A    between atoms: C_2  and  C_3
REMARK    3  A    between atoms: C_3  and  C_4
REMARK    4  A    between atoms: C_7  and  N_8
REMARK                            x       y       z     vdW  Elec       q    Type
REMARK                         _______ _______ _______ _____ _____    ______ ____
ROOT
ATOM      1  C   UNL     1       6.118   6.021  17.672  0.00  0.00    +0.000 A 
ATOM      2  C   UNL     1       6.212   4.920  18.528  0.00  0.00    +0.000 A 
ATOM      3  C   UNL     1       5.064   4.268  18.985  0.00  0.00    +0.000 A 
ATOM      4  C   UNL     1       3.786   4.686  18.587  0.00  0.00    +0.000 A 
ATOM      5  C   UNL     1       3.699   5.801  17.741  0.00  0.00    +0.000 A 
ATOM      6  C   UNL     1       4.848   6.471  17.301  0.00  0.00    +0.000 A 
ENDROOT
BRANCH   4   7
ATOM      7  N   UNL     1       2.626   3.994  19.020  0.00  0.00    +0.000 N 
ATOM      8  C   UNL     1       1.946   3.054  18.294  0.00  0.00    +0.000 C 
ATOM      9  O   UNL     1       2.171   2.562  17.201  0.00  0.00    +0.000 OA
ATOM     10  C   UNL     1       0.807   2.611  19.104  0.00  0.00    +0.000 C 
ATOM     11  C   UNL     1       0.837   3.287  20.249  0.00  0.00    +0.000 C 
ATOM     12  C   UNL     1       1.997   4.182  20.221  0.00  0.00    +0.000 C 
ATOM     13  O   UNL     1       2.230   4.947  21.139  0.00  0.00    +0.000 OA
ENDBRANCH   4   7
BRANCH   1  14
ATOM     14  C   UNL     1       7.361   6.712  17.168  0.00  0.00    +0.000 C 
BRANCH  14  16
ATOM     15  C   UNL     1       8.122   8.995  17.929  0.00  0.00    +0.000 C 
ATOM     16  C   UNL     1       8.065   7.515  18.266  0.00  0.00    +0.000 C 
ENDBRANCH  14  16
ENDBRANCH   1  14
TORSDOF 3
ENDMDL
MODEL 4
REMARK VINA RESULT:      -7.0      2.441      6.109
REMARK  Name = 
REMARK  4 active torsions:
REMARK  status: ('A' for Active; 'I' for Inactive)
REMARK    1  A    between atoms: C_1  and  C_2
REMARK    2  A    between atoms: C_2  and  C_3
REMARK    3  A    between atoms: C_3  and  C_4
REMARK    4  A    between atoms: C_7  and  N_8
REMARK                            x       y       z     vdW  Elec       q    Type
REMARK                         _______ _______ _______ _____ _____    ______ ____
ROOT
ATOM      1  C   UNL     1       6.093   5.950  17.604  0.00  0.00    +0.000 A 
ATOM      2  C   UNL     1       4.825   6.490  17.370  0.00  0.00    +0.000 A 
ATOM      3  C   UNL     1       3.674   5.830  17.807  0.00  0.00    +0.000 A 
ATOM      4  C   UNL     1       3.755   4.619  18.507  0.00  0.00    +0.000 A 
ATOM      5  C   UNL     1       5.029   4.075  18.725  0.00  0.00    +0.000 A 
ATOM      6  C   UNL     1       6.183   4.723  18.266  0.00  0.00    +0.000 A 
ENDROOT
BRANCH   4   7
ATOM      7  N   UNL     1       2.585   3.975  18.986  0.00  0.00    +0.000 N 
ATOM      8  C   UNL     1       1.960   4.246  20.173  0.00  0.00    +0.000 C 
ATOM      9  O   UNL     1       2.188   5.081  21.032  0.00  0.00    +0.000 OA
ATOM     10  C   UNL     1       0.808   3.344  20.280  0.00  0.00    +0.000 C 
ATOM     11  C   UNL     1       0.789   2.579  19.192  0.00  0.00    +0.000 C 
ATOM     12  C   UNL     1       1.920   2.965  18.343  0.00  0.00    +0.000 C 
ATOM     13  O   UNL     1       2.155   2.386  17.299  0.00  0.00    +0.000 OA
ENDBRANCH   4   7
BRANCH   1  14
ATOM     14  C   UNL     1       7.334   6.675  17.144  0.00  0.00    +0.000 C 
BRANCH  14  16
ATOM     15  C   UNL     1       8.191   8.901  17.968  0.00  0.00    +0.000 C 
ATOM     16  C   UNL     1       8.026   7.425  18.286  0.00  0.00    +0.000 C 
ENDBRANCH  14  16
ENDBRANCH   1  14
TORSDOF 3
ENDMDL
MODEL 5
REMARK VINA RESULT:      -7.0      0.157      1.202
REMARK  Name = 
REMARK  4 active torsions:
REMARK  status: ('A' for Active; 'I' for Inactive)
REMARK    1  A    between atoms: C_1  and  C_2
REMARK    2  A    between atoms: C_2  and  C_3
REMARK    3  A    between atoms: C_3  and  C_4
REMARK    4  A    between atoms: C_7  and  N_8
REMARK                            x       y       z     vdW  Elec       q    Type
REMARK                         _______ _______ _______ _____ _____    ______ ____
ROOT
ATOM      1  C   UNL     1       2.446   3.624  18.563  0.00  0.00    +0.000 A 
ATOM      2  C   UNL     1       2.431   5.012  18.728  0.00  0.00    +0.000 A 
ATOM      3  C   UNL     1       3.607   5.758  18.615  0.00  0.00    +0.000 A 
ATOM      4  C   UNL     1       4.830   5.143  18.316  0.00  0.00    +0.000 A 
ATOM      5  C   UNL     1       4.840   3.748  18.168  0.00  0.00    +0.000 A 
ATOM      6  C   UNL     1       3.667   2.996  18.305  0.00  0.00    +0.000 A 
ENDROOT
BRANCH   4   7
ATOM      7  N   UNL     1       6.013   5.911  18.160  0.00  0.00    +0.000 N 
ATOM      8  C   UNL     1       6.298   6.722  17.095  0.00  0.00    +0.000 C 
ATOM      9  O   UNL     1       5.642   7.018  16.110  0.00  0.00    +0.000 OA
ATOM     10  C   UNL     1       7.621   7.308  17.329  0.00  0.00    +0.000 C 
ATOM     11  C   UNL     1       8.075   6.836  18.486  0.00  0.00    +0.000 C 
ATOM     12  C   UNL     1       7.061   5.937  19.042  0.00  0.00    +0.000 C 
ATOM     13  O   UNL     1       7.248   5.336  20.084  0.00  0.00    +0.000 OA
ENDBRANCH   4   7
BRANCH   1  14
ATOM     14  C   UNL     1       1.171   2.824  18.670  0.00  0.00    +0.000 C 
BRANCH  14  16
ATOM     15  C   UNL     1       1.399   2.708  21.180  0.00  0.00    +0.000 C 
ATOM     16  C   UNL     1       0.473   3.022  20.019  0.00  0.00    +0.000 C 
ENDBRANCH  14  16
ENDBRANCH   1  14
TORSDOF 3
ENDMDL
MODEL 6
REMARK VINA RESULT:      -6.9      2.350      5.948
REMARK  Name = 
REMARK  4 active torsions:
REMARK  status: ('A' for Active; 'I' for Inactive)
REMARK    1  A    between atoms: C_1  and  C_2
REMARK    2  A    between atoms: C_2  and  C_3
REMARK    3  A    between atoms: C_3  and  C_4
REMARK    4  A    between atoms: C_7  and  N_8
REMARK                            x       y       z     vdW  Elec       q    Type
REMARK                         _______ _______ _______ _____ _____    ______ ____
ROOT
ATOM      1  C   UNL     1       6.144   6.271  17.649  0.00  0.00    +0.000 A 
ATOM      2  C   UNL     1       4.870   6.579  17.160  0.00  0.00    +0.000 A 
ATOM      3  C   UNL     1       3.747   5.869  17.593  0.00  0.00    +0.000 A 
ATOM      4  C   UNL     1       3.859   4.843  18.541  0.00  0.00    +0.000 A 
ATOM      5  C   UNL     1       5.141   4.530  19.015  0.00  0.00    +0.000 A 
ATOM      6  C   UNL     1       6.272   5.223  18.564  0.00  0.00    +0.000 A 
ENDROOT
BRANCH   4   7
ATOM      7  N   UNL     1       2.710   4.156  19.008  0.00  0.00    +0.000 N 
ATOM      8  C   UNL     1       2.011   3.210  18.308  0.00  0.00    +0.000 C 
ATOM      9  O   UNL     1       2.208   2.708  17.214  0.00  0.00    +0.000 OA
ATOM     10  C   UNL     1       0.892   2.775  19.151  0.00  0.00    +0.000 C 
ATOM     11  C   UNL     1       0.950   3.462  20.288  0.00  0.00    +0.000 C 
ATOM     12  C   UNL     1       2.110   4.355  20.223  0.00  0.00    +0.000 C 
ATOM     13  O   UNL     1       2.366   5.128  21.128  0.00  0.00    +0.000 OA
ENDBRANCH   4   7
BRANCH   1  14
ATOM     14  C   UNL     1       7.352   7.050  17.190  0.00  0.00    +0.000 C 
BRANCH  14  16
ATOM     15  C   UNL     1       8.345   9.151  18.174  0.00  0.00    +0.000 C 
ATOM     16  C   UNL     1       8.130   7.659  18.361  0.00  0.00    +0.000 C 
ENDBRANCH  14  16
ENDBRANCH   1  14
TORSDOF 3
ENDMDL
MODEL 7
REMARK VINA RESULT:      -6.9      0.402      1.911
REMARK  Name = 
REMARK  4 active torsions:
REMARK  status: ('A' for Active; 'I' for Inactive)
REMARK    1  A    between atoms: C_1  and  C_2
REMARK    2  A    between atoms: C_2  and  C_3
REMARK    3  A    between atoms: C_3  and  C_4
REMARK    4  A    between atoms: C_7  and  N_8
REMARK                            x       y       z     vdW  Elec       q    Type
REMARK                         _______ _______ _______ _____ _____    ______ ____
ROOT
ATOM      1  C   UNL     1       2.413   3.633  18.326  0.00  0.00    +0.000 A 
ATOM      2  C   UNL     1       3.660   3.000  18.323  0.00  0.00    +0.000 A 
ATOM      3  C   UNL     1       4.839   3.742  18.206  0.00  0.00    +0.000 A 
ATOM      4  C   UNL     1       4.809   5.139  18.106  0.00  0.00    +0.000 A 
ATOM      5  C   UNL     1       3.554   5.766  18.094  0.00  0.00    +0.000 A 
ATOM      6  C   UNL     1       2.371   5.023  18.187  0.00  0.00    +0.000 A 
ENDROOT
BRANCH   4   7
ATOM      7  N   UNL     1       6.011   5.889  18.031  0.00  0.00    +0.000 N 
ATOM      8  C   UNL     1       6.983   5.928  18.993  0.00  0.00    +0.000 C 
ATOM      9  O   UNL     1       7.093   5.333  20.052  0.00  0.00    +0.000 OA
ATOM     10  C   UNL     1       8.034   6.835  18.521  0.00  0.00    +0.000 C 
ATOM     11  C   UNL     1       7.663   7.302  17.333  0.00  0.00    +0.000 C 
ATOM     12  C   UNL     1       6.366   6.710  16.994  0.00  0.00    +0.000 C 
ATOM     13  O   UNL     1       5.781   7.008  15.969  0.00  0.00    +0.000 OA
ENDBRANCH   4   7
BRANCH   1  14
ATOM     14  C   UNL     1       1.144   2.830  18.469  0.00  0.00    +0.000 C 
BRANCH  14  16
ATOM     15  C   UNL     1       1.193   3.062  20.981  0.00  0.00    +0.000 C 
ATOM     16  C   UNL     1       1.066   2.100  19.813  0.00  0.00    +0.000 C 
ENDBRANCH  14  16
ENDBRANCH   1  14
TORSDOF 3
ENDMDL
MODEL 8
REMARK VINA RESULT:      -6.6      0.176      2.227
REMARK  Name = 
REMARK  4 active torsions:
REMARK  status: ('A' for Active; 'I' for Inactive)
REMARK    1  A    between atoms: C_1  and  C_2
REMARK    2  A    between atoms: C_2  and  C_3
REMARK    3  A    between atoms: C_3  and  C_4
REMARK    4  A    between atoms: C_7  and  N_8
REMARK                            x       y       z     vdW  Elec       q    Type
REMARK                         _______ _______ _______ _____ _____    ______ ____
ROOT
ATOM      1  C   UNL     1       2.238   3.749  18.387  0.00  0.00    +0.000 A 
ATOM      2  C   UNL     1       2.344   5.062  18.855  0.00  0.00    +0.000 A 
ATOM      3  C   UNL     1       3.555   5.755  18.772  0.00  0.00    +0.000 A 
ATOM      4  C   UNL     1       4.691   5.164  18.204  0.00  0.00    +0.000 A 
ATOM      5  C   UNL     1       4.581   3.841  17.752  0.00  0.00    +0.000 A 
ATOM      6  C   UNL     1       3.376   3.136  17.856  0.00  0.00    +0.000 A 
ENDROOT
BRANCH   4   7
ATOM      7  N   UNL     1       5.905   5.889  18.084  0.00  0.00    +0.000 N 
ATOM      8  C   UNL     1       6.948   5.841  18.968  0.00  0.00    +0.000 C 
ATOM      9  O   UNL     1       7.120   5.177  19.976  0.00  0.00    +0.000 OA
ATOM     10  C   UNL     1       7.987   6.751  18.474  0.00  0.00    +0.000 C 
ATOM     11  C   UNL     1       7.540   7.304  17.350  0.00  0.00    +0.000 C 
ATOM     12  C   UNL     1       6.205   6.766  17.076  0.00  0.00    +0.000 C 
ATOM     13  O   UNL     1       5.553   7.144  16.119  0.00  0.00    +0.000 OA
ENDBRANCH   4   7
BRANCH   1  14
ATOM     14  C   UNL     1       0.925   3.009  18.464  0.00  0.00    +0.000 C 
BRANCH  14  16
ATOM     15  C   UNL     1       1.677   2.652  20.847  0.00  0.00    +0.000 C 
ATOM     16  C   UNL     1       0.486   2.753  19.910  0.00  0.00    +0.000 C 
ENDBRANCH  14  16
ENDBRANCH   1  14
TORSDOF 3
ENDMDL
MODEL 9
REMARK VINA RESULT:      -6.5      1.927      2.126
REMARK  Name = 
REMARK  4 active torsions:
REMARK  status: ('A' for Active; 'I' for Inactive)
REMARK    1  A    between atoms: C_1  and  C_2
REMARK    2  A    between atoms: C_2  and  C_3
REMARK    3  A    between atoms: C_3  and  C_4
REMARK    4  A    between atoms: C_7  and  N_8
REMARK                            x       y       z     vdW  Elec       q    Type
REMARK                         _______ _______ _______ _____ _____    ______ ____
ROOT
ATOM      1  C   UNL     1       1.976   3.195  18.520  0.00  0.00    +0.000 A 
ATOM      2  C   UNL     1       2.892   2.227  18.094  0.00  0.00    +0.000 A 
ATOM      3  C   UNL     1       4.042   2.591  17.390  0.00  0.00    +0.000 A 
ATOM      4  C   UNL     1       4.323   3.934  17.105  0.00  0.00    +0.000 A 
ATOM      5  C   UNL     1       3.392   4.898  17.521  0.00  0.00    +0.000 A 
ATOM      6  C   UNL     1       2.226   4.533  18.205  0.00  0.00    +0.000 A 
ENDROOT
BRANCH   4   7
ATOM      7  N   UNL     1       5.514   4.301  16.427  0.00  0.00    +0.000 N 
ATOM      8  C   UNL     1       5.653   4.414  15.070  0.00  0.00    +0.000 C 
ATOM      9  O   UNL     1       4.844   4.297  14.166  0.00  0.00    +0.000 OA
ATOM     10  C   UNL     1       7.043   4.793  14.800  0.00  0.00    +0.000 C 
ATOM     11  C   UNL     1       7.674   4.882  15.967  0.00  0.00    +0.000 C 
ATOM     12  C   UNL     1       6.714   4.571  17.030  0.00  0.00    +0.000 C 
ATOM     13  O   UNL     1       7.051   4.541  18.199  0.00  0.00    +0.000 OA
ENDBRANCH   4   7
BRANCH   1  14
ATOM     14  C   UNL     1       0.743   2.799  19.294  0.00  0.00    +0.000 C 
BRANCH  14  16
ATOM     15  C   UNL     1       1.688   2.533  21.618  0.00  0.00    +0.000 C 
ATOM     16  C   UNL     1       0.759   3.338  20.727  0.00  0.00    +0.000 C 
ENDBRANCH  14  16
ENDBRANCH   1  14
TORSDOF 3
ENDMDL
