MODEL 1
REMARK VINA RESULT:      -5.9      0.000      0.000
REMARK  Name = 
REMARK  13 active torsions:
REMARK  status: ('A' for Active; 'I' for Inactive)
REMARK    1  A    between atoms: C_2  and  C_3
REMARK    2  A    between atoms: C_3  and  C_4
REMARK    3  A    between atoms: C_4  and  C_5
REMARK    4  A    between atoms: C_5  and  C_6
REMARK    5  A    between atoms: C_6  and  C_7
REMARK    6  A    between atoms: C_7  and  C_8
REMARK    7  A    between atoms: C_8  and  C_9
REMARK    8  A    between atoms: C_9  and  C_10
REMARK    9  A    between atoms: C_10  and  C_11
REMARK   10  A    between atoms: C_13  and  S_14
REMARK   11  A    between atoms: S_14  and  C_15
REMARK   12  A    between atoms: C_15  and  C_16
REMARK   13  A    between atoms: C_16  and  C_17
REMARK                            x       y       z     vdW  Elec       q    Type
REMARK                         _______ _______ _______ _____ _____    ______ ____
ROOT
ATOM      1  C   UNL     1       4.176   3.006  18.417  0.00  0.00    +0.000 A 
ATOM      2  N   UNL     1       4.081   4.017  17.578  0.00  0.00    +0.000 NA
ATOM      3  C   UNL     1       4.989   4.917  18.065  0.00  0.00    +0.000 A 
ATOM      4  N   UNL     1       5.627   4.525  19.173  0.00  0.00    +0.000 NA
ATOM      5  N   UNL     1       5.100   3.313  19.375  0.00  0.00    +0.000 N 
ATOM      6  H   UNL     1       5.415   2.756  20.162  0.00  0.00    +0.000 HD
ENDROOT
BRANCH   1   7
ATOM      7  C   UNL     1       3.459   1.705  18.386  0.00  0.00    +0.000 C 
BRANCH   7   8
ATOM      8  C   UNL     1       2.191   1.739  19.243  0.00  0.00    +0.000 C 
BRANCH   8   9
ATOM      9  C   UNL     1       1.063   2.558  18.608  0.00  0.00    +0.000 C 
BRANCH   9  10
ATOM     10  C   UNL     1       0.969   3.969  19.188  0.00  0.00    +0.000 C 
BRANCH  10  11
ATOM     11  C   UNL     1       1.300   4.002  20.676  0.00  0.00    +0.000 C 
BRANCH  11  12
ATOM     12  C   UNL     1       1.929   5.347  21.040  0.00  0.00    +0.000 C 
BRANCH  12  13
ATOM     13  C   UNL     1       2.315   6.136  19.791  0.00  0.00    +0.000 C 
BRANCH  13  14
ATOM     14  C   UNL     1       1.937   7.608  19.944  0.00  0.00    +0.000 C 
BRANCH  14  16
ATOM     15  C   UNL     1       1.227   8.965  21.927  0.00  0.00    +0.000 C 
ATOM     16  C   UNL     1       1.164   7.837  21.209  0.00  0.00    +0.000 C 
ENDBRANCH  14  16
ENDBRANCH  13  14
ENDBRANCH  12  13
ENDBRANCH  11  12
ENDBRANCH  10  11
ENDBRANCH   9  10
ENDBRANCH   8   9
ENDBRANCH   7   8
ENDBRANCH   1   7
BRANCH   3  17
ATOM     17  S   UNL     1       5.341   6.454  17.339  0.00  0.00    +0.000 S 
BRANCH  17  18
ATOM     18  C   UNL     1       7.125   6.300  17.087  0.00  0.00    +0.000 C 
BRANCH  18  19
ATOM     19  C   UNL     1       7.432   5.031  16.321  0.00  0.00    +0.000 C 
ATOM     20  C   UNL     1       6.829   4.849  14.948  0.00  0.00    +0.000 C 
ATOM     21  O   UNL     1       8.115   4.131  16.818  0.00  0.00    +0.000 OA
ENDBRANCH  18  19
ENDBRANCH  17  18
ENDBRANCH   3  17
TORSDOF 12
ENDMDL
MODEL 2
REMARK VINA RESULT:      -5.9      3.212      4.764
REMARK  Name = 
REMARK  13 active torsions:
REMARK  status: ('A' for Active; 'I' for Inactive)
REMARK    1  A    between atoms: C_2  and  C_3
REMARK    2  A    between atoms: C_3  and  C_4
REMARK    3  A    between atoms: C_4  and  C_5
REMARK    4  A    between atoms: C_5  and  C_6
REMARK    5  A    between atoms: C_6  and  C_7
REMARK    6  A    between atoms: C_7  and  C_8
REMARK    7  A    between atoms: C_8  and  C_9
REMARK    8  A    between atoms: C_9  and  C_10
REMARK    9  A    between atoms: C_10  and  C_11
REMARK   10  A    between atoms: C_13  and  S_14
REMARK   11  A    between atoms: S_14  and  C_15
REMARK   12  A    between atoms: C_15  and  C_16
REMARK   13  A    between atoms: C_16  and  C_17
REMARK                            x       y       z     vdW  Elec       q    Type
REMARK                         _______ _______ _______ _____ _____    ______ ____
ROOT
ATOM      1  C   UNL     1       7.107   5.705  16.920  0.00  0.00    +0.000 A 
ATOM      2  N   UNL     1       7.454   4.728  16.108  0.00  0.00    +0.000 NA
ATOM      3  C   UNL     1       6.748   5.000  14.968  0.00  0.00    +0.000 A 
ATOM      4  N   UNL     1       5.967   6.082  15.038  0.00  0.00    +0.000 NA
ATOM      5  N   UNL     1       6.213   6.515  16.279  0.00  0.00    +0.000 N 
ATOM      6  H   UNL     1       5.755   7.355  16.615  0.00  0.00    +0.000 HD
ENDROOT
BRANCH   1   7
ATOM      7  C   UNL     1       7.580   5.973  18.302  0.00  0.00    +0.000 C 
BRANCH   7   8
ATOM      8  C   UNL     1       6.565   5.503  19.347  0.00  0.00    +0.000 C 
BRANCH   8   9
ATOM      9  C   UNL     1       5.643   4.396  18.827  0.00  0.00    +0.000 C 
BRANCH   9  10
ATOM     10  C   UNL     1       4.192   4.860  18.696  0.00  0.00    +0.000 C 
BRANCH  10  11
ATOM     11  C   UNL     1       3.534   4.335  17.425  0.00  0.00    +0.000 C 
BRANCH  11  12
ATOM     12  C   UNL     1       2.299   3.506  17.781  0.00  0.00    +0.000 C 
BRANCH  12  13
ATOM     13  C   UNL     1       1.560   4.098  18.979  0.00  0.00    +0.000 C 
BRANCH  13  14
ATOM     14  C   UNL     1       0.773   3.017  19.717  0.00  0.00    +0.000 C 
BRANCH  14  16
ATOM     15  C   UNL     1       2.253   3.569  21.662  0.00  0.00    +0.000 C 
ATOM     16  C   UNL     1       1.341   2.777  21.085  0.00  0.00    +0.000 C 
ENDBRANCH  14  16
ENDBRANCH  13  14
ENDBRANCH  12  13
ENDBRANCH  11  12
ENDBRANCH  10  11
ENDBRANCH   9  10
ENDBRANCH   8   9
ENDBRANCH   7   8
ENDBRANCH   1   7
BRANCH   3  17
ATOM     17  S   UNL     1       6.830   4.061  13.510  0.00  0.00    +0.000 S 
BRANCH  17  18
ATOM     18  C   UNL     1       5.069   3.833  13.165  0.00  0.00    +0.000 C 
BRANCH  18  19
ATOM     19  C   UNL     1       4.888   3.149  11.827  0.00  0.00    +0.000 C 
ATOM     20  C   UNL     1       5.822   2.022  11.456  0.00  0.00    +0.000 C 
ATOM     21  O   UNL     1       4.034   3.531  11.022  0.00  0.00    +0.000 OA
ENDBRANCH  18  19
ENDBRANCH  17  18
ENDBRANCH   3  17
TORSDOF 12
ENDMDL
MODEL 3
REMARK VINA RESULT:      -5.9      3.718      7.645
REMARK  Name = 
REMARK  13 active torsions:
REMARK  status: ('A' for Active; 'I' for Inactive)
REMARK    1  A    between atoms: C_2  and  C_3
REMARK    2  A    between atoms: C_3  and  C_4
REMARK    3  A    between atoms: C_4  and  C_5
REMARK    4  A    between atoms: C_5  and  C_6
REMARK    5  A    between atoms: C_6  and  C_7
REMARK    6  A    between atoms: C_7  and  C_8
REMARK    7  A    between atoms: C_8  and  C_9
REMARK    8  A    between atoms: C_9  and  C_10
REMARK    9  A    between atoms: C_10  and  C_11
REMARK   10  A    between atoms: C_13  and  S_14
REMARK   11  A    between atoms: S_14  and  C_15
REMARK   12  A    between atoms: C_15  and  C_16
REMARK   13  A    between atoms: C_16  and  C_17
REMARK                            x       y       z     vdW  Elec       q    Type
REMARK                         _______ _______ _______ _____ _____    ______ ____
ROOT
ATOM      1  C   UNL     1       4.360   4.883  17.491  0.00  0.00    +0.000 A 
ATOM      2  N   UNL     1       3.273   4.146  17.389  0.00  0.00    +0.000 NA
ATOM      3  C   UNL     1       3.423   3.225  18.389  0.00  0.00    +0.000 A 
ATOM      4  N   UNL     1       4.554   3.341  19.093  0.00  0.00    +0.000 NA
ATOM      5  N   UNL     1       5.129   4.398  18.510  0.00  0.00    +0.000 N 
ATOM      6  H   UNL     1       6.021   4.735  18.855  0.00  0.00    +0.000 HD
ENDROOT
BRANCH   1   7
ATOM      7  C   UNL     1       4.748   6.075  16.694  0.00  0.00    +0.000 C 
BRANCH   7   8
ATOM      8  C   UNL     1       5.771   5.721  15.611  0.00  0.00    +0.000 C 
BRANCH   8   9
ATOM      9  C   UNL     1       5.264   4.652  14.638  0.00  0.00    +0.000 C 
BRANCH   9  10
ATOM     10  C   UNL     1       6.366   3.680  14.214  0.00  0.00    +0.000 C 
BRANCH  10  11
ATOM     11  C   UNL     1       6.632   3.733  12.714  0.00  0.00    +0.000 C 
BRANCH  11  12
ATOM     12  C   UNL     1       5.337   4.053  11.966  0.00  0.00    +0.000 C 
BRANCH  12  13
ATOM     13  C   UNL     1       4.697   2.788  11.398  0.00  0.00    +0.000 C 
BRANCH  13  14
ATOM     14  C   UNL     1       3.211   3.011  11.123  0.00  0.00    +0.000 C 
BRANCH  14  16
ATOM     15  C   UNL     1       2.642   4.602   9.273  0.00  0.00    +0.000 C 
ATOM     16  C   UNL     1       2.978   3.373   9.686  0.00  0.00    +0.000 C 
ENDBRANCH  14  16
ENDBRANCH  13  14
ENDBRANCH  12  13
ENDBRANCH  11  12
ENDBRANCH  10  11
ENDBRANCH   9  10
ENDBRANCH   8   9
ENDBRANCH   7   8
ENDBRANCH   1   7
BRANCH   3  17
ATOM     17  S   UNL     1       2.266   1.990  18.775  0.00  0.00    +0.000 S 
BRANCH  17  18
ATOM     18  C   UNL     1       0.903   2.998  19.403  0.00  0.00    +0.000 C 
BRANCH  18  19
ATOM     19  C   UNL     1       1.331   3.723  20.660  0.00  0.00    +0.000 C 
ATOM     20  C   UNL     1       1.762   2.908  21.856  0.00  0.00    +0.000 C 
ATOM     21  O   UNL     1       1.280   4.954  20.740  0.00  0.00    +0.000 OA
ENDBRANCH  18  19
ENDBRANCH  17  18
ENDBRANCH   3  17
TORSDOF 12
ENDMDL
MODEL 4
REMARK VINA RESULT:      -5.8      3.103      7.630
REMARK  Name = 
REMARK  13 active torsions:
REMARK  status: ('A' for Active; 'I' for Inactive)
REMARK    1  A    between atoms: C_2  and  C_3
REMARK    2  A    between atoms: C_3  and  C_4
REMARK    3  A    between atoms: C_4  and  C_5
REMARK    4  A    between atoms: C_5  and  C_6
REMARK    5  A    between atoms: C_6  and  C_7
REMARK    6  A    between atoms: C_7  and  C_8
REMARK    7  A    between atoms: C_8  and  C_9
REMARK    8  A    between atoms: C_9  and  C_10
REMARK    9  A    between atoms: C_10  and  C_11
REMARK   10  A    between atoms: C_13  and  S_14
REMARK   11  A    between atoms: S_14  and  C_15
REMARK   12  A    between atoms: C_15  and  C_16
REMARK   13  A    between atoms: C_16  and  C_17
REMARK                            x       y       z     vdW  Elec       q    Type
REMARK                         _______ _______ _______ _____ _____    ______ ____
ROOT
ATOM      1  C   UNL     1       5.010   4.660  18.353  0.00  0.00    +0.000 A 
ATOM      2  N   UNL     1       3.821   4.238  17.977  0.00  0.00    +0.000 NA
ATOM      3  C   UNL     1       3.657   3.082  18.690  0.00  0.00    +0.000 A 
ATOM      4  N   UNL     1       4.691   2.756  19.473  0.00  0.00    +0.000 NA
ATOM      5  N   UNL     1       5.533   3.770  19.248  0.00  0.00    +0.000 N 
ATOM      6  H   UNL     1       6.423   3.797  19.732  0.00  0.00    +0.000 HD
ENDROOT
BRANCH   1   7
ATOM      7  C   UNL     1       5.725   5.897  17.947  0.00  0.00    +0.000 C 
BRANCH   7   8
ATOM      8  C   UNL     1       6.425   5.726  16.596  0.00  0.00    +0.000 C 
BRANCH   8   9
ATOM      9  C   UNL     1       5.500   5.994  15.406  0.00  0.00    +0.000 C 
BRANCH   9  10
ATOM     10  C   UNL     1       5.106   4.712  14.672  0.00  0.00    +0.000 C 
BRANCH  10  11
ATOM     11  C   UNL     1       6.315   3.844  14.342  0.00  0.00    +0.000 C 
BRANCH  11  12
ATOM     12  C   UNL     1       7.164   4.522  13.265  0.00  0.00    +0.000 C 
BRANCH  12  13
ATOM     13  C   UNL     1       6.865   3.950  11.882  0.00  0.00    +0.000 C 
BRANCH  13  14
ATOM     14  C   UNL     1       6.034   2.672  11.993  0.00  0.00    +0.000 C 
BRANCH  14  16
ATOM     15  C   UNL     1       6.154   0.318  11.142  0.00  0.00    +0.000 C 
ATOM     16  C   UNL     1       6.635   1.567  11.174  0.00  0.00    +0.000 C 
ENDBRANCH  14  16
ENDBRANCH  13  14
ENDBRANCH  12  13
ENDBRANCH  11  12
ENDBRANCH  10  11
ENDBRANCH   9  10
ENDBRANCH   8   9
ENDBRANCH   7   8
ENDBRANCH   1   7
BRANCH   3  17
ATOM     17  S   UNL     1       2.238   2.083  18.639  0.00  0.00    +0.000 S 
BRANCH  17  18
ATOM     18  C   UNL     1       0.991   3.248  19.236  0.00  0.00    +0.000 C 
BRANCH  18  19
ATOM     19  C   UNL     1       1.401   3.798  20.586  0.00  0.00    +0.000 C 
ATOM     20  C   UNL     1       1.512   2.846  21.753  0.00  0.00    +0.000 C 
ATOM     21  O   UNL     1       1.589   5.006  20.756  0.00  0.00    +0.000 OA
ENDBRANCH  18  19
ENDBRANCH  17  18
ENDBRANCH   3  17
TORSDOF 12
ENDMDL
MODEL 5
REMARK VINA RESULT:      -5.7      2.215      2.837
REMARK  Name = 
REMARK  13 active torsions:
REMARK  status: ('A' for Active; 'I' for Inactive)
REMARK    1  A    between atoms: C_2  and  C_3
REMARK    2  A    between atoms: C_3  and  C_4
REMARK    3  A    between atoms: C_4  and  C_5
REMARK    4  A    between atoms: C_5  and  C_6
REMARK    5  A    between atoms: C_6  and  C_7
REMARK    6  A    between atoms: C_7  and  C_8
REMARK    7  A    between atoms: C_8  and  C_9
REMARK    8  A    between atoms: C_9  and  C_10
REMARK    9  A    between atoms: C_10  and  C_11
REMARK   10  A    between atoms: C_13  and  S_14
REMARK   11  A    between atoms: S_14  and  C_15
REMARK   12  A    between atoms: C_15  and  C_16
REMARK   13  A    between atoms: C_16  and  C_17
REMARK                            x       y       z     vdW  Elec       q    Type
REMARK                         _______ _______ _______ _____ _____    ______ ____
ROOT
ATOM      1  C   UNL     1       5.675   3.943  18.063  0.00  0.00    +0.000 A 
ATOM      2  N   UNL     1       5.434   4.073  16.775  0.00  0.00    +0.000 NA
ATOM      3  C   UNL     1       6.634   4.492  16.271  0.00  0.00    +0.000 A 
ATOM      4  N   UNL     1       7.601   4.648  17.181  0.00  0.00    +0.000 NA
ATOM      5  N   UNL     1       6.974   4.292  18.307  0.00  0.00    +0.000 N 
ATOM      6  H   UNL     1       7.481   4.300  19.185  0.00  0.00    +0.000 HD
ENDROOT
BRANCH   1   7
ATOM      7  C   UNL     1       4.759   3.476  19.135  0.00  0.00    +0.000 C 
BRANCH   7   8
ATOM      8  C   UNL     1       3.613   2.633  18.570  0.00  0.00    +0.000 C 
BRANCH   8   9
ATOM      9  C   UNL     1       2.444   2.483  19.548  0.00  0.00    +0.000 C 
BRANCH   9  10
ATOM     10  C   UNL     1       1.265   3.390  19.191  0.00  0.00    +0.000 C 
BRANCH  10  11
ATOM     11  C   UNL     1       0.860   4.288  20.354  0.00  0.00    +0.000 C 
BRANCH  11  12
ATOM     12  C   UNL     1       2.056   5.126  20.806  0.00  0.00    +0.000 C 
BRANCH  12  13
ATOM     13  C   UNL     1       2.462   6.137  19.736  0.00  0.00    +0.000 C 
BRANCH  13  14
ATOM     14  C   UNL     1       1.961   7.535  20.095  0.00  0.00    +0.000 C 
BRANCH  14  16
ATOM     15  C   UNL     1       2.598   8.382  17.824  0.00  0.00    +0.000 C 
ATOM     16  C   UNL     1       1.752   8.364  18.862  0.00  0.00    +0.000 C 
ENDBRANCH  14  16
ENDBRANCH  13  14
ENDBRANCH  12  13
ENDBRANCH  11  12
ENDBRANCH  10  11
ENDBRANCH   9  10
ENDBRANCH   8   9
ENDBRANCH   7   8
ENDBRANCH   1   7
BRANCH   3  17
ATOM     17  S   UNL     1       6.945   4.799  14.590  0.00  0.00    +0.000 S 
BRANCH  17  18
ATOM     18  C   UNL     1       5.596   3.867  13.829  0.00  0.00    +0.000 C 
BRANCH  18  19
ATOM     19  C   UNL     1       5.984   3.446  12.428  0.00  0.00    +0.000 C 
ATOM     20  C   UNL     1       7.275   3.968  11.845  0.00  0.00    +0.000 C 
ATOM     21  O   UNL     1       5.243   2.734  11.743  0.00  0.00    +0.000 OA
ENDBRANCH  18  19
ENDBRANCH  17  18
ENDBRANCH   3  17
TORSDOF 12
ENDMDL
MODEL 6
REMARK VINA RESULT:      -5.7      3.232      7.290
REMARK  Name = 
REMARK  13 active torsions:
REMARK  status: ('A' for Active; 'I' for Inactive)
REMARK    1  A    between atoms: C_2  and  C_3
REMARK    2  A    between atoms: C_3  and  C_4
REMARK    3  A    between atoms: C_4  and  C_5
REMARK    4  A    between atoms: C_5  and  C_6
REMARK    5  A    between atoms: C_6  and  C_7
REMARK    6  A    between atoms: C_7  and  C_8
REMARK    7  A    between atoms: C_8  and  C_9
REMARK    8  A    between atoms: C_9  and  C_10
REMARK    9  A    between atoms: C_10  and  C_11
REMARK   10  A    between atoms: C_13  and  S_14
REMARK   11  A    between atoms: S_14  and  C_15
REMARK   12  A    between atoms: C_15  and  C_16
REMARK   13  A    between atoms: C_16  and  C_17
REMARK                            x       y       z     vdW  Elec       q    Type
REMARK                         _______ _______ _______ _____ _____    ______ ____
ROOT
ATOM      1  C   UNL     1       4.546   5.869  18.186  0.00  0.00    +0.000 A 
ATOM      2  N   UNL     1       4.139   5.847  19.438  0.00  0.00    +0.000 NA
ATOM      3  C   UNL     1       2.799   5.594  19.330  0.00  0.00    +0.000 A 
ATOM      4  N   UNL     1       2.351   5.478  18.076  0.00  0.00    +0.000 NA
ATOM      5  N   UNL     1       3.472   5.650  17.369  0.00  0.00    +0.000 N 
ATOM      6  H   UNL     1       3.438   5.600  16.357  0.00  0.00    +0.000 HD
ENDROOT
BRANCH   1   7
ATOM      7  C   UNL     1       5.923   6.061  17.662  0.00  0.00    +0.000 C 
BRANCH   7   8
ATOM      8  C   UNL     1       6.730   4.761  17.706  0.00  0.00    +0.000 C 
BRANCH   8   9
ATOM      9  C   UNL     1       7.263   4.343  16.332  0.00  0.00    +0.000 C 
BRANCH   9  10
ATOM     10  C   UNL     1       6.497   5.001  15.184  0.00  0.00    +0.000 C 
BRANCH  10  11
ATOM     11  C   UNL     1       5.816   3.975  14.285  0.00  0.00    +0.000 C 
BRANCH  11  12
ATOM     12  C   UNL     1       6.490   3.956  12.913  0.00  0.00    +0.000 C 
BRANCH  12  13
ATOM     13  C   UNL     1       5.775   3.005  11.956  0.00  0.00    +0.000 C 
BRANCH  13  14
ATOM     14  C   UNL     1       4.285   3.331  11.883  0.00  0.00    +0.000 C 
BRANCH  14  16
ATOM     15  C   UNL     1       2.911   3.528   9.797  0.00  0.00    +0.000 C 
ATOM     16  C   UNL     1       3.932   3.942  10.559  0.00  0.00    +0.000 C 
ENDBRANCH  14  16
ENDBRANCH  13  14
ENDBRANCH  12  13
ENDBRANCH  11  12
ENDBRANCH  10  11
ENDBRANCH   9  10
ENDBRANCH   8   9
ENDBRANCH   7   8
ENDBRANCH   1   7
BRANCH   3  17
ATOM     17  S   UNL     1       1.718   5.412  20.676  0.00  0.00    +0.000 S 
BRANCH  17  18
ATOM     18  C   UNL     1       1.022   3.781  20.323  0.00  0.00    +0.000 C 
BRANCH  18  19
ATOM     19  C   UNL     1       2.121   2.740  20.316  0.00  0.00    +0.000 C 
ATOM     20  C   UNL     1       2.305   1.889  19.083  0.00  0.00    +0.000 C 
ATOM     21  O   UNL     1       2.825   2.543  21.311  0.00  0.00    +0.000 OA
ENDBRANCH  18  19
ENDBRANCH  17  18
ENDBRANCH   3  17
TORSDOF 12
ENDMDL
MODEL 7
REMARK VINA RESULT:      -5.6      3.525      7.383
REMARK  Name = 
REMARK  13 active torsions:
REMARK  status: ('A' for Active; 'I' for Inactive)
REMARK    1  A    between atoms: C_2  and  C_3
REMARK    2  A    between atoms: C_3  and  C_4
REMARK    3  A    between atoms: C_4  and  C_5
REMARK    4  A    between atoms: C_5  and  C_6
REMARK    5  A    between atoms: C_6  and  C_7
REMARK    6  A    between atoms: C_7  and  C_8
REMARK    7  A    between atoms: C_8  and  C_9
REMARK    8  A    between atoms: C_9  and  C_10
REMARK    9  A    between atoms: C_10  and  C_11
REMARK   10  A    between atoms: C_13  and  S_14
REMARK   11  A    between atoms: S_14  and  C_15
REMARK   12  A    between atoms: C_15  and  C_16
REMARK   13  A    between atoms: C_16  and  C_17
REMARK                            x       y       z     vdW  Elec       q    Type
REMARK                         _______ _______ _______ _____ _____    ______ ____
ROOT
ATOM      1  C   UNL     1       5.940   5.106  18.417  0.00  0.00    +0.000 A 
ATOM      2  N   UNL     1       5.694   3.841  18.691  0.00  0.00    +0.000 NA
ATOM      3  C   UNL     1       4.576   3.900  19.475  0.00  0.00    +0.000 A 
ATOM      4  N   UNL     1       4.127   5.136  19.719  0.00  0.00    +0.000 NA
ATOM      5  N   UNL     1       5.002   5.882  19.037  0.00  0.00    +0.000 N 
ATOM      6  H   UNL     1       4.899   6.891  19.028  0.00  0.00    +0.000 HD
ENDROOT
BRANCH   1   7
ATOM      7  C   UNL     1       7.015   5.678  17.565  0.00  0.00    +0.000 C 
BRANCH   7   8
ATOM      8  C   UNL     1       6.567   5.814  16.108  0.00  0.00    +0.000 C 
BRANCH   8   9
ATOM      9  C   UNL     1       6.681   4.504  15.323  0.00  0.00    +0.000 C 
BRANCH   9  10
ATOM     10  C   UNL     1       6.952   4.736  13.836  0.00  0.00    +0.000 C 
BRANCH  10  11
ATOM     11  C   UNL     1       6.509   3.554  12.981  0.00  0.00    +0.000 C 
BRANCH  11  12
ATOM     12  C   UNL     1       5.008   3.644  12.704  0.00  0.00    +0.000 C 
BRANCH  12  13
ATOM     13  C   UNL     1       4.721   3.672  11.205  0.00  0.00    +0.000 C 
BRANCH  13  14
ATOM     14  C   UNL     1       3.335   3.100  10.910  0.00  0.00    +0.000 C 
BRANCH  14  16
ATOM     15  C   UNL     1       2.521   4.763   9.222  0.00  0.00    +0.000 C 
ATOM     16  C   UNL     1       2.863   3.510   9.546  0.00  0.00    +0.000 C 
ENDBRANCH  14  16
ENDBRANCH  13  14
ENDBRANCH  12  13
ENDBRANCH  11  12
ENDBRANCH  10  11
ENDBRANCH   9  10
ENDBRANCH   8   9
ENDBRANCH   7   8
ENDBRANCH   1   7
BRANCH   3  17
ATOM     17  S   UNL     1       3.750   2.517  20.121  0.00  0.00    +0.000 S 
BRANCH  17  18
ATOM     18  C   UNL     1       2.044   2.908  19.667  0.00  0.00    +0.000 C 
BRANCH  18  19
ATOM     19  C   UNL     1       1.924   3.032  18.163  0.00  0.00    +0.000 C 
ATOM     20  C   UNL     1       1.396   4.322  17.582  0.00  0.00    +0.000 C 
ATOM     21  O   UNL     1       2.195   2.086  17.418  0.00  0.00    +0.000 OA
ENDBRANCH  18  19
ENDBRANCH  17  18
ENDBRANCH   3  17
TORSDOF 12
ENDMDL
MODEL 8
REMARK VINA RESULT:      -5.6      3.476      7.457
REMARK  Name = 
REMARK  13 active torsions:
REMARK  status: ('A' for Active; 'I' for Inactive)
REMARK    1  A    between atoms: C_2  and  C_3
REMARK    2  A    between atoms: C_3  and  C_4
REMARK    3  A    between atoms: C_4  and  C_5
REMARK    4  A    between atoms: C_5  and  C_6
REMARK    5  A    between atoms: C_6  and  C_7
REMARK    6  A    between atoms: C_7  and  C_8
REMARK    7  A    between atoms: C_8  and  C_9
REMARK    8  A    between atoms: C_9  and  C_10
REMARK    9  A    between atoms: C_10  and  C_11
REMARK   10  A    between atoms: C_13  and  S_14
REMARK   11  A    between atoms: S_14  and  C_15
REMARK   12  A    between atoms: C_15  and  C_16
REMARK   13  A    between atoms: C_16  and  C_17
REMARK                            x       y       z     vdW  Elec       q    Type
REMARK                         _______ _______ _______ _____ _____    ______ ____
ROOT
ATOM      1  C   UNL     1       3.751   3.479  17.314  0.00  0.00    +0.000 A 
ATOM      2  N   UNL     1       2.468   3.406  17.607  0.00  0.00    +0.000 NA
ATOM      3  C   UNL     1       2.415   2.413  18.545  0.00  0.00    +0.000 A 
ATOM      4  N   UNL     1       3.593   1.852  18.835  0.00  0.00    +0.000 NA
ATOM      5  N   UNL     1       4.424   2.544  18.048  0.00  0.00    +0.000 N 
ATOM      6  H   UNL     1       5.417   2.339  18.067  0.00  0.00    +0.000 HD
ENDROOT
BRANCH   1   7
ATOM      7  C   UNL     1       4.437   4.407  16.380  0.00  0.00    +0.000 C 
BRANCH   7   8
ATOM      8  C   UNL     1       5.653   5.068  17.033  0.00  0.00    +0.000 C 
BRANCH   8   9
ATOM      9  C   UNL     1       6.551   5.793  16.026  0.00  0.00    +0.000 C 
BRANCH   9  10
ATOM     10  C   UNL     1       7.388   4.826  15.189  0.00  0.00    +0.000 C 
BRANCH  10  11
ATOM     11  C   UNL     1       6.966   4.822  13.724  0.00  0.00    +0.000 C 
BRANCH  11  12
ATOM     12  C   UNL     1       5.967   3.692  13.472  0.00  0.00    +0.000 C 
BRANCH  12  13
ATOM     13  C   UNL     1       5.834   3.390  11.982  0.00  0.00    +0.000 C 
BRANCH  13  14
ATOM     14  C   UNL     1       4.376   3.118  11.614  0.00  0.00    +0.000 C 
BRANCH  14  16
ATOM     15  C   UNL     1       2.832   3.724   9.736  0.00  0.00    +0.000 C 
ATOM     16  C   UNL     1       3.958   3.937  10.429  0.00  0.00    +0.000 C 
ENDBRANCH  14  16
ENDBRANCH  13  14
ENDBRANCH  12  13
ENDBRANCH  11  12
ENDBRANCH  10  11
ENDBRANCH   9  10
ENDBRANCH   8   9
ENDBRANCH   7   8
ENDBRANCH   1   7
BRANCH   3  17
ATOM     17  S   UNL     1       0.966   1.887  19.345  0.00  0.00    +0.000 S 
BRANCH  17  18
ATOM     18  C   UNL     1       0.558   3.368  20.298  0.00  0.00    +0.000 C 
BRANCH  18  19
ATOM     19  C   UNL     1       1.729   3.758  21.175  0.00  0.00    +0.000 C 
ATOM     20  C   UNL     1       2.436   5.064  20.903  0.00  0.00    +0.000 C 
ATOM     21  O   UNL     1       2.142   3.007  22.064  0.00  0.00    +0.000 OA
ENDBRANCH  18  19
ENDBRANCH  17  18
ENDBRANCH   3  17
TORSDOF 12
ENDMDL
MODEL 9
REMARK VINA RESULT:      -5.6      2.978      6.893
REMARK  Name = 
REMARK  13 active torsions:
REMARK  status: ('A' for Active; 'I' for Inactive)
REMARK    1  A    between atoms: C_2  and  C_3
REMARK    2  A    between atoms: C_3  and  C_4
REMARK    3  A    between atoms: C_4  and  C_5
REMARK    4  A    between atoms: C_5  and  C_6
REMARK    5  A    between atoms: C_6  and  C_7
REMARK    6  A    between atoms: C_7  and  C_8
REMARK    7  A    between atoms: C_8  and  C_9
REMARK    8  A    between atoms: C_9  and  C_10
REMARK    9  A    between atoms: C_10  and  C_11
REMARK   10  A    between atoms: C_13  and  S_14
REMARK   11  A    between atoms: S_14  and  C_15
REMARK   12  A    between atoms: C_15  and  C_16
REMARK   13  A    between atoms: C_16  and  C_17
REMARK                            x       y       z     vdW  Elec       q    Type
REMARK                         _______ _______ _______ _____ _____    ______ ____
ROOT
ATOM      1  C   UNL     1       5.408   4.553  19.270  0.00  0.00    +0.000 A 
ATOM      2  N   UNL     1       4.255   5.148  19.492  0.00  0.00    +0.000 NA
ATOM      3  C   UNL     1       3.489   4.157  20.040  0.00  0.00    +0.000 A 
ATOM      4  N   UNL     1       4.101   2.973  20.152  0.00  0.00    +0.000 NA
ATOM      5  N   UNL     1       5.315   3.248  19.663  0.00  0.00    +0.000 N 
ATOM      6  H   UNL     1       6.019   2.518  19.635  0.00  0.00    +0.000 HD
ENDROOT
BRANCH   1   7
ATOM      7  C   UNL     1       6.659   5.133  18.718  0.00  0.00    +0.000 C 
BRANCH   7   8
ATOM      8  C   UNL     1       6.381   6.392  17.893  0.00  0.00    +0.000 C 
BRANCH   8   9
ATOM      9  C   UNL     1       7.058   6.368  16.519  0.00  0.00    +0.000 C 
BRANCH   9  10
ATOM     10  C   UNL     1       6.903   5.019  15.816  0.00  0.00    +0.000 C 
BRANCH  10  11
ATOM     11  C   UNL     1       5.444   4.694  15.511  0.00  0.00    +0.000 C 
BRANCH  11  12
ATOM     12  C   UNL     1       5.354   3.847  14.242  0.00  0.00    +0.000 C 
BRANCH  12  13
ATOM     13  C   UNL     1       6.449   4.220  13.246  0.00  0.00    +0.000 C 
BRANCH  13  14
ATOM     14  C   UNL     1       6.377   3.331  12.005  0.00  0.00    +0.000 C 
BRANCH  14  16
ATOM     15  C   UNL     1       4.100   3.365  10.960  0.00  0.00    +0.000 C 
ATOM     16  C   UNL     1       4.986   2.809  11.797  0.00  0.00    +0.000 C 
ENDBRANCH  14  16
ENDBRANCH  13  14
ENDBRANCH  12  13
ENDBRANCH  11  12
ENDBRANCH  10  11
ENDBRANCH   9  10
ENDBRANCH   8   9
ENDBRANCH   7   8
ENDBRANCH   1   7
BRANCH   3  17
ATOM     17  S   UNL     1       1.852   4.360  20.583  0.00  0.00    +0.000 S 
BRANCH  17  18
ATOM     18  C   UNL     1       1.006   3.149  19.541  0.00  0.00    +0.000 C 
BRANCH  18  19
ATOM     19  C   UNL     1       1.452   3.301  18.102  0.00  0.00    +0.000 C 
ATOM     20  C   UNL     1       2.377   2.262  17.516  0.00  0.00    +0.000 C 
ATOM     21  O   UNL     1       1.119   4.280  17.428  0.00  0.00    +0.000 OA
ENDBRANCH  18  19
ENDBRANCH  17  18
ENDBRANCH   3  17
TORSDOF 12
ENDMDL
