MODEL 1
REMARK VINA RESULT:      -7.7      0.000      0.000
REMARK  Name = 
REMARK  7 active torsions:
REMARK  status: ('A' for Active; 'I' for Inactive)
REMARK    1  A    between atoms: C_1  and  C_2
REMARK    2  A    between atoms: C_3  and  C_4
REMARK    3  A    between atoms: C_4  and  C_5
REMARK    4  A    between atoms: C_5  and  N_6
REMARK    5  A    between atoms: C_9  and  C_10
REMARK    6  A    between atoms: C_15  and  C_16
REMARK    7  A    between atoms: C_15  and  C_17
REMARK                            x       y       z     vdW  Elec       q    Type
REMARK                         _______ _______ _______ _____ _____    ______ ____
ROOT
ATOM      1  C   UNL     1       3.478   3.863  16.877  0.00  0.00    +0.000 C 
ENDROOT
BRANCH   1   2
ATOM      2  N   UNL     1       4.516   4.826  16.413  0.00  0.00    +0.000 NA
ATOM      3  C   UNL     1       4.728   5.919  17.373  0.00  0.00    +0.000 C 
ATOM      4  C   UNL     1       5.876   6.845  16.955  0.00  0.00    +0.000 C 
ATOM      5  C   UNL     1       7.184   6.073  16.787  0.00  0.00    +0.000 C 
ATOM      6  C   UNL     1       6.958   4.933  15.794  0.00  0.00    +0.000 C 
ATOM      7  C   UNL     1       5.759   4.062  16.178  0.00  0.00    +0.000 C 
BRANCH   5   8
ATOM      8  C   UNL     1       7.731   5.578  18.124  0.00  0.00    +0.000 C 
ATOM      9  N   UNL     1       8.075   6.558  19.010  0.00  0.00    +0.000 N 
ATOM     10  O   UNL     1       7.885   4.404  18.425  0.00  0.00    +0.000 OA
ATOM     11  H   UNL     1       8.182   7.527  18.734  0.00  0.00    +0.000 HD
ATOM     12  H   UNL     1       8.495   6.263  19.879  0.00  0.00    +0.000 HD
ENDBRANCH   5   8
ENDBRANCH   1   2
BRANCH   1  13
ATOM     13  C   UNL     1       2.227   4.483  17.537  0.00  0.00    +0.000 C 
BRANCH  13  16
ATOM     14  C   UNL     1       2.362   6.645  19.737  0.00  0.00    +0.000 C 
ATOM     15  C   UNL     1       2.180   5.168  19.990  0.00  0.00    +0.000 C 
ATOM     16  C   UNL     1       2.078   4.198  19.040  0.00  0.00    +0.000 C 
ATOM     17  C   UNL     1       1.771   2.725  19.427  0.00  0.00    +0.000 C 
ATOM     18  C   UNL     1       0.594   2.136  18.612  0.00  0.00    +0.000 C 
ATOM     19  C   UNL     1       3.025   1.861  19.179  0.00  0.00    +0.000 C 
ATOM     20  C   UNL     1       1.347   2.591  20.916  0.00  0.00    +0.000 C 
ATOM     21  C   UNL     1       2.228   3.408  21.839  0.00  0.00    +0.000 C 
ATOM     22  C   UNL     1       2.107   4.878  21.479  0.00  0.00    +0.000 C 
ENDBRANCH  13  16
ENDBRANCH   1  13
TORSDOF 4
ENDMDL
MODEL 2
REMARK VINA RESULT:      -7.3      1.267      1.620
REMARK  Name = 
REMARK  7 active torsions:
REMARK  status: ('A' for Active; 'I' for Inactive)
REMARK    1  A    between atoms: C_1  and  C_2
REMARK    2  A    between atoms: C_3  and  C_4
REMARK    3  A    between atoms: C_4  and  C_5
REMARK    4  A    between atoms: C_5  and  N_6
REMARK    5  A    between atoms: C_9  and  C_10
REMARK    6  A    between atoms: C_15  and  C_16
REMARK    7  A    between atoms: C_15  and  C_17
REMARK                            x       y       z     vdW  Elec       q    Type
REMARK                         _______ _______ _______ _____ _____    ______ ____
ROOT
ATOM      1  C   UNL     1       3.119   5.907  17.605  0.00  0.00    +0.000 C 
ENDROOT
BRANCH   1   2
ATOM      2  N   UNL     1       4.463   5.265  17.537  0.00  0.00    +0.000 NA
ATOM      3  C   UNL     1       5.247   5.740  16.388  0.00  0.00    +0.000 C 
ATOM      4  C   UNL     1       6.671   5.171  16.381  0.00  0.00    +0.000 C 
ATOM      5  C   UNL     1       7.417   5.519  17.669  0.00  0.00    +0.000 C 
ATOM      6  C   UNL     1       6.595   5.031  18.861  0.00  0.00    +0.000 C 
ATOM      7  C   UNL     1       5.152   5.539  18.815  0.00  0.00    +0.000 C 
BRANCH   5   8
ATOM      8  C   UNL     1       7.740   7.009  17.757  0.00  0.00    +0.000 C 
ATOM      9  N   UNL     1       8.410   7.393  18.882  0.00  0.00    +0.000 N 
ATOM     10  O   UNL     1       7.431   7.842  16.918  0.00  0.00    +0.000 OA
ATOM     11  H   UNL     1       8.488   6.799  19.698  0.00  0.00    +0.000 HD
ATOM     12  H   UNL     1       8.585   8.381  18.996  0.00  0.00    +0.000 HD
ENDBRANCH   5   8
ENDBRANCH   1   2
BRANCH   1  13
ATOM     13  C   UNL     1       1.932   4.961  17.889  0.00  0.00    +0.000 C 
BRANCH  13  16
ATOM     14  C   UNL     1       1.941   6.447  20.595  0.00  0.00    +0.000 C 
ATOM     15  C   UNL     1       2.012   4.947  20.435  0.00  0.00    +0.000 C 
ATOM     16  C   UNL     1       1.971   4.264  19.258  0.00  0.00    +0.000 C 
ATOM     17  C   UNL     1       1.931   2.711  19.234  0.00  0.00    +0.000 C 
ATOM     18  C   UNL     1       0.787   2.166  18.345  0.00  0.00    +0.000 C 
ATOM     19  C   UNL     1       3.273   2.175  18.695  0.00  0.00    +0.000 C 
ATOM     20  C   UNL     1       1.674   2.113  20.645  0.00  0.00    +0.000 C 
ATOM     21  C   UNL     1       2.503   2.794  21.716  0.00  0.00    +0.000 C 
ATOM     22  C   UNL     1       2.125   4.263  21.785  0.00  0.00    +0.000 C 
ENDBRANCH  13  16
ENDBRANCH   1  13
TORSDOF 4
ENDMDL
MODEL 3
REMARK VINA RESULT:      -7.3      2.579      5.911
REMARK  Name = 
REMARK  7 active torsions:
REMARK  status: ('A' for Active; 'I' for Inactive)
REMARK    1  A    between atoms: C_1  and  C_2
REMARK    2  A    between atoms: C_3  and  C_4
REMARK    3  A    between atoms: C_4  and  C_5
REMARK    4  A    between atoms: C_5  and  N_6
REMARK    5  A    between atoms: C_9  and  C_10
REMARK    6  A    between atoms: C_15  and  C_16
REMARK    7  A    between atoms: C_15  and  C_17
REMARK                            x       y       z     vdW  Elec       q    Type
REMARK                         _______ _______ _______ _____ _____    ______ ____
ROOT
ATOM      1  C   UNL     1       4.015   2.442  17.570  0.00  0.00    +0.000 C 
ENDROOT
BRANCH   1   2
ATOM      2  N   UNL     1       3.043   2.163  18.664  0.00  0.00    +0.000 NA
ATOM      3  C   UNL     1       3.553   2.579  19.979  0.00  0.00    +0.000 C 
ATOM      4  C   UNL     1       2.510   2.402  21.089  0.00  0.00    +0.000 C 
ATOM      5  C   UNL     1       1.231   3.181  20.784  0.00  0.00    +0.000 C 
ATOM      6  C   UNL     1       0.709   2.752  19.414  0.00  0.00    +0.000 C 
ATOM      7  C   UNL     1       1.782   2.856  18.327  0.00  0.00    +0.000 C 
BRANCH   5   8
ATOM      8  C   UNL     1       1.447   4.690  20.877  0.00  0.00    +0.000 C 
ATOM      9  N   UNL     1       2.553   5.077  21.576  0.00  0.00    +0.000 N 
ATOM     10  O   UNL     1       0.705   5.533  20.394  0.00  0.00    +0.000 OA
ATOM     11  H   UNL     1       3.065   4.445  22.179  0.00  0.00    +0.000 HD
ATOM     12  H   UNL     1       2.689   6.070  21.705  0.00  0.00    +0.000 HD
ENDBRANCH   5   8
ENDBRANCH   1   2
BRANCH   1  13
ATOM     13  C   UNL     1       3.751   3.717  16.739  0.00  0.00    +0.000 C 
BRANCH  13  16
ATOM     14  C   UNL     1       6.006   3.674  14.632  0.00  0.00    +0.000 C 
ATOM     15  C   UNL     1       5.918   4.651  15.780  0.00  0.00    +0.000 C 
ATOM     16  C   UNL     1       4.917   4.718  16.700  0.00  0.00    +0.000 C 
ATOM     17  C   UNL     1       4.880   5.850  17.764  0.00  0.00    +0.000 C 
ATOM     18  C   UNL     1       3.509   6.567  17.813  0.00  0.00    +0.000 C 
ATOM     19  C   UNL     1       5.174   5.251  19.155  0.00  0.00    +0.000 C 
ATOM     20  C   UNL     1       5.917   6.966  17.462  0.00  0.00    +0.000 C 
ATOM     21  C   UNL     1       7.265   6.404  17.057  0.00  0.00    +0.000 C 
ATOM     22  C   UNL     1       7.109   5.593  15.783  0.00  0.00    +0.000 C 
ENDBRANCH  13  16
ENDBRANCH   1  13
TORSDOF 4
ENDMDL
MODEL 4
REMARK VINA RESULT:      -7.3      2.613      6.378
REMARK  Name = 
REMARK  7 active torsions:
REMARK  status: ('A' for Active; 'I' for Inactive)
REMARK    1  A    between atoms: C_1  and  C_2
REMARK    2  A    between atoms: C_3  and  C_4
REMARK    3  A    between atoms: C_4  and  C_5
REMARK    4  A    between atoms: C_5  and  N_6
REMARK    5  A    between atoms: C_9  and  C_10
REMARK    6  A    between atoms: C_15  and  C_16
REMARK    7  A    between atoms: C_15  and  C_17
REMARK                            x       y       z     vdW  Elec       q    Type
REMARK                         _______ _______ _______ _____ _____    ______ ____
ROOT
ATOM      1  C   UNL     1       4.225   5.598  19.526  0.00  0.00    +0.000 C 
ENDROOT
BRANCH   1   2
ATOM      2  N   UNL     1       3.124   4.969  20.310  0.00  0.00    +0.000 NA
ATOM      3  C   UNL     1       1.821   5.100  19.640  0.00  0.00    +0.000 C 
ATOM      4  C   UNL     1       0.708   4.353  20.385  0.00  0.00    +0.000 C 
ATOM      5  C   UNL     1       1.039   2.869  20.541  0.00  0.00    +0.000 C 
ATOM      6  C   UNL     1       2.396   2.737  21.230  0.00  0.00    +0.000 C 
ATOM      7  C   UNL     1       3.484   3.552  20.525  0.00  0.00    +0.000 C 
BRANCH   5   8
ATOM      8  C   UNL     1       0.991   2.130  19.205  0.00  0.00    +0.000 C 
ATOM      9  N   UNL     1       2.015   1.254  18.988  0.00  0.00    +0.000 N 
ATOM     10  O   UNL     1       0.130   2.285  18.352  0.00  0.00    +0.000 OA
ATOM     11  H   UNL     1       2.859   1.255  19.547  0.00  0.00    +0.000 HD
ATOM     12  H   UNL     1       2.042   0.795  18.089  0.00  0.00    +0.000 HD
ENDBRANCH   5   8
ENDBRANCH   1   2
BRANCH   1  13
ATOM     13  C   UNL     1       5.369   4.656  19.091  0.00  0.00    +0.000 C 
BRANCH  13  16
ATOM     14  C   UNL     1       3.477   3.656  16.866  0.00  0.00    +0.000 C 
ATOM     15  C   UNL     1       4.863   4.209  16.634  0.00  0.00    +0.000 C 
ATOM     16  C   UNL     1       5.702   4.692  17.591  0.00  0.00    +0.000 C 
ATOM     17  C   UNL     1       7.060   5.347  17.210  0.00  0.00    +0.000 C 
ATOM     18  C   UNL     1       7.251   6.732  17.875  0.00  0.00    +0.000 C 
ATOM     19  C   UNL     1       8.213   4.423  17.653  0.00  0.00    +0.000 C 
ATOM     20  C   UNL     1       7.172   5.605  15.682  0.00  0.00    +0.000 C 
ATOM     21  C   UNL     1       6.689   4.426  14.864  0.00  0.00    +0.000 C 
ATOM     22  C   UNL     1       5.220   4.176  15.160  0.00  0.00    +0.000 C 
ENDBRANCH  13  16
ENDBRANCH   1  13
TORSDOF 4
ENDMDL
MODEL 5
REMARK VINA RESULT:      -7.2      1.698      2.679
REMARK  Name = 
REMARK  7 active torsions:
REMARK  status: ('A' for Active; 'I' for Inactive)
REMARK    1  A    between atoms: C_1  and  C_2
REMARK    2  A    between atoms: C_3  and  C_4
REMARK    3  A    between atoms: C_4  and  C_5
REMARK    4  A    between atoms: C_5  and  N_6
REMARK    5  A    between atoms: C_9  and  C_10
REMARK    6  A    between atoms: C_15  and  C_16
REMARK    7  A    between atoms: C_15  and  C_17
REMARK                            x       y       z     vdW  Elec       q    Type
REMARK                         _______ _______ _______ _____ _____    ______ ____
ROOT
ATOM      1  C   UNL     1       4.220   3.623  17.137  0.00  0.00    +0.000 C 
ENDROOT
BRANCH   1   2
ATOM      2  N   UNL     1       5.518   3.955  17.789  0.00  0.00    +0.000 NA
ATOM      3  C   UNL     1       6.575   4.242  16.809  0.00  0.00    +0.000 C 
ATOM      4  C   UNL     1       7.878   4.698  17.476  0.00  0.00    +0.000 C 
ATOM      5  C   UNL     1       7.658   5.937  18.343  0.00  0.00    +0.000 C 
ATOM      6  C   UNL     1       6.553   5.638  19.356  0.00  0.00    +0.000 C 
ATOM      7  C   UNL     1       5.284   5.106  18.686  0.00  0.00    +0.000 C 
BRANCH   5   8
ATOM      8  C   UNL     1       7.356   7.176  17.503  0.00  0.00    +0.000 C 
ATOM      9  N   UNL     1       6.399   7.009  16.544  0.00  0.00    +0.000 N 
ATOM     10  O   UNL     1       7.912   8.257  17.627  0.00  0.00    +0.000 OA
ATOM     11  H   UNL     1       6.076   6.095  16.251  0.00  0.00    +0.000 HD
ATOM     12  H   UNL     1       6.220   7.794  15.934  0.00  0.00    +0.000 HD
ENDBRANCH   5   8
ENDBRANCH   1   2
BRANCH   1  13
ATOM     13  C   UNL     1       3.442   2.435  17.745  0.00  0.00    +0.000 C 
BRANCH  13  16
ATOM     14  C   UNL     1       4.796   1.807  20.447  0.00  0.00    +0.000 C 
ATOM     15  C   UNL     1       3.412   2.388  20.292  0.00  0.00    +0.000 C 
ATOM     16  C   UNL     1       2.805   2.711  19.116  0.00  0.00    +0.000 C 
ATOM     17  C   UNL     1       1.421   3.417  19.094  0.00  0.00    +0.000 C 
ATOM     18  C   UNL     1       1.417   4.677  18.196  0.00  0.00    +0.000 C 
ATOM     19  C   UNL     1       0.356   2.433  18.570  0.00  0.00    +0.000 C 
ATOM     20  C   UNL     1       1.002   3.917  20.505  0.00  0.00    +0.000 C 
ATOM     21  C   UNL     1       1.265   2.884  21.582  0.00  0.00    +0.000 C 
ATOM     22  C   UNL     1       2.754   2.592  21.644  0.00  0.00    +0.000 C 
ENDBRANCH  13  16
ENDBRANCH   1  13
TORSDOF 4
ENDMDL
MODEL 6
REMARK VINA RESULT:      -7.1      1.557      2.020
REMARK  Name = 
REMARK  7 active torsions:
REMARK  status: ('A' for Active; 'I' for Inactive)
REMARK    1  A    between atoms: C_1  and  C_2
REMARK    2  A    between atoms: C_3  and  C_4
REMARK    3  A    between atoms: C_4  and  C_5
REMARK    4  A    between atoms: C_5  and  N_6
REMARK    5  A    between atoms: C_9  and  C_10
REMARK    6  A    between atoms: C_15  and  C_16
REMARK    7  A    between atoms: C_15  and  C_17
REMARK                            x       y       z     vdW  Elec       q    Type
REMARK                         _______ _______ _______ _____ _____    ______ ____
ROOT
ATOM      1  C   UNL     1       3.700   6.796  18.379  0.00  0.00    +0.000 C 
ENDROOT
BRANCH   1   2
ATOM      2  N   UNL     1       4.766   6.948  17.349  0.00  0.00    +0.000 NA
ATOM      3  C   UNL     1       6.114   6.807  17.920  0.00  0.00    +0.000 C 
ATOM      4  C   UNL     1       7.207   6.846  16.846  0.00  0.00    +0.000 C 
ATOM      5  C   UNL     1       6.996   5.756  15.795  0.00  0.00    +0.000 C 
ATOM      6  C   UNL     1       5.592   5.902  15.210  0.00  0.00    +0.000 C 
ATOM      7  C   UNL     1       4.515   5.943  16.296  0.00  0.00    +0.000 C 
BRANCH   5   8
ATOM      8  C   UNL     1       7.248   4.360  16.362  0.00  0.00    +0.000 C 
ATOM      9  N   UNL     1       6.502   3.363  15.804  0.00  0.00    +0.000 N 
ATOM     10  O   UNL     1       8.036   4.102  17.259  0.00  0.00    +0.000 OA
ATOM     11  H   UNL     1       5.688   3.548  15.230  0.00  0.00    +0.000 HD
ATOM     12  H   UNL     1       6.603   2.439  16.199  0.00  0.00    +0.000 HD
ENDBRANCH   5   8
ENDBRANCH   1   2
BRANCH   1  13
ATOM     13  C   UNL     1       2.628   5.723  18.090  0.00  0.00    +0.000 C 
BRANCH  13  16
ATOM     14  C   UNL     1       1.276   6.198  20.824  0.00  0.00    +0.000 C 
ATOM     15  C   UNL     1       1.908   4.898  20.390  0.00  0.00    +0.000 C 
ATOM     16  C   UNL     1       2.476   4.648  19.178  0.00  0.00    +0.000 C 
ATOM     17  C   UNL     1       2.986   3.227  18.808  0.00  0.00    +0.000 C 
ATOM     18  C   UNL     1       2.440   2.743  17.443  0.00  0.00    +0.000 C 
ATOM     19  C   UNL     1       4.527   3.239  18.749  0.00  0.00    +0.000 C 
ATOM     20  C   UNL     1       2.524   2.158  19.837  0.00  0.00    +0.000 C 
ATOM     21  C   UNL     1       2.687   2.631  21.268  0.00  0.00    +0.000 C 
ATOM     22  C   UNL     1       1.822   3.859  21.493  0.00  0.00    +0.000 C 
ENDBRANCH  13  16
ENDBRANCH   1  13
TORSDOF 4
ENDMDL
MODEL 7
REMARK VINA RESULT:      -7.1      1.439      2.212
REMARK  Name = 
REMARK  7 active torsions:
REMARK  status: ('A' for Active; 'I' for Inactive)
REMARK    1  A    between atoms: C_1  and  C_2
REMARK    2  A    between atoms: C_3  and  C_4
REMARK    3  A    between atoms: C_4  and  C_5
REMARK    4  A    between atoms: C_5  and  N_6
REMARK    5  A    between atoms: C_9  and  C_10
REMARK    6  A    between atoms: C_15  and  C_16
REMARK    7  A    between atoms: C_15  and  C_17
REMARK                            x       y       z     vdW  Elec       q    Type
REMARK                         _______ _______ _______ _____ _____    ______ ____
ROOT
ATOM      1  C   UNL     1       4.663   2.797  17.327  0.00  0.00    +0.000 C 
ENDROOT
BRANCH   1   2
ATOM      2  N   UNL     1       4.476   4.233  16.975  0.00  0.00    +0.000 NA
ATOM      3  C   UNL     1       4.750   5.123  18.113  0.00  0.00    +0.000 C 
ATOM      4  C   UNL     1       4.674   6.604  17.723  0.00  0.00    +0.000 C 
ATOM      5  C   UNL     1       5.645   6.934  16.590  0.00  0.00    +0.000 C 
ATOM      6  C   UNL     1       5.363   6.001  15.413  0.00  0.00    +0.000 C 
ATOM      7  C   UNL     1       5.361   4.529  15.829  0.00  0.00    +0.000 C 
BRANCH   5   8
ATOM      8  C   UNL     1       7.100   6.867  17.048  0.00  0.00    +0.000 C 
ATOM      9  N   UNL     1       7.667   8.068  17.363  0.00  0.00    +0.000 N 
ATOM     10  O   UNL     1       7.761   5.842  17.129  0.00  0.00    +0.000 OA
ATOM     11  H   UNL     1       7.248   8.952  17.101  0.00  0.00    +0.000 HD
ATOM     12  H   UNL     1       8.645   8.062  17.612  0.00  0.00    +0.000 HD
ENDBRANCH   5   8
ENDBRANCH   1   2
BRANCH   1  13
ATOM     13  C   UNL     1       3.391   2.037  17.764  0.00  0.00    +0.000 C 
BRANCH  13  16
ATOM     14  C   UNL     1       4.802   1.858  20.504  0.00  0.00    +0.000 C 
ATOM     15  C   UNL     1       3.405   2.387  20.287  0.00  0.00    +0.000 C 
ATOM     16  C   UNL     1       2.773   2.514  19.088  0.00  0.00    +0.000 C 
ATOM     17  C   UNL     1       1.376   3.187  18.985  0.00  0.00    +0.000 C 
ATOM     18  C   UNL     1       1.335   4.292  17.901  0.00  0.00    +0.000 C 
ATOM     19  C   UNL     1       0.319   2.118  18.641  0.00  0.00    +0.000 C 
ATOM     20  C   UNL     1       0.973   3.895  20.308  0.00  0.00    +0.000 C 
ATOM     21  C   UNL     1       1.273   3.047  21.527  0.00  0.00    +0.000 C 
ATOM     22  C   UNL     1       2.768   2.790  21.605  0.00  0.00    +0.000 C 
ENDBRANCH  13  16
ENDBRANCH   1  13
TORSDOF 4
ENDMDL
MODEL 8
REMARK VINA RESULT:      -7.1      1.361      1.875
REMARK  Name = 
REMARK  7 active torsions:
REMARK  status: ('A' for Active; 'I' for Inactive)
REMARK    1  A    between atoms: C_1  and  C_2
REMARK    2  A    between atoms: C_3  and  C_4
REMARK    3  A    between atoms: C_4  and  C_5
REMARK    4  A    between atoms: C_5  and  N_6
REMARK    5  A    between atoms: C_9  and  C_10
REMARK    6  A    between atoms: C_15  and  C_16
REMARK    7  A    between atoms: C_15  and  C_17
REMARK                            x       y       z     vdW  Elec       q    Type
REMARK                         _______ _______ _______ _____ _____    ______ ____
ROOT
ATOM      1  C   UNL     1       4.131   4.539  16.646  0.00  0.00    +0.000 C 
ENDROOT
BRANCH   1   2
ATOM      2  N   UNL     1       5.353   4.407  17.489  0.00  0.00    +0.000 NA
ATOM      3  C   UNL     1       6.588   4.555  16.705  0.00  0.00    +0.000 C 
ATOM      4  C   UNL     1       7.842   4.536  17.587  0.00  0.00    +0.000 C 
ATOM      5  C   UNL     1       7.794   5.634  18.649  0.00  0.00    +0.000 C 
ATOM      6  C   UNL     1       6.506   5.482  19.456  0.00  0.00    +0.000 C 
ATOM      7  C   UNL     1       5.266   5.421  18.561  0.00  0.00    +0.000 C 
BRANCH   5   8
ATOM      8  C   UNL     1       7.935   7.026  18.037  0.00  0.00    +0.000 C 
ATOM      9  N   UNL     1       8.563   7.947  18.825  0.00  0.00    +0.000 N 
ATOM     10  O   UNL     1       7.522   7.350  16.933  0.00  0.00    +0.000 OA
ATOM     11  H   UNL     1       8.717   7.800  19.815  0.00  0.00    +0.000 HD
ATOM     12  H   UNL     1       8.618   8.891  18.471  0.00  0.00    +0.000 HD
ENDBRANCH   5   8
ENDBRANCH   1   2
BRANCH   1  13
ATOM     13  C   UNL     1       2.899   3.731  17.107  0.00  0.00    +0.000 C 
BRANCH  13  16
ATOM     14  C   UNL     1       2.023   6.475  18.218  0.00  0.00    +0.000 C 
ATOM     15  C   UNL     1       2.124   5.208  19.033  0.00  0.00    +0.000 C 
ATOM     16  C   UNL     1       2.470   3.978  18.562  0.00  0.00    +0.000 C 
ATOM     17  C   UNL     1       2.420   2.725  19.480  0.00  0.00    +0.000 C 
ATOM     18  C   UNL     1       1.632   1.557  18.839  0.00  0.00    +0.000 C 
ATOM     19  C   UNL     1       3.858   2.250  19.771  0.00  0.00    +0.000 C 
ATOM     20  C   UNL     1       1.699   3.018  20.825  0.00  0.00    +0.000 C 
ATOM     21  C   UNL     1       2.131   4.337  21.432  0.00  0.00    +0.000 C 
ATOM     22  C   UNL     1       1.770   5.468  20.486  0.00  0.00    +0.000 C 
ENDBRANCH  13  16
ENDBRANCH   1  13
TORSDOF 4
ENDMDL
MODEL 9
REMARK VINA RESULT:      -7.1      1.234      2.019
REMARK  Name = 
REMARK  7 active torsions:
REMARK  status: ('A' for Active; 'I' for Inactive)
REMARK    1  A    between atoms: C_1  and  C_2
REMARK    2  A    between atoms: C_3  and  C_4
REMARK    3  A    between atoms: C_4  and  C_5
REMARK    4  A    between atoms: C_5  and  N_6
REMARK    5  A    between atoms: C_9  and  C_10
REMARK    6  A    between atoms: C_15  and  C_16
REMARK    7  A    between atoms: C_15  and  C_17
REMARK                            x       y       z     vdW  Elec       q    Type
REMARK                         _______ _______ _______ _____ _____    ______ ____
ROOT
ATOM      1  C   UNL     1       3.515   3.808  16.728  0.00  0.00    +0.000 C 
ENDROOT
BRANCH   1   2
ATOM      2  N   UNL     1       4.734   4.648  16.558  0.00  0.00    +0.000 NA
ATOM      3  C   UNL     1       4.687   5.868  17.378  0.00  0.00    +0.000 C 
ATOM      4  C   UNL     1       5.988   6.674  17.295  0.00  0.00    +0.000 C 
ATOM      5  C   UNL     1       7.192   5.836  17.723  0.00  0.00    +0.000 C 
ATOM      6  C   UNL     1       7.234   4.566  16.875  0.00  0.00    +0.000 C 
ATOM      7  C   UNL     1       5.903   3.811  16.900  0.00  0.00    +0.000 C 
BRANCH   5   8
ATOM      8  C   UNL     1       7.175   5.535  19.220  0.00  0.00    +0.000 C 
ATOM      9  N   UNL     1       8.395   5.556  19.832  0.00  0.00    +0.000 N 
ATOM     10  O   UNL     1       6.173   5.274  19.869  0.00  0.00    +0.000 OA
ATOM     11  H   UNL     1       9.264   5.541  19.312  0.00  0.00    +0.000 HD
ATOM     12  H   UNL     1       8.422   5.302  20.809  0.00  0.00    +0.000 HD
ENDBRANCH   5   8
ENDBRANCH   1   2
BRANCH   1  13
ATOM     13  C   UNL     1       3.643   2.620  17.707  0.00  0.00    +0.000 C 
BRANCH  13  16
ATOM     14  C   UNL     1       4.955   2.051  20.443  0.00  0.00    +0.000 C 
ATOM     15  C   UNL     1       3.533   2.520  20.250  0.00  0.00    +0.000 C 
ATOM     16  C   UNL     1       2.941   2.816  19.060  0.00  0.00    +0.000 C 
ATOM     17  C   UNL     1       1.505   3.407  19.003  0.00  0.00    +0.000 C 
ATOM     18  C   UNL     1       1.427   4.680  18.126  0.00  0.00    +0.000 C 
ATOM     19  C   UNL     1       0.541   2.350  18.426  0.00  0.00    +0.000 C 
ATOM     20  C   UNL     1       1.000   3.843  20.406  0.00  0.00    +0.000 C 
ATOM     21  C   UNL     1       1.312   2.814  21.474  0.00  0.00    +0.000 C 
ATOM     22  C   UNL     1       2.817   2.643  21.583  0.00  0.00    +0.000 C 
ENDBRANCH  13  16
ENDBRANCH   1  13
TORSDOF 4
ENDMDL
