MODEL 1
REMARK VINA RESULT:      -5.8      0.000      0.000
REMARK  Name = 
REMARK  19 active torsions:
REMARK  status: ('A' for Active; 'I' for Inactive)
REMARK    1  A    between atoms: C_1  and  C_2
REMARK    2  A    between atoms: C_2  and  C_3
REMARK    3  A    between atoms: C_3  and  C_4
REMARK    4  A    between atoms: C_4  and  C_5
REMARK    5  A    between atoms: C_5  and  C_6
REMARK    6  A    between atoms: C_6  and  C_7
REMARK    7  A    between atoms: C_7  and  C_8
REMARK    8  A    between atoms: C_8  and  C_9
REMARK    9  A    between atoms: C_9  and  C_10
REMARK   10  A    between atoms: C_10  and  C_11
REMARK   11  A    between atoms: C_11  and  C_12
REMARK   12  A    between atoms: C_12  and  C_13
REMARK   13  A    between atoms: C_13  and  C_14
REMARK   14  A    between atoms: C_14  and  C_15
REMARK   15  A    between atoms: C_15  and  C_16
REMARK   16  A    between atoms: C_16  and  N_17
REMARK   17  A    between atoms: C_18  and  C_20
REMARK   18  A    between atoms: C_20  and  C_21
REMARK   19  A    between atoms: N_23  and  O_24
REMARK                            x       y       z     vdW  Elec       q    Type
REMARK                         _______ _______ _______ _____ _____    ______ ____
ROOT
ATOM      1  C   UNL     1       2.698   7.984  17.430  0.00  0.00    +0.000 C 
ENDROOT
BRANCH   1   2
ATOM      2  C   UNL     1       2.337   9.191  18.294  0.00  0.00    +0.000 C 
BRANCH   2   3
ATOM      3  N   UNL     1       1.087   9.820  17.917  0.00  0.00    +0.000 N 
ATOM      4  C   UNL     1       0.104   9.996  18.857  0.00  0.00    +0.000 C 
ATOM      5  O   UNL     1       0.178   9.623  20.032  0.00  0.00    +0.000 OA
ATOM      6  H   UNL     1       1.092  10.519  17.186  0.00  0.00    +0.000 HD
BRANCH   4   7
ATOM      7  C   UNL     1      -1.110  10.713  18.339  0.00  0.00    +0.000 C 
ATOM      8  C   UNL     1      -1.609  10.226  16.978  0.00  0.00    +0.000 C 
ATOM      9  C   UNL     1      -2.408   9.897  18.190  0.00  0.00    +0.000 C 
BRANCH   7  10
ATOM     10  C   UNL     1      -1.244  12.144  18.752  0.00  0.00    +0.000 C 
ATOM     11  N   UNL     1      -1.790  12.333  19.988  0.00  0.00    +0.000 N 
ATOM     12  N   UNL     1      -0.752  13.074  17.999  0.00  0.00    +0.000 NA
ATOM     13  H   UNL     1      -2.680  11.881  20.169  0.00  0.00    +0.000 HD
ATOM     14  H   UNL     1      -1.832  13.308  20.284  0.00  0.00    +0.000 HD
BRANCH  12  15
ATOM     15  O   UNL     1      -0.957  14.309  18.661  0.00  0.00    +0.000 OA
ATOM     16  H   UNL     1      -1.418  14.854  18.005  0.00  0.00    +0.000 HD
ENDBRANCH  12  15
ENDBRANCH   7  10
ENDBRANCH   4   7
ENDBRANCH   2   3
ENDBRANCH   1   2
BRANCH   1  17
ATOM     17  C   UNL     1       2.242   6.713  18.137  0.00  0.00    +0.000 C 
BRANCH  17  18
ATOM     18  C   UNL     1       2.902   6.522  19.496  0.00  0.00    +0.000 C 
BRANCH  18  19
ATOM     19  C   UNL     1       1.867   6.017  20.495  0.00  0.00    +0.000 C 
BRANCH  19  20
ATOM     20  C   UNL     1       2.213   4.614  20.967  0.00  0.00    +0.000 C 
BRANCH  20  21
ATOM     21  C   UNL     1       1.091   3.651  20.612  0.00  0.00    +0.000 C 
BRANCH  21  22
ATOM     22  C   UNL     1       1.151   3.303  19.136  0.00  0.00    +0.000 C 
BRANCH  22  23
ATOM     23  C   UNL     1       1.892   1.991  18.939  0.00  0.00    +0.000 C 
BRANCH  23  24
ATOM     24  C   UNL     1       2.886   2.120  17.797  0.00  0.00    +0.000 C 
BRANCH  24  25
ATOM     25  C   UNL     1       3.883   3.226  18.096  0.00  0.00    +0.000 C 
BRANCH  25  26
ATOM     26  C   UNL     1       4.244   3.963  16.816  0.00  0.00    +0.000 C 
BRANCH  26  27
ATOM     27  C   UNL     1       5.480   4.824  17.033  0.00  0.00    +0.000 C 
BRANCH  27  28
ATOM     28  C   UNL     1       5.960   4.710  18.473  0.00  0.00    +0.000 C 
BRANCH  28  30
ATOM     29  C   UNL     1       7.213   6.694  17.604  0.00  0.00    +0.000 C 
ATOM     30  C   UNL     1       7.081   5.707  18.750  0.00  0.00    +0.000 C 
ENDBRANCH  28  30
ENDBRANCH  27  28
ENDBRANCH  26  27
ENDBRANCH  25  26
ENDBRANCH  24  25
ENDBRANCH  23  24
ENDBRANCH  22  23
ENDBRANCH  21  22
ENDBRANCH  20  21
ENDBRANCH  19  20
ENDBRANCH  18  19
ENDBRANCH  17  18
ENDBRANCH   1  17
TORSDOF 18
ENDMDL
MODEL 2
REMARK VINA RESULT:      -5.6      4.543      8.797
REMARK  Name = 
REMARK  19 active torsions:
REMARK  status: ('A' for Active; 'I' for Inactive)
REMARK    1  A    between atoms: C_1  and  C_2
REMARK    2  A    between atoms: C_2  and  C_3
REMARK    3  A    between atoms: C_3  and  C_4
REMARK    4  A    between atoms: C_4  and  C_5
REMARK    5  A    between atoms: C_5  and  C_6
REMARK    6  A    between atoms: C_6  and  C_7
REMARK    7  A    between atoms: C_7  and  C_8
REMARK    8  A    between atoms: C_8  and  C_9
REMARK    9  A    between atoms: C_9  and  C_10
REMARK   10  A    between atoms: C_10  and  C_11
REMARK   11  A    between atoms: C_11  and  C_12
REMARK   12  A    between atoms: C_12  and  C_13
REMARK   13  A    between atoms: C_13  and  C_14
REMARK   14  A    between atoms: C_14  and  C_15
REMARK   15  A    between atoms: C_15  and  C_16
REMARK   16  A    between atoms: C_16  and  N_17
REMARK   17  A    between atoms: C_18  and  C_20
REMARK   18  A    between atoms: C_20  and  C_21
REMARK   19  A    between atoms: N_23  and  O_24
REMARK                            x       y       z     vdW  Elec       q    Type
REMARK                         _______ _______ _______ _____ _____    ______ ____
ROOT
ATOM      1  C   UNL     1       2.168   3.358  21.155  0.00  0.00    +0.000 C 
ENDROOT
BRANCH   1   2
ATOM      2  C   UNL     1       3.277   2.615  20.414  0.00  0.00    +0.000 C 
BRANCH   2   3
ATOM      3  N   UNL     1       4.191   3.491  19.710  0.00  0.00    +0.000 N 
ATOM      4  C   UNL     1       4.347   3.362  18.353  0.00  0.00    +0.000 C 
ATOM      5  O   UNL     1       3.783   2.513  17.657  0.00  0.00    +0.000 OA
ATOM      6  H   UNL     1       4.333   4.431  20.056  0.00  0.00    +0.000 HD
BRANCH   4   7
ATOM      7  C   UNL     1       5.280   4.374  17.750  0.00  0.00    +0.000 C 
ATOM      8  C   UNL     1       5.277   4.416  16.222  0.00  0.00    +0.000 C 
ATOM      9  C   UNL     1       4.652   5.543  16.968  0.00  0.00    +0.000 C 
BRANCH   7  10
ATOM     10  C   UNL     1       6.520   4.662  18.536  0.00  0.00    +0.000 C 
ATOM     11  N   UNL     1       7.681   4.272  17.934  0.00  0.00    +0.000 N 
ATOM     12  N   UNL     1       6.435   5.334  19.637  0.00  0.00    +0.000 NA
ATOM     13  H   UNL     1       7.734   3.308  17.625  0.00  0.00    +0.000 HD
ATOM     14  H   UNL     1       8.524   4.516  18.452  0.00  0.00    +0.000 HD
BRANCH  12  15
ATOM     15  O   UNL     1       7.751   5.517  20.127  0.00  0.00    +0.000 OA
ATOM     16  H   UNL     1       7.744   6.414  20.492  0.00  0.00    +0.000 HD
ENDBRANCH  12  15
ENDBRANCH   7  10
ENDBRANCH   4   7
ENDBRANCH   2   3
ENDBRANCH   1   2
BRANCH   1  17
ATOM     17  C   UNL     1       1.132   3.841  20.145  0.00  0.00    +0.000 C 
BRANCH  17  18
ATOM     18  C   UNL     1       1.505   5.171  19.505  0.00  0.00    +0.000 C 
BRANCH  18  19
ATOM     19  C   UNL     1       1.713   6.216  20.596  0.00  0.00    +0.000 C 
BRANCH  19  20
ATOM     20  C   UNL     1       2.123   7.550  19.995  0.00  0.00    +0.000 C 
BRANCH  20  21
ATOM     21  C   UNL     1       2.171   7.449  18.479  0.00  0.00    +0.000 C 
BRANCH  21  22
ATOM     22  C   UNL     1       1.998   8.824  17.860  0.00  0.00    +0.000 C 
BRANCH  22  23
ATOM     23  C   UNL     1       1.074   9.671  18.718  0.00  0.00    +0.000 C 
BRANCH  23  24
ATOM     24  C   UNL     1      -0.112  10.146  17.896  0.00  0.00    +0.000 C 
BRANCH  24  25
ATOM     25  C   UNL     1      -1.360  10.199  18.761  0.00  0.00    +0.000 C 
BRANCH  25  26
ATOM     26  C   UNL     1      -2.599  10.278  17.884  0.00  0.00    +0.000 C 
BRANCH  26  27
ATOM     27  C   UNL     1      -3.408  11.521  18.222  0.00  0.00    +0.000 C 
BRANCH  27  28
ATOM     28  C   UNL     1      -2.736  12.303  19.344  0.00  0.00    +0.000 C 
BRANCH  28  30
ATOM     29  C   UNL     1      -3.113  12.652  21.793  0.00  0.00    +0.000 C 
ATOM     30  C   UNL     1      -3.749  12.690  20.415  0.00  0.00    +0.000 C 
ENDBRANCH  28  30
ENDBRANCH  27  28
ENDBRANCH  26  27
ENDBRANCH  25  26
ENDBRANCH  24  25
ENDBRANCH  23  24
ENDBRANCH  22  23
ENDBRANCH  21  22
ENDBRANCH  20  21
ENDBRANCH  19  20
ENDBRANCH  18  19
ENDBRANCH  17  18
ENDBRANCH   1  17
TORSDOF 18
ENDMDL
MODEL 3
REMARK VINA RESULT:      -5.6      4.489      8.071
REMARK  Name = 
REMARK  19 active torsions:
REMARK  status: ('A' for Active; 'I' for Inactive)
REMARK    1  A    between atoms: C_1  and  C_2
REMARK    2  A    between atoms: C_2  and  C_3
REMARK    3  A    between atoms: C_3  and  C_4
REMARK    4  A    between atoms: C_4  and  C_5
REMARK    5  A    between atoms: C_5  and  C_6
REMARK    6  A    between atoms: C_6  and  C_7
REMARK    7  A    between atoms: C_7  and  C_8
REMARK    8  A    between atoms: C_8  and  C_9
REMARK    9  A    between atoms: C_9  and  C_10
REMARK   10  A    between atoms: C_10  and  C_11
REMARK   11  A    between atoms: C_11  and  C_12
REMARK   12  A    between atoms: C_12  and  C_13
REMARK   13  A    between atoms: C_13  and  C_14
REMARK   14  A    between atoms: C_14  and  C_15
REMARK   15  A    between atoms: C_15  and  C_16
REMARK   16  A    between atoms: C_16  and  N_17
REMARK   17  A    between atoms: C_18  and  C_20
REMARK   18  A    between atoms: C_20  and  C_21
REMARK   19  A    between atoms: N_23  and  O_24
REMARK                            x       y       z     vdW  Elec       q    Type
REMARK                         _______ _______ _______ _____ _____    ______ ____
ROOT
ATOM      1  C   UNL     1       2.201   2.521  17.759  0.00  0.00    +0.000 C 
ENDROOT
BRANCH   1   2
ATOM      2  C   UNL     1       3.696   2.470  18.067  0.00  0.00    +0.000 C 
BRANCH   2   3
ATOM      3  N   UNL     1       4.305   3.779  18.198  0.00  0.00    +0.000 N 
ATOM      4  C   UNL     1       4.936   4.347  17.120  0.00  0.00    +0.000 C 
ATOM      5  O   UNL     1       5.065   3.809  16.016  0.00  0.00    +0.000 OA
ATOM      6  H   UNL     1       3.897   4.446  18.839  0.00  0.00    +0.000 HD
BRANCH   4   7
ATOM      7  C   UNL     1       5.467   5.727  17.385  0.00  0.00    +0.000 C 
ATOM      8  C   UNL     1       5.379   6.685  16.197  0.00  0.00    +0.000 C 
ATOM      9  C   UNL     1       4.463   6.894  17.352  0.00  0.00    +0.000 C 
BRANCH   7  10
ATOM     10  C   UNL     1       6.585   5.812  18.375  0.00  0.00    +0.000 C 
ATOM     11  N   UNL     1       7.672   6.517  17.950  0.00  0.00    +0.000 N 
ATOM     12  N   UNL     1       6.421   5.332  19.565  0.00  0.00    +0.000 NA
ATOM     13  H   UNL     1       8.075   6.244  17.059  0.00  0.00    +0.000 HD
ATOM     14  H   UNL     1       8.409   6.613  18.647  0.00  0.00    +0.000 HD
BRANCH  12  15
ATOM     15  O   UNL     1       7.598   5.609  20.301  0.00  0.00    +0.000 OA
ATOM     16  H   UNL     1       7.426   6.475  20.703  0.00  0.00    +0.000 HD
ENDBRANCH  12  15
ENDBRANCH   7  10
ENDBRANCH   4   7
ENDBRANCH   2   3
ENDBRANCH   1   2
BRANCH   1  17
ATOM     17  C   UNL     1       1.423   2.124  19.009  0.00  0.00    +0.000 C 
BRANCH  17  18
ATOM     18  C   UNL     1       0.830   3.321  19.740  0.00  0.00    +0.000 C 
BRANCH  18  19
ATOM     19  C   UNL     1       1.812   3.803  20.802  0.00  0.00    +0.000 C 
BRANCH  19  20
ATOM     20  C   UNL     1       1.621   5.284  21.082  0.00  0.00    +0.000 C 
BRANCH  20  21
ATOM     21  C   UNL     1       2.528   6.108  20.182  0.00  0.00    +0.000 C 
BRANCH  21  22
ATOM     22  C   UNL     1       1.801   7.356  19.714  0.00  0.00    +0.000 C 
BRANCH  22  23
ATOM     23  C   UNL     1       1.529   8.276  20.893  0.00  0.00    +0.000 C 
BRANCH  23  24
ATOM     24  C   UNL     1       0.153   8.905  20.756  0.00  0.00    +0.000 C 
BRANCH  24  25
ATOM     25  C   UNL     1       0.193  10.033  19.740  0.00  0.00    +0.000 C 
BRANCH  25  26
ATOM     26  C   UNL     1      -1.058  10.003  18.877  0.00  0.00    +0.000 C 
BRANCH  26  27
ATOM     27  C   UNL     1      -1.528  11.419  18.579  0.00  0.00    +0.000 C 
BRANCH  27  28
ATOM     28  C   UNL     1      -2.293  11.458  17.263  0.00  0.00    +0.000 C 
BRANCH  28  30
ATOM     29  C   UNL     1      -2.890   9.774  15.512  0.00  0.00    +0.000 C 
ATOM     30  C   UNL     1      -2.966  10.118  16.988  0.00  0.00    +0.000 C 
ENDBRANCH  28  30
ENDBRANCH  27  28
ENDBRANCH  26  27
ENDBRANCH  25  26
ENDBRANCH  24  25
ENDBRANCH  23  24
ENDBRANCH  22  23
ENDBRANCH  21  22
ENDBRANCH  20  21
ENDBRANCH  19  20
ENDBRANCH  18  19
ENDBRANCH  17  18
ENDBRANCH   1  17
TORSDOF 18
ENDMDL
MODEL 4
REMARK VINA RESULT:      -5.6      4.974      7.642
REMARK  Name = 
REMARK  19 active torsions:
REMARK  status: ('A' for Active; 'I' for Inactive)
REMARK    1  A    between atoms: C_1  and  C_2
REMARK    2  A    between atoms: C_2  and  C_3
REMARK    3  A    between atoms: C_3  and  C_4
REMARK    4  A    between atoms: C_4  and  C_5
REMARK    5  A    between atoms: C_5  and  C_6
REMARK    6  A    between atoms: C_6  and  C_7
REMARK    7  A    between atoms: C_7  and  C_8
REMARK    8  A    between atoms: C_8  and  C_9
REMARK    9  A    between atoms: C_9  and  C_10
REMARK   10  A    between atoms: C_10  and  C_11
REMARK   11  A    between atoms: C_11  and  C_12
REMARK   12  A    between atoms: C_12  and  C_13
REMARK   13  A    between atoms: C_13  and  C_14
REMARK   14  A    between atoms: C_14  and  C_15
REMARK   15  A    between atoms: C_15  and  C_16
REMARK   16  A    between atoms: C_16  and  N_17
REMARK   17  A    between atoms: C_18  and  C_20
REMARK   18  A    between atoms: C_20  and  C_21
REMARK   19  A    between atoms: N_23  and  O_24
REMARK                            x       y       z     vdW  Elec       q    Type
REMARK                         _______ _______ _______ _____ _____    ______ ____
ROOT
ATOM      1  C   UNL     1       8.110   7.682  18.153  0.00  0.00    +0.000 C 
ENDROOT
BRANCH   1   2
ATOM      2  C   UNL     1       8.028   9.169  17.815  0.00  0.00    +0.000 C 
BRANCH   2   3
ATOM      3  N   UNL     1       8.997   9.979  18.525  0.00  0.00    +0.000 N 
ATOM      4  C   UNL     1       9.039  11.333  18.312  0.00  0.00    +0.000 C 
ATOM      5  O   UNL     1       8.320  11.943  17.514  0.00  0.00    +0.000 OA
ATOM      6  H   UNL     1       9.285   9.696  19.453  0.00  0.00    +0.000 HD
BRANCH   4   7
ATOM      7  C   UNL     1      10.051  12.050  19.159  0.00  0.00    +0.000 C 
ATOM      8  C   UNL     1      11.434  11.398  19.193  0.00  0.00    +0.000 C 
ATOM      9  C   UNL     1      11.265  12.673  18.442  0.00  0.00    +0.000 C 
BRANCH   7  10
ATOM     10  C   UNL     1       9.504  12.782  20.343  0.00  0.00    +0.000 C 
ATOM     11  N   UNL     1       8.520  13.681  20.054  0.00  0.00    +0.000 N 
ATOM     12  N   UNL     1       9.896  12.456  21.531  0.00  0.00    +0.000 NA
ATOM     13  H   UNL     1       8.726  14.371  19.339  0.00  0.00    +0.000 HD
ATOM     14  H   UNL     1       8.117  14.140  20.870  0.00  0.00    +0.000 HD
BRANCH  12  15
ATOM     15  O   UNL     1       9.173  13.252  22.452  0.00  0.00    +0.000 OA
ATOM     16  H   UNL     1       9.051  12.674  23.220  0.00  0.00    +0.000 HD
ENDBRANCH  12  15
ENDBRANCH   7  10
ENDBRANCH   4   7
ENDBRANCH   2   3
ENDBRANCH   1   2
BRANCH   1  17
ATOM     17  C   UNL     1       7.015   6.939  17.396  0.00  0.00    +0.000 C 
BRANCH  17  18
ATOM     18  C   UNL     1       6.723   5.563  17.978  0.00  0.00    +0.000 C 
BRANCH  18  19
ATOM     19  C   UNL     1       6.928   4.503  16.901  0.00  0.00    +0.000 C 
BRANCH  19  20
ATOM     20  C   UNL     1       5.595   4.018  16.360  0.00  0.00    +0.000 C 
BRANCH  20  21
ATOM     21  C   UNL     1       4.635   3.738  17.506  0.00  0.00    +0.000 C 
BRANCH  21  22
ATOM     22  C   UNL     1       3.201   3.805  17.012  0.00  0.00    +0.000 C 
BRANCH  22  23
ATOM     23  C   UNL     1       2.394   2.657  17.595  0.00  0.00    +0.000 C 
BRANCH  23  24
ATOM     24  C   UNL     1       1.256   3.198  18.443  0.00  0.00    +0.000 C 
BRANCH  24  25
ATOM     25  C   UNL     1       1.647   3.185  19.911  0.00  0.00    +0.000 C 
BRANCH  25  26
ATOM     26  C   UNL     1       1.428   4.560  20.522  0.00  0.00    +0.000 C 
BRANCH  26  27
ATOM     27  C   UNL     1       2.662   5.427  20.327  0.00  0.00    +0.000 C 
BRANCH  27  28
ATOM     28  C   UNL     1       2.279   6.766  19.711  0.00  0.00    +0.000 C 
BRANCH  28  30
ATOM     29  C   UNL     1       2.594   8.297  17.757  0.00  0.00    +0.000 C 
ATOM     30  C   UNL     1       3.031   6.996  18.405  0.00  0.00    +0.000 C 
ENDBRANCH  28  30
ENDBRANCH  27  28
ENDBRANCH  26  27
ENDBRANCH  25  26
ENDBRANCH  24  25
ENDBRANCH  23  24
ENDBRANCH  22  23
ENDBRANCH  21  22
ENDBRANCH  20  21
ENDBRANCH  19  20
ENDBRANCH  18  19
ENDBRANCH  17  18
ENDBRANCH   1  17
TORSDOF 18
ENDMDL
MODEL 5
REMARK VINA RESULT:      -5.6      4.639      8.132
REMARK  Name = 
REMARK  19 active torsions:
REMARK  status: ('A' for Active; 'I' for Inactive)
REMARK    1  A    between atoms: C_1  and  C_2
REMARK    2  A    between atoms: C_2  and  C_3
REMARK    3  A    between atoms: C_3  and  C_4
REMARK    4  A    between atoms: C_4  and  C_5
REMARK    5  A    between atoms: C_5  and  C_6
REMARK    6  A    between atoms: C_6  and  C_7
REMARK    7  A    between atoms: C_7  and  C_8
REMARK    8  A    between atoms: C_8  and  C_9
REMARK    9  A    between atoms: C_9  and  C_10
REMARK   10  A    between atoms: C_10  and  C_11
REMARK   11  A    between atoms: C_11  and  C_12
REMARK   12  A    between atoms: C_12  and  C_13
REMARK   13  A    between atoms: C_13  and  C_14
REMARK   14  A    between atoms: C_14  and  C_15
REMARK   15  A    between atoms: C_15  and  C_16
REMARK   16  A    between atoms: C_16  and  N_17
REMARK   17  A    between atoms: C_18  and  C_20
REMARK   18  A    between atoms: C_20  and  C_21
REMARK   19  A    between atoms: N_23  and  O_24
REMARK                            x       y       z     vdW  Elec       q    Type
REMARK                         _______ _______ _______ _____ _____    ______ ____
ROOT
ATOM      1  C   UNL     1       3.250   1.644  18.964  0.00  0.00    +0.000 C 
ENDROOT
BRANCH   1   2
ATOM      2  C   UNL     1       4.049   2.238  17.807  0.00  0.00    +0.000 C 
BRANCH   2   3
ATOM      3  N   UNL     1       4.548   3.573  18.072  0.00  0.00    +0.000 N 
ATOM      4  C   UNL     1       5.149   4.287  17.067  0.00  0.00    +0.000 C 
ATOM      5  O   UNL     1       5.340   3.867  15.922  0.00  0.00    +0.000 OA
ATOM      6  H   UNL     1       4.077   4.143  18.762  0.00  0.00    +0.000 HD
BRANCH   4   7
ATOM      7  C   UNL     1       5.563   5.673  17.471  0.00  0.00    +0.000 C 
ATOM      8  C   UNL     1       5.352   6.742  16.398  0.00  0.00    +0.000 C 
ATOM      9  C   UNL     1       4.458   6.740  17.588  0.00  0.00    +0.000 C 
BRANCH   7  10
ATOM     10  C   UNL     1       6.699   5.754  18.440  0.00  0.00    +0.000 C 
ATOM     11  N   UNL     1       7.753   6.513  18.022  0.00  0.00    +0.000 N 
ATOM     12  N   UNL     1       6.578   5.220  19.611  0.00  0.00    +0.000 NA
ATOM     13  H   UNL     1       8.145   6.291  17.112  0.00  0.00    +0.000 HD
ATOM     14  H   UNL     1       8.502   6.604  18.706  0.00  0.00    +0.000 HD
BRANCH  12  15
ATOM     15  O   UNL     1       7.762   5.505  20.334  0.00  0.00    +0.000 OA
ATOM     16  H   UNL     1       8.305   6.007  19.707  0.00  0.00    +0.000 HD
ENDBRANCH  12  15
ENDBRANCH   7  10
ENDBRANCH   4   7
ENDBRANCH   2   3
ENDBRANCH   1   2
BRANCH   1  17
ATOM     17  C   UNL     1       2.934   2.747  19.968  0.00  0.00    +0.000 C 
BRANCH  17  18
ATOM     18  C   UNL     1       1.521   2.650  20.527  0.00  0.00    +0.000 C 
BRANCH  18  19
ATOM     19  C   UNL     1       0.834   4.005  20.404  0.00  0.00    +0.000 C 
BRANCH  19  20
ATOM     20  C   UNL     1       1.749   5.017  19.736  0.00  0.00    +0.000 C 
BRANCH  20  21
ATOM     21  C   UNL     1       2.279   6.004  20.765  0.00  0.00    +0.000 C 
BRANCH  21  22
ATOM     22  C   UNL     1       1.923   7.422  20.356  0.00  0.00    +0.000 C 
BRANCH  22  23
ATOM     23  C   UNL     1       0.608   7.835  20.994  0.00  0.00    +0.000 C 
BRANCH  23  24
ATOM     24  C   UNL     1       0.832   9.000  21.944  0.00  0.00    +0.000 C 
BRANCH  24  25
ATOM     25  C   UNL     1      -0.425   9.262  22.756  0.00  0.00    +0.000 C 
BRANCH  25  26
ATOM     26  C   UNL     1      -0.703  10.755  22.820  0.00  0.00    +0.000 C 
BRANCH  26  27
ATOM     27  C   UNL     1      -0.093  11.458  21.617  0.00  0.00    +0.000 C 
BRANCH  27  28
ATOM     28  C   UNL     1      -1.161  11.739  20.568  0.00  0.00    +0.000 C 
BRANCH  28  30
ATOM     29  C   UNL     1      -1.210  10.155  18.631  0.00  0.00    +0.000 C 
ATOM     30  C   UNL     1      -0.632  11.452  19.167  0.00  0.00    +0.000 C 
ENDBRANCH  28  30
ENDBRANCH  27  28
ENDBRANCH  26  27
ENDBRANCH  25  26
ENDBRANCH  24  25
ENDBRANCH  23  24
ENDBRANCH  22  23
ENDBRANCH  21  22
ENDBRANCH  20  21
ENDBRANCH  19  20
ENDBRANCH  18  19
ENDBRANCH  17  18
ENDBRANCH   1  17
TORSDOF 18
ENDMDL
MODEL 6
REMARK VINA RESULT:      -5.6      4.107      7.163
REMARK  Name = 
REMARK  19 active torsions:
REMARK  status: ('A' for Active; 'I' for Inactive)
REMARK    1  A    between atoms: C_1  and  C_2
REMARK    2  A    between atoms: C_2  and  C_3
REMARK    3  A    between atoms: C_3  and  C_4
REMARK    4  A    between atoms: C_4  and  C_5
REMARK    5  A    between atoms: C_5  and  C_6
REMARK    6  A    between atoms: C_6  and  C_7
REMARK    7  A    between atoms: C_7  and  C_8
REMARK    8  A    between atoms: C_8  and  C_9
REMARK    9  A    between atoms: C_9  and  C_10
REMARK   10  A    between atoms: C_10  and  C_11
REMARK   11  A    between atoms: C_11  and  C_12
REMARK   12  A    between atoms: C_12  and  C_13
REMARK   13  A    between atoms: C_13  and  C_14
REMARK   14  A    between atoms: C_14  and  C_15
REMARK   15  A    between atoms: C_15  and  C_16
REMARK   16  A    between atoms: C_16  and  N_17
REMARK   17  A    between atoms: C_18  and  C_20
REMARK   18  A    between atoms: C_20  and  C_21
REMARK   19  A    between atoms: N_23  and  O_24
REMARK                            x       y       z     vdW  Elec       q    Type
REMARK                         _______ _______ _______ _____ _____    ______ ____
ROOT
ATOM      1  C   UNL     1       2.126   7.506  20.450  0.00  0.00    +0.000 C 
ENDROOT
BRANCH   1   2
ATOM      2  C   UNL     1       1.459   6.164  20.745  0.00  0.00    +0.000 C 
BRANCH   2   3
ATOM      3  N   UNL     1       2.261   5.021  20.355  0.00  0.00    +0.000 N 
ATOM      4  C   UNL     1       1.652   3.914  19.822  0.00  0.00    +0.000 C 
ATOM      5  O   UNL     1       0.434   3.784  19.670  0.00  0.00    +0.000 OA
ATOM      6  H   UNL     1       3.204   5.176  20.025  0.00  0.00    +0.000 HD
BRANCH   4   7
ATOM      7  C   UNL     1       2.611   2.833  19.411  0.00  0.00    +0.000 C 
ATOM      8  C   UNL     1       2.072   1.868  18.354  0.00  0.00    +0.000 C 
ATOM      9  C   UNL     1       3.119   2.849  17.957  0.00  0.00    +0.000 C 
BRANCH   7  10
ATOM     10  C   UNL     1       3.568   2.379  20.467  0.00  0.00    +0.000 C 
ATOM     11  N   UNL     1       3.030   2.269  21.716  0.00  0.00    +0.000 N 
ATOM     12  N   UNL     1       4.765   2.023  20.132  0.00  0.00    +0.000 NA
ATOM     13  H   UNL     1       2.542   3.081  22.077  0.00  0.00    +0.000 HD
ATOM     14  H   UNL     1       3.674   1.911  22.420  0.00  0.00    +0.000 HD
BRANCH  12  15
ATOM     15  O   UNL     1       5.420   1.577  21.306  0.00  0.00    +0.000 OA
ATOM     16  H   UNL     1       6.263   1.223  20.985  0.00  0.00    +0.000 HD
ENDBRANCH  12  15
ENDBRANCH   7  10
ENDBRANCH   4   7
ENDBRANCH   2   3
ENDBRANCH   1   2
BRANCH   1  17
ATOM     17  C   UNL     1       1.675   7.994  19.078  0.00  0.00    +0.000 C 
BRANCH  17  18
ATOM     18  C   UNL     1       2.834   8.192  18.111  0.00  0.00    +0.000 C 
BRANCH  18  19
ATOM     19  C   UNL     1       3.238   6.844  17.523  0.00  0.00    +0.000 C 
BRANCH  19  20
ATOM     20  C   UNL     1       4.745   6.660  17.581  0.00  0.00    +0.000 C 
BRANCH  20  21
ATOM     21  C   UNL     1       5.111   5.673  18.678  0.00  0.00    +0.000 C 
BRANCH  21  22
ATOM     22  C   UNL     1       6.591   5.777  18.999  0.00  0.00    +0.000 C 
BRANCH  22  23
ATOM     23  C   UNL     1       7.400   5.859  17.715  0.00  0.00    +0.000 C 
BRANCH  23  24
ATOM     24  C   UNL     1       7.604   4.469  17.138  0.00  0.00    +0.000 C 
BRANCH  24  25
ATOM     25  C   UNL     1       7.191   4.443  15.677  0.00  0.00    +0.000 C 
BRANCH  25  26
ATOM     26  C   UNL     1       5.740   4.008  15.553  0.00  0.00    +0.000 C 
BRANCH  26  27
ATOM     27  C   UNL     1       5.268   4.143  14.113  0.00  0.00    +0.000 C 
BRANCH  27  28
ATOM     28  C   UNL     1       6.410   3.845  13.150  0.00  0.00    +0.000 C 
BRANCH  28  30
ATOM     29  C   UNL     1       4.480   3.340  11.640  0.00  0.00    +0.000 C 
ATOM     30  C   UNL     1       5.922   3.004  11.976  0.00  0.00    +0.000 C 
ENDBRANCH  28  30
ENDBRANCH  27  28
ENDBRANCH  26  27
ENDBRANCH  25  26
ENDBRANCH  24  25
ENDBRANCH  23  24
ENDBRANCH  22  23
ENDBRANCH  21  22
ENDBRANCH  20  21
ENDBRANCH  19  20
ENDBRANCH  18  19
ENDBRANCH  17  18
ENDBRANCH   1  17
TORSDOF 18
ENDMDL
MODEL 7
REMARK VINA RESULT:      -5.6      4.590      7.684
REMARK  Name = 
REMARK  19 active torsions:
REMARK  status: ('A' for Active; 'I' for Inactive)
REMARK    1  A    between atoms: C_1  and  C_2
REMARK    2  A    between atoms: C_2  and  C_3
REMARK    3  A    between atoms: C_3  and  C_4
REMARK    4  A    between atoms: C_4  and  C_5
REMARK    5  A    between atoms: C_5  and  C_6
REMARK    6  A    between atoms: C_6  and  C_7
REMARK    7  A    between atoms: C_7  and  C_8
REMARK    8  A    between atoms: C_8  and  C_9
REMARK    9  A    between atoms: C_9  and  C_10
REMARK   10  A    between atoms: C_10  and  C_11
REMARK   11  A    between atoms: C_11  and  C_12
REMARK   12  A    between atoms: C_12  and  C_13
REMARK   13  A    between atoms: C_13  and  C_14
REMARK   14  A    between atoms: C_14  and  C_15
REMARK   15  A    between atoms: C_15  and  C_16
REMARK   16  A    between atoms: C_16  and  N_17
REMARK   17  A    between atoms: C_18  and  C_20
REMARK   18  A    between atoms: C_20  and  C_21
REMARK   19  A    between atoms: N_23  and  O_24
REMARK                            x       y       z     vdW  Elec       q    Type
REMARK                         _______ _______ _______ _____ _____    ______ ____
ROOT
ATOM      1  C   UNL     1       2.680   7.623  18.484  0.00  0.00    +0.000 C 
ENDROOT
BRANCH   1   2
ATOM      2  C   UNL     1       2.042   6.256  18.245  0.00  0.00    +0.000 C 
BRANCH   2   3
ATOM      3  N   UNL     1       2.454   5.249  19.203  0.00  0.00    +0.000 N 
ATOM      4  C   UNL     1       1.884   4.002  19.167  0.00  0.00    +0.000 C 
ATOM      5  O   UNL     1       0.995   3.657  18.384  0.00  0.00    +0.000 OA
ATOM      6  H   UNL     1       3.405   5.261  19.546  0.00  0.00    +0.000 HD
BRANCH   4   7
ATOM      7  C   UNL     1       2.450   3.047  20.179  0.00  0.00    +0.000 C 
ATOM      8  C   UNL     1       2.451   3.565  21.617  0.00  0.00    +0.000 C 
ATOM      9  C   UNL     1       1.489   2.492  21.247  0.00  0.00    +0.000 C 
BRANCH   7  10
ATOM     10  C   UNL     1       3.521   2.131  19.679  0.00  0.00    +0.000 C 
ATOM     11  N   UNL     1       4.686   2.173  20.388  0.00  0.00    +0.000 N 
ATOM     12  N   UNL     1       3.258   1.308  18.717  0.00  0.00    +0.000 NA
ATOM     13  H   UNL     1       5.106   3.087  20.524  0.00  0.00    +0.000 HD
ATOM     14  H   UNL     1       5.394   1.512  20.073  0.00  0.00    +0.000 HD
BRANCH  12  15
ATOM     15  O   UNL     1       4.418   0.525  18.498  0.00  0.00    +0.000 OA
ATOM     16  H   UNL     1       4.937   0.642  19.308  0.00  0.00    +0.000 HD
ENDBRANCH  12  15
ENDBRANCH   7  10
ENDBRANCH   4   7
ENDBRANCH   2   3
ENDBRANCH   1   2
BRANCH   1  17
ATOM     17  C   UNL     1       3.758   7.858  17.431  0.00  0.00    +0.000 C 
BRANCH  17  18
ATOM     18  C   UNL     1       4.583   6.613  17.141  0.00  0.00    +0.000 C 
BRANCH  18  19
ATOM     19  C   UNL     1       6.053   6.997  17.012  0.00  0.00    +0.000 C 
BRANCH  19  20
ATOM     20  C   UNL     1       6.874   6.378  18.130  0.00  0.00    +0.000 C 
BRANCH  20  21
ATOM     21  C   UNL     1       7.409   5.022  17.698  0.00  0.00    +0.000 C 
BRANCH  21  22
ATOM     22  C   UNL     1       7.142   4.804  16.220  0.00  0.00    +0.000 C 
BRANCH  22  23
ATOM     23  C   UNL     1       6.155   3.665  16.030  0.00  0.00    +0.000 C 
BRANCH  23  24
ATOM     24  C   UNL     1       5.518   3.751  14.654  0.00  0.00    +0.000 C 
BRANCH  24  25
ATOM     25  C   UNL     1       6.525   4.272  13.644  0.00  0.00    +0.000 C 
BRANCH  25  26
ATOM     26  C   UNL     1       6.314   3.595  12.299  0.00  0.00    +0.000 C 
BRANCH  26  27
ATOM     27  C   UNL     1       4.934   3.926  11.752  0.00  0.00    +0.000 C 
BRANCH  27  28
ATOM     28  C   UNL     1       4.295   2.688  11.136  0.00  0.00    +0.000 C 
BRANCH  28  30
ATOM     29  C   UNL     1       3.055   4.273   9.650  0.00  0.00    +0.000 C 
ATOM     30  C   UNL     1       2.946   3.029  10.512  0.00  0.00    +0.000 C 
ENDBRANCH  28  30
ENDBRANCH  27  28
ENDBRANCH  26  27
ENDBRANCH  25  26
ENDBRANCH  24  25
ENDBRANCH  23  24
ENDBRANCH  22  23
ENDBRANCH  21  22
ENDBRANCH  20  21
ENDBRANCH  19  20
ENDBRANCH  18  19
ENDBRANCH  17  18
ENDBRANCH   1  17
TORSDOF 18
ENDMDL
MODEL 8
REMARK VINA RESULT:      -5.5      4.507      8.673
REMARK  Name = 
REMARK  19 active torsions:
REMARK  status: ('A' for Active; 'I' for Inactive)
REMARK    1  A    between atoms: C_1  and  C_2
REMARK    2  A    between atoms: C_2  and  C_3
REMARK    3  A    between atoms: C_3  and  C_4
REMARK    4  A    between atoms: C_4  and  C_5
REMARK    5  A    between atoms: C_5  and  C_6
REMARK    6  A    between atoms: C_6  and  C_7
REMARK    7  A    between atoms: C_7  and  C_8
REMARK    8  A    between atoms: C_8  and  C_9
REMARK    9  A    between atoms: C_9  and  C_10
REMARK   10  A    between atoms: C_10  and  C_11
REMARK   11  A    between atoms: C_11  and  C_12
REMARK   12  A    between atoms: C_12  and  C_13
REMARK   13  A    between atoms: C_13  and  C_14
REMARK   14  A    between atoms: C_14  and  C_15
REMARK   15  A    between atoms: C_15  and  C_16
REMARK   16  A    between atoms: C_16  and  N_17
REMARK   17  A    between atoms: C_18  and  C_20
REMARK   18  A    between atoms: C_20  and  C_21
REMARK   19  A    between atoms: N_23  and  O_24
REMARK                            x       y       z     vdW  Elec       q    Type
REMARK                         _______ _______ _______ _____ _____    ______ ____
ROOT
ATOM      1  C   UNL     1       1.490   2.692  18.529  0.00  0.00    +0.000 C 
ENDROOT
BRANCH   1   2
ATOM      2  C   UNL     1       2.737   2.310  17.734  0.00  0.00    +0.000 C 
BRANCH   2   3
ATOM      3  N   UNL     1       3.610   3.433  17.450  0.00  0.00    +0.000 N 
ATOM      4  C   UNL     1       4.608   3.757  18.332  0.00  0.00    +0.000 C 
ATOM      5  O   UNL     1       4.818   3.179  19.403  0.00  0.00    +0.000 OA
ATOM      6  H   UNL     1       3.817   3.659  16.487  0.00  0.00    +0.000 HD
BRANCH   4   7
ATOM      7  C   UNL     1       5.468   4.903  17.881  0.00  0.00    +0.000 C 
ATOM      8  C   UNL     1       5.212   5.370  16.447  0.00  0.00    +0.000 C 
ATOM      9  C   UNL     1       4.767   6.239  17.571  0.00  0.00    +0.000 C 
BRANCH   7  10
ATOM     10  C   UNL     1       6.832   4.969  18.490  0.00  0.00    +0.000 C 
ATOM     11  N   UNL     1       7.854   4.671  17.637  0.00  0.00    +0.000 N 
ATOM     12  N   UNL     1       6.968   5.396  19.703  0.00  0.00    +0.000 NA
ATOM     13  H   UNL     1       7.789   3.792  17.134  0.00  0.00    +0.000 HD
ATOM     14  H   UNL     1       8.783   4.766  18.045  0.00  0.00    +0.000 HD
BRANCH  12  15
ATOM     15  O   UNL     1       8.355   5.419  19.993  0.00  0.00    +0.000 OA
ATOM     16  H   UNL     1       8.409   5.868  20.851  0.00  0.00    +0.000 HD
ENDBRANCH  12  15
ENDBRANCH   7  10
ENDBRANCH   4   7
ENDBRANCH   2   3
ENDBRANCH   1   2
BRANCH   1  17
ATOM     17  C   UNL     1       1.562   2.043  19.907  0.00  0.00    +0.000 C 
BRANCH  17  18
ATOM     18  C   UNL     1       1.276   3.023  21.036  0.00  0.00    +0.000 C 
BRANCH  18  19
ATOM     19  C   UNL     1       0.950   4.392  20.449  0.00  0.00    +0.000 C 
BRANCH  19  20
ATOM     20  C   UNL     1       2.034   5.399  20.794  0.00  0.00    +0.000 C 
BRANCH  20  21
ATOM     21  C   UNL     1       2.025   6.542  19.792  0.00  0.00    +0.000 C 
BRANCH  21  22
ATOM     22  C   UNL     1       1.644   7.839  20.485  0.00  0.00    +0.000 C 
BRANCH  22  23
ATOM     23  C   UNL     1       1.588   8.973  19.476  0.00  0.00    +0.000 C 
BRANCH  23  24
ATOM     24  C   UNL     1       0.216   9.625  19.500  0.00  0.00    +0.000 C 
BRANCH  24  25
ATOM     25  C   UNL     1       0.204  10.851  18.604  0.00  0.00    +0.000 C 
BRANCH  25  26
ATOM     26  C   UNL     1      -1.219  11.170  18.175  0.00  0.00    +0.000 C 
BRANCH  26  27
ATOM     27  C   UNL     1      -2.036  11.648  19.366  0.00  0.00    +0.000 C 
BRANCH  27  28
ATOM     28  C   UNL     1      -3.461  11.970  18.938  0.00  0.00    +0.000 C 
BRANCH  28  30
ATOM     29  C   UNL     1      -5.166  11.741  17.120  0.00  0.00    +0.000 C 
ATOM     30  C   UNL     1      -3.738  11.437  17.536  0.00  0.00    +0.000 C 
ENDBRANCH  28  30
ENDBRANCH  27  28
ENDBRANCH  26  27
ENDBRANCH  25  26
ENDBRANCH  24  25
ENDBRANCH  23  24
ENDBRANCH  22  23
ENDBRANCH  21  22
ENDBRANCH  20  21
ENDBRANCH  19  20
ENDBRANCH  18  19
ENDBRANCH  17  18
ENDBRANCH   1  17
TORSDOF 18
ENDMDL
MODEL 9
REMARK VINA RESULT:      -5.5      4.751      9.722
REMARK  Name = 
REMARK  19 active torsions:
REMARK  status: ('A' for Active; 'I' for Inactive)
REMARK    1  A    between atoms: C_1  and  C_2
REMARK    2  A    between atoms: C_2  and  C_3
REMARK    3  A    between atoms: C_3  and  C_4
REMARK    4  A    between atoms: C_4  and  C_5
REMARK    5  A    between atoms: C_5  and  C_6
REMARK    6  A    between atoms: C_6  and  C_7
REMARK    7  A    between atoms: C_7  and  C_8
REMARK    8  A    between atoms: C_8  and  C_9
REMARK    9  A    between atoms: C_9  and  C_10
REMARK   10  A    between atoms: C_10  and  C_11
REMARK   11  A    between atoms: C_11  and  C_12
REMARK   12  A    between atoms: C_12  and  C_13
REMARK   13  A    between atoms: C_13  and  C_14
REMARK   14  A    between atoms: C_14  and  C_15
REMARK   15  A    between atoms: C_15  and  C_16
REMARK   16  A    between atoms: C_16  and  N_17
REMARK   17  A    between atoms: C_18  and  C_20
REMARK   18  A    between atoms: C_20  and  C_21
REMARK   19  A    between atoms: N_23  and  O_24
REMARK                            x       y       z     vdW  Elec       q    Type
REMARK                         _______ _______ _______ _____ _____    ______ ____
ROOT
ATOM      1  C   UNL     1       3.472   2.507  20.631  0.00  0.00    +0.000 C 
ENDROOT
BRANCH   1   2
ATOM      2  C   UNL     1       3.514   2.506  19.105  0.00  0.00    +0.000 C 
BRANCH   2   3
ATOM      3  N   UNL     1       4.714   3.107  18.558  0.00  0.00    +0.000 N 
ATOM      4  C   UNL     1       4.614   4.030  17.549  0.00  0.00    +0.000 C 
ATOM      5  O   UNL     1       3.555   4.385  17.022  0.00  0.00    +0.000 OA
ATOM      6  H   UNL     1       5.514   3.238  19.163  0.00  0.00    +0.000 HD
BRANCH   4   7
ATOM      7  C   UNL     1       5.932   4.611  17.123  0.00  0.00    +0.000 C 
ATOM      8  C   UNL     1       6.327   4.308  15.678  0.00  0.00    +0.000 C 
ATOM      9  C   UNL     1       5.912   5.694  16.028  0.00  0.00    +0.000 C 
BRANCH   7  10
ATOM     10  C   UNL     1       6.960   4.744  18.202  0.00  0.00    +0.000 C 
ATOM     11  N   UNL     1       8.198   4.275  17.872  0.00  0.00    +0.000 N 
ATOM     12  N   UNL     1       6.661   5.370  19.293  0.00  0.00    +0.000 NA
ATOM     13  H   UNL     1       8.249   3.325  17.520  0.00  0.00    +0.000 HD
ATOM     14  H   UNL     1       8.905   4.415  18.592  0.00  0.00    +0.000 HD
BRANCH  12  15
ATOM     15  O   UNL     1       7.828   5.406  20.095  0.00  0.00    +0.000 OA
ATOM     16  H   UNL     1       8.482   4.908  19.582  0.00  0.00    +0.000 HD
ENDBRANCH  12  15
ENDBRANCH   7  10
ENDBRANCH   4   7
ENDBRANCH   2   3
ENDBRANCH   1   2
BRANCH   1  17
ATOM     17  C   UNL     1       2.404   3.490  21.099  0.00  0.00    +0.000 C 
BRANCH  17  18
ATOM     18  C   UNL     1       1.697   4.188  19.945  0.00  0.00    +0.000 C 
BRANCH  18  19
ATOM     19  C   UNL     1       2.000   5.681  19.994  0.00  0.00    +0.000 C 
BRANCH  19  20
ATOM     20  C   UNL     1       1.088   6.384  20.985  0.00  0.00    +0.000 C 
BRANCH  20  21
ATOM     21  C   UNL     1       1.464   7.853  21.092  0.00  0.00    +0.000 C 
BRANCH  21  22
ATOM     22  C   UNL     1       0.230   8.687  21.384  0.00  0.00    +0.000 C 
BRANCH  22  23
ATOM     23  C   UNL     1       0.403   9.435  22.696  0.00  0.00    +0.000 C 
BRANCH  23  24
ATOM     24  C   UNL     1      -0.811  10.309  22.962  0.00  0.00    +0.000 C 
BRANCH  24  25
ATOM     25  C   UNL     1      -0.618  11.677  22.331  0.00  0.00    +0.000 C 
BRANCH  25  26
ATOM     26  C   UNL     1      -1.495  12.702  23.031  0.00  0.00    +0.000 C 
BRANCH  26  27
ATOM     27  C   UNL     1      -2.837  12.088  23.397  0.00  0.00    +0.000 C 
BRANCH  27  28
ATOM     28  C   UNL     1      -3.679  13.081  24.188  0.00  0.00    +0.000 C 
BRANCH  28  30
ATOM     29  C   UNL     1      -6.154  12.747  24.039  0.00  0.00    +0.000 C 
ATOM     30  C   UNL     1      -4.891  12.392  24.804  0.00  0.00    +0.000 C 
ENDBRANCH  28  30
ENDBRANCH  27  28
ENDBRANCH  26  27
ENDBRANCH  25  26
ENDBRANCH  24  25
ENDBRANCH  23  24
ENDBRANCH  22  23
ENDBRANCH  21  22
ENDBRANCH  20  21
ENDBRANCH  19  20
ENDBRANCH  18  19
ENDBRANCH  17  18
ENDBRANCH   1  17
TORSDOF 18
ENDMDL
