MODEL 1
REMARK VINA RESULT:      -8.1      0.000      0.000
REMARK  Name = 
REMARK  3 active torsions:
REMARK  status: ('A' for Active; 'I' for Inactive)
REMARK    1  A    between atoms: C_1  and  C_2
REMARK    2  A    between atoms: C_5  and  N_6
REMARK    3  A    between atoms: C_7  and  C_9
REMARK                            x       y       z     vdW  Elec       q    Type
REMARK                         _______ _______ _______ _____ _____    ______ ____
ROOT
ATOM      1  N   UNL     1       3.656   6.604  18.608  0.00  0.00    +0.000 N 
ATOM      2  C   UNL     1       3.484   5.337  18.065  0.00  0.00    +0.000 C 
ATOM      3  O   UNL     1       2.412   4.932  17.614  0.00  0.00    +0.000 OA
ATOM      4  H   UNL     1       4.594   6.851  18.935  0.00  0.00    +0.000 HD
ENDROOT
BRANCH   2   5
ATOM      5  C   UNL     1       4.715   4.443  17.901  0.00  0.00    +0.000 C 
ATOM      6  C   UNL     1       5.556   4.427  19.192  0.00  0.00    +0.000 C 
ATOM      7  C   UNL     1       6.941   5.045  19.105  0.00  0.00    +0.000 C 
ATOM      8  O   UNL     1       7.529   5.440  20.108  0.00  0.00    +0.000 OA
ATOM      9  N   UNL     1       7.566   5.037  17.897  0.00  0.00    +0.000 N 
ATOM     10  C   UNL     1       6.876   4.837  16.746  0.00  0.00    +0.000 A 
ATOM     11  N   UNL     1       7.335   4.805  15.524  0.00  0.00    +0.000 NA
ATOM     12  C   UNL     1       6.213   4.586  14.774  0.00  0.00    +0.000 A 
ATOM     13  N   UNL     1       5.064   4.527  15.466  0.00  0.00    +0.000 NA
ATOM     14  N   UNL     1       5.524   4.670  16.727  0.00  0.00    +0.000 N 
ATOM     15  H   UNL     1       8.543   5.303  17.841  0.00  0.00    +0.000 HD
ENDBRANCH   2   5
BRANCH   1  20
ATOM     16  C   UNL     1      -0.435  10.623  19.269  0.00  0.00    +0.000 C 
ATOM     17  C   UNL     1       0.625   9.570  19.124  0.00  0.00    +0.000 A 
ATOM     18  C   UNL     1       1.288   9.442  17.903  0.00  0.00    +0.000 A 
ATOM     19  C   UNL     1       2.280   8.474  17.719  0.00  0.00    +0.000 A 
ATOM     20  C   UNL     1       2.644   7.598  18.748  0.00  0.00    +0.000 A 
ATOM     21  C   UNL     1       1.994   7.728  19.979  0.00  0.00    +0.000 A 
ATOM     22  C   UNL     1       0.994   8.700  20.160  0.00  0.00    +0.000 A 
ATOM     23 CL   UNL     1       0.220   8.783  21.707  0.00  0.00    +0.000 Cl
ENDBRANCH   1  20
TORSDOF 2
ENDMDL
MODEL 2
REMARK VINA RESULT:      -7.8      1.656      1.885
REMARK  Name = 
REMARK  3 active torsions:
REMARK  status: ('A' for Active; 'I' for Inactive)
REMARK    1  A    between atoms: C_1  and  C_2
REMARK    2  A    between atoms: C_5  and  N_6
REMARK    3  A    between atoms: C_7  and  C_9
REMARK                            x       y       z     vdW  Elec       q    Type
REMARK                         _______ _______ _______ _____ _____    ______ ____
ROOT
ATOM      1  N   UNL     1       2.964   7.212  18.509  0.00  0.00    +0.000 N 
ATOM      2  C   UNL     1       2.685   5.937  18.032  0.00  0.00    +0.000 C 
ATOM      3  O   UNL     1       1.543   5.506  17.876  0.00  0.00    +0.000 OA
ATOM      4  H   UNL     1       3.949   7.482  18.580  0.00  0.00    +0.000 HD
ENDROOT
BRANCH   2   5
ATOM      5  C   UNL     1       3.851   5.068  17.555  0.00  0.00    +0.000 C 
ATOM      6  C   UNL     1       3.784   3.666  18.191  0.00  0.00    +0.000 C 
ATOM      7  C   UNL     1       4.906   3.303  19.148  0.00  0.00    +0.000 C 
ATOM      8  O   UNL     1       4.769   2.419  19.990  0.00  0.00    +0.000 OA
ATOM      9  N   UNL     1       6.115   3.901  18.968  0.00  0.00    +0.000 N 
ATOM     10  C   UNL     1       6.240   5.029  18.226  0.00  0.00    +0.000 A 
ATOM     11  N   UNL     1       7.323   5.711  17.969  0.00  0.00    +0.000 NA
ATOM     12  C   UNL     1       6.868   6.744  17.199  0.00  0.00    +0.000 A 
ATOM     13  N   UNL     1       5.541   6.769  17.001  0.00  0.00    +0.000 NA
ATOM     14  N   UNL     1       5.169   5.648  17.654  0.00  0.00    +0.000 N 
ATOM     15  H   UNL     1       6.917   3.569  19.492  0.00  0.00    +0.000 HD
ENDBRANCH   2   5
BRANCH   1  20
ATOM     16  C   UNL     1      -0.911  11.141  20.202  0.00  0.00    +0.000 C 
ATOM     17  C   UNL     1       0.097  10.109  19.788  0.00  0.00    +0.000 A 
ATOM     18  C   UNL     1       0.531  10.081  18.462  0.00  0.00    +0.000 A 
ATOM     19  C   UNL     1       1.466   9.137  18.029  0.00  0.00    +0.000 A 
ATOM     20  C   UNL     1       2.002   8.186  18.904  0.00  0.00    +0.000 A 
ATOM     21  C   UNL     1       1.583   8.215  20.237  0.00  0.00    +0.000 A 
ATOM     22  C   UNL     1       0.638   9.162  20.670  0.00  0.00    +0.000 A 
ATOM     23 CL   UNL     1       0.154   9.119  22.331  0.00  0.00    +0.000 Cl
ENDBRANCH   1  20
TORSDOF 2
ENDMDL
MODEL 3
REMARK VINA RESULT:      -7.5      2.160      2.899
REMARK  Name = 
REMARK  3 active torsions:
REMARK  status: ('A' for Active; 'I' for Inactive)
REMARK    1  A    between atoms: C_1  and  C_2
REMARK    2  A    between atoms: C_5  and  N_6
REMARK    3  A    between atoms: C_7  and  C_9
REMARK                            x       y       z     vdW  Elec       q    Type
REMARK                         _______ _______ _______ _____ _____    ______ ____
ROOT
ATOM      1  N   UNL     1       2.260   7.440  19.486  0.00  0.00    +0.000 N 
ATOM      2  C   UNL     1       2.319   6.065  19.679  0.00  0.00    +0.000 C 
ATOM      3  O   UNL     1       1.707   5.478  20.570  0.00  0.00    +0.000 OA
ATOM      4  H   UNL     1       2.789   7.827  18.700  0.00  0.00    +0.000 HD
ENDROOT
BRANCH   2   5
ATOM      5  C   UNL     1       3.082   5.220  18.656  0.00  0.00    +0.000 C 
ATOM      6  C   UNL     1       3.206   3.760  19.135  0.00  0.00    +0.000 C 
ATOM      7  C   UNL     1       4.608   3.267  19.447  0.00  0.00    +0.000 C 
ATOM      8  O   UNL     1       4.798   2.303  20.184  0.00  0.00    +0.000 OA
ATOM      9  N   UNL     1       5.647   3.848  18.790  0.00  0.00    +0.000 N 
ATOM     10  C   UNL     1       5.509   5.045  18.167  0.00  0.00    +0.000 A 
ATOM     11  N   UNL     1       6.409   5.720  17.505  0.00  0.00    +0.000 NA
ATOM     12  C   UNL     1       5.733   6.842  17.113  0.00  0.00    +0.000 A 
ATOM     13  N   UNL     1       4.463   6.924  17.540  0.00  0.00    +0.000 NA
ATOM     14  N   UNL     1       4.343   5.750  18.195  0.00  0.00    +0.000 N 
ATOM     15  H   UNL     1       6.573   3.440  18.865  0.00  0.00    +0.000 HD
ENDBRANCH   2   5
BRANCH   1  20
ATOM     16  C   UNL     1      -0.784  11.207  22.627  0.00  0.00    +0.000 C 
ATOM     17  C   UNL     1      -0.001  10.241  21.787  0.00  0.00    +0.000 A 
ATOM     18  C   UNL     1       0.748   9.248  22.419  0.00  0.00    +0.000 A 
ATOM     19  C   UNL     1       1.494   8.326  21.678  0.00  0.00    +0.000 A 
ATOM     20  C   UNL     1       1.521   8.364  20.280  0.00  0.00    +0.000 A 
ATOM     21  C   UNL     1       0.763   9.348  19.638  0.00  0.00    +0.000 A 
ATOM     22  C   UNL     1       0.016  10.277  20.385  0.00  0.00    +0.000 A 
ATOM     23 CL   UNL     1      -0.878  11.478  19.517  0.00  0.00    +0.000 Cl
ENDBRANCH   1  20
TORSDOF 2
ENDMDL
MODEL 4
REMARK VINA RESULT:      -7.4      2.233      3.133
REMARK  Name = 
REMARK  3 active torsions:
REMARK  status: ('A' for Active; 'I' for Inactive)
REMARK    1  A    between atoms: C_1  and  C_2
REMARK    2  A    between atoms: C_5  and  N_6
REMARK    3  A    between atoms: C_7  and  C_9
REMARK                            x       y       z     vdW  Elec       q    Type
REMARK                         _______ _______ _______ _____ _____    ______ ____
ROOT
ATOM      1  N   UNL     1       2.262   7.003  20.533  0.00  0.00    +0.000 N 
ATOM      2  C   UNL     1       2.634   6.247  19.428  0.00  0.00    +0.000 C 
ATOM      3  O   UNL     1       2.351   6.553  18.270  0.00  0.00    +0.000 OA
ATOM      4  H   UNL     1       2.567   6.673  21.452  0.00  0.00    +0.000 HD
ENDROOT
BRANCH   2   5
ATOM      5  C   UNL     1       3.551   5.042  19.648  0.00  0.00    +0.000 C 
ATOM      6  C   UNL     1       4.986   5.353  19.181  0.00  0.00    +0.000 C 
ATOM      7  C   UNL     1       5.499   4.558  17.993  0.00  0.00    +0.000 C 
ATOM      8  O   UNL     1       6.427   4.967  17.302  0.00  0.00    +0.000 OA
ATOM      9  N   UNL     1       4.980   3.317  17.787  0.00  0.00    +0.000 N 
ATOM     10  C   UNL     1       3.814   2.934  18.364  0.00  0.00    +0.000 A 
ATOM     11  N   UNL     1       3.198   1.788  18.258  0.00  0.00    +0.000 NA
ATOM     12  C   UNL     1       2.081   1.960  19.028  0.00  0.00    +0.000 A 
ATOM     13  N   UNL     1       1.944   3.179  19.573  0.00  0.00    +0.000 NA
ATOM     14  N   UNL     1       3.078   3.773  19.147  0.00  0.00    +0.000 N 
ATOM     15  H   UNL     1       5.407   2.708  17.098  0.00  0.00    +0.000 HD
ENDBRANCH   2   5
BRANCH   1  20
ATOM     16  C   UNL     1      -0.845  11.868  20.511  0.00  0.00    +0.000 C 
ATOM     17  C   UNL     1      -0.045  10.599  20.543  0.00  0.00    +0.000 A 
ATOM     18  C   UNL     1       0.642  10.203  19.395  0.00  0.00    +0.000 A 
ATOM     19  C   UNL     1       1.398   9.027  19.377  0.00  0.00    +0.000 A 
ATOM     20  C   UNL     1       1.495   8.204  20.504  0.00  0.00    +0.000 A 
ATOM     21  C   UNL     1       0.820   8.600  21.663  0.00  0.00    +0.000 A 
ATOM     22  C   UNL     1       0.056   9.781  21.678  0.00  0.00    +0.000 A 
ATOM     23 CL   UNL     1      -0.767  10.191  23.145  0.00  0.00    +0.000 Cl
ENDBRANCH   1  20
TORSDOF 2
ENDMDL
MODEL 5
REMARK VINA RESULT:      -7.2      2.782      4.038
REMARK  Name = 
REMARK  3 active torsions:
REMARK  status: ('A' for Active; 'I' for Inactive)
REMARK    1  A    between atoms: C_1  and  C_2
REMARK    2  A    between atoms: C_5  and  N_6
REMARK    3  A    between atoms: C_7  and  C_9
REMARK                            x       y       z     vdW  Elec       q    Type
REMARK                         _______ _______ _______ _____ _____    ______ ____
ROOT
ATOM      1  N   UNL     1       1.915   7.357  20.567  0.00  0.00    +0.000 N 
ATOM      2  C   UNL     1       2.582   6.814  19.475  0.00  0.00    +0.000 C 
ATOM      3  O   UNL     1       2.623   7.353  18.370  0.00  0.00    +0.000 OA
ATOM      4  H   UNL     1       1.961   6.840  21.449  0.00  0.00    +0.000 HD
ENDROOT
BRANCH   2   5
ATOM      5  C   UNL     1       3.414   5.548  19.688  0.00  0.00    +0.000 C 
ATOM      6  C   UNL     1       4.327   5.283  18.475  0.00  0.00    +0.000 C 
ATOM      7  C   UNL     1       4.032   4.032  17.666  0.00  0.00    +0.000 C 
ATOM      8  O   UNL     1       4.406   3.919  16.502  0.00  0.00    +0.000 OA
ATOM      9  N   UNL     1       3.446   2.984  18.306  0.00  0.00    +0.000 N 
ATOM     10  C   UNL     1       2.814   3.147  19.495  0.00  0.00    +0.000 A 
ATOM     11  N   UNL     1       2.209   2.245  20.218  0.00  0.00    +0.000 NA
ATOM     12  C   UNL     1       1.747   2.960  21.289  0.00  0.00    +0.000 A 
ATOM     13  N   UNL     1       1.993   4.278  21.245  0.00  0.00    +0.000 NA
ATOM     14  N   UNL     1       2.694   4.365  20.096  0.00  0.00    +0.000 N 
ATOM     15  H   UNL     1       3.376   2.089  17.834  0.00  0.00    +0.000 HD
ENDBRANCH   2   5
BRANCH   1  20
ATOM     16  C   UNL     1      -1.085  12.287  20.690  0.00  0.00    +0.000 C 
ATOM     17  C   UNL     1      -0.313  11.000  20.685  0.00  0.00    +0.000 A 
ATOM     18  C   UNL     1       0.374  10.628  19.528  0.00  0.00    +0.000 A 
ATOM     19  C   UNL     1       1.105   9.438  19.475  0.00  0.00    +0.000 A 
ATOM     20  C   UNL     1       1.175   8.575  20.574  0.00  0.00    +0.000 A 
ATOM     21  C   UNL     1       0.500   8.945  21.741  0.00  0.00    +0.000 A 
ATOM     22  C   UNL     1      -0.238  10.141  21.791  0.00  0.00    +0.000 A 
ATOM     23 CL   UNL     1      -1.063  10.519  23.265  0.00  0.00    +0.000 Cl
ENDBRANCH   1  20
TORSDOF 2
ENDMDL
MODEL 6
REMARK VINA RESULT:      -7.1      2.573      3.519
REMARK  Name = 
REMARK  3 active torsions:
REMARK  status: ('A' for Active; 'I' for Inactive)
REMARK    1  A    between atoms: C_1  and  C_2
REMARK    2  A    between atoms: C_5  and  N_6
REMARK    3  A    between atoms: C_7  and  C_9
REMARK                            x       y       z     vdW  Elec       q    Type
REMARK                         _______ _______ _______ _____ _____    ______ ____
ROOT
ATOM      1  N   UNL     1       2.184   7.587  19.538  0.00  0.00    +0.000 N 
ATOM      2  C   UNL     1       2.224   6.204  19.668  0.00  0.00    +0.000 C 
ATOM      3  O   UNL     1       1.584   5.584  20.517  0.00  0.00    +0.000 OA
ATOM      4  H   UNL     1       2.736   8.004  18.785  0.00  0.00    +0.000 HD
ENDROOT
BRANCH   2   5
ATOM      5  C   UNL     1       3.002   5.398  18.626  0.00  0.00    +0.000 C 
ATOM      6  C   UNL     1       2.289   4.066  18.320  0.00  0.00    +0.000 C 
ATOM      7  C   UNL     1       3.021   2.799  18.726  0.00  0.00    +0.000 C 
ATOM      8  O   UNL     1       2.422   1.741  18.898  0.00  0.00    +0.000 OA
ATOM      9  N   UNL     1       4.380   2.837  18.775  0.00  0.00    +0.000 N 
ATOM     10  C   UNL     1       5.052   4.014  18.828  0.00  0.00    +0.000 A 
ATOM     11  N   UNL     1       6.342   4.206  18.881  0.00  0.00    +0.000 NA
ATOM     12  C   UNL     1       6.454   5.568  18.930  0.00  0.00    +0.000 A 
ATOM     13  N   UNL     1       5.291   6.238  18.960  0.00  0.00    +0.000 NA
ATOM     14  N   UNL     1       4.413   5.217  18.873  0.00  0.00    +0.000 N 
ATOM     15  H   UNL     1       4.898   1.973  18.895  0.00  0.00    +0.000 HD
ENDBRANCH   2   5
BRANCH   1  20
ATOM     16  C   UNL     1      -0.897  11.236  22.781  0.00  0.00    +0.000 C 
ATOM     17  C   UNL     1      -0.106  10.300  21.915  0.00  0.00    +0.000 A 
ATOM     18  C   UNL     1       0.693   9.329  22.521  0.00  0.00    +0.000 A 
ATOM     19  C   UNL     1       1.449   8.437  21.756  0.00  0.00    +0.000 A 
ATOM     20  C   UNL     1       1.437   8.483  20.357  0.00  0.00    +0.000 A 
ATOM     21  C   UNL     1       0.629   9.443  19.742  0.00  0.00    +0.000 A 
ATOM     22  C   UNL     1      -0.128  10.343  20.513  0.00  0.00    +0.000 A 
ATOM     23 CL   UNL     1      -1.085  11.517  19.676  0.00  0.00    +0.000 Cl
ENDBRANCH   1  20
TORSDOF 2
ENDMDL
MODEL 7
REMARK VINA RESULT:      -7.1      2.029      2.482
REMARK  Name = 
REMARK  3 active torsions:
REMARK  status: ('A' for Active; 'I' for Inactive)
REMARK    1  A    between atoms: C_1  and  C_2
REMARK    2  A    between atoms: C_5  and  N_6
REMARK    3  A    between atoms: C_7  and  C_9
REMARK                            x       y       z     vdW  Elec       q    Type
REMARK                         _______ _______ _______ _____ _____    ______ ____
ROOT
ATOM      1  N   UNL     1       2.585   7.039  18.964  0.00  0.00    +0.000 N 
ATOM      2  C   UNL     1       3.316   7.004  17.783  0.00  0.00    +0.000 C 
ATOM      3  O   UNL     1       3.396   7.955  17.005  0.00  0.00    +0.000 OA
ATOM      4  H   UNL     1       2.602   6.202  19.552  0.00  0.00    +0.000 HD
ENDROOT
BRANCH   2   5
ATOM      5  C   UNL     1       4.169   5.767  17.493  0.00  0.00    +0.000 C 
ATOM      6  C   UNL     1       3.415   4.479  17.879  0.00  0.00    +0.000 C 
ATOM      7  C   UNL     1       3.999   3.671  19.024  0.00  0.00    +0.000 C 
ATOM      8  O   UNL     1       3.312   2.880  19.665  0.00  0.00    +0.000 OA
ATOM      9  N   UNL     1       5.339   3.755  19.243  0.00  0.00    +0.000 N 
ATOM     10  C   UNL     1       6.076   4.772  18.731  0.00  0.00    +0.000 A 
ATOM     11  N   UNL     1       7.358   4.985  18.858  0.00  0.00    +0.000 NA
ATOM     12  C   UNL     1       7.554   6.142  18.157  0.00  0.00    +0.000 A 
ATOM     13  N   UNL     1       6.445   6.692  17.637  0.00  0.00    +0.000 NA
ATOM     14  N   UNL     1       5.519   5.782  18.004  0.00  0.00    +0.000 N 
ATOM     15  H   UNL     1       5.777   3.116  19.899  0.00  0.00    +0.000 HD
ENDBRANCH   2   5
BRANCH   1  20
ATOM     16  C   UNL     1      -0.510  11.480  20.971  0.00  0.00    +0.000 C 
ATOM     17  C   UNL     1       0.295  10.314  20.475  0.00  0.00    +0.000 A 
ATOM     18  C   UNL     1       0.644  10.259  19.125  0.00  0.00    +0.000 A 
ATOM     19  C   UNL     1       1.390   9.192  18.617  0.00  0.00    +0.000 A 
ATOM     20  C   UNL     1       1.814   8.141  19.438  0.00  0.00    +0.000 A 
ATOM     21  C   UNL     1       1.480   8.195  20.794  0.00  0.00    +0.000 A 
ATOM     22  C   UNL     1       0.725   9.267  21.303  0.00  0.00    +0.000 A 
ATOM     23 CL   UNL     1       0.333   9.249  22.989  0.00  0.00    +0.000 Cl
ENDBRANCH   1  20
TORSDOF 2
ENDMDL
MODEL 8
REMARK VINA RESULT:      -7.1      2.226      2.866
REMARK  Name = 
REMARK  3 active torsions:
REMARK  status: ('A' for Active; 'I' for Inactive)
REMARK    1  A    between atoms: C_1  and  C_2
REMARK    2  A    between atoms: C_5  and  N_6
REMARK    3  A    between atoms: C_7  and  C_9
REMARK                            x       y       z     vdW  Elec       q    Type
REMARK                         _______ _______ _______ _____ _____    ______ ____
ROOT
ATOM      1  N   UNL     1       2.545   6.826  19.205  0.00  0.00    +0.000 N 
ATOM      2  C   UNL     1       3.230   6.931  18.001  0.00  0.00    +0.000 C 
ATOM      3  O   UNL     1       3.306   7.974  17.352  0.00  0.00    +0.000 OA
ATOM      4  H   UNL     1       2.562   5.919  19.678  0.00  0.00    +0.000 HD
ENDROOT
BRANCH   2   5
ATOM      5  C   UNL     1       4.040   5.726  17.518  0.00  0.00    +0.000 C 
ATOM      6  C   UNL     1       3.288   4.411  17.804  0.00  0.00    +0.000 C 
ATOM      7  C   UNL     1       3.927   3.470  18.809  0.00  0.00    +0.000 C 
ATOM      8  O   UNL     1       3.267   2.619  19.399  0.00  0.00    +0.000 OA
ATOM      9  N   UNL     1       5.280   3.513  18.950  0.00  0.00    +0.000 N 
ATOM     10  C   UNL     1       6.002   4.573  18.510  0.00  0.00    +0.000 A 
ATOM     11  N   UNL     1       7.293   4.756  18.578  0.00  0.00    +0.000 NA
ATOM     12  C   UNL     1       7.466   5.983  18.002  0.00  0.00    +0.000 A 
ATOM     13  N   UNL     1       6.338   6.602  17.620  0.00  0.00    +0.000 NA
ATOM     14  N   UNL     1       5.420   5.666  17.940  0.00  0.00    +0.000 N 
ATOM     15  H   UNL     1       5.746   2.799  19.499  0.00  0.00    +0.000 HD
ENDBRANCH   2   5
BRANCH   1  20
ATOM     16  C   UNL     1      -0.414  11.094  21.726  0.00  0.00    +0.000 C 
ATOM     17  C   UNL     1       0.355   9.998  21.047  0.00  0.00    +0.000 A 
ATOM     18  C   UNL     1       0.739   8.881  21.789  0.00  0.00    +0.000 A 
ATOM     19  C   UNL     1       1.459   7.837  21.200  0.00  0.00    +0.000 A 
ATOM     20  C   UNL     1       1.821   7.871  19.849  0.00  0.00    +0.000 A 
ATOM     21  C   UNL     1       1.429   8.981  19.095  0.00  0.00    +0.000 A 
ATOM     22  C   UNL     1       0.709  10.033  19.690  0.00  0.00    +0.000 A 
ATOM     23 CL   UNL     1       0.279  11.382  18.695  0.00  0.00    +0.000 Cl
ENDBRANCH   1  20
TORSDOF 2
ENDMDL
MODEL 9
REMARK VINA RESULT:      -7.0      2.223      2.710
REMARK  Name = 
REMARK  3 active torsions:
REMARK  status: ('A' for Active; 'I' for Inactive)
REMARK    1  A    between atoms: C_1  and  C_2
REMARK    2  A    between atoms: C_5  and  N_6
REMARK    3  A    between atoms: C_7  and  C_9
REMARK                            x       y       z     vdW  Elec       q    Type
REMARK                         _______ _______ _______ _____ _____    ______ ____
ROOT
ATOM      1  N   UNL     1       2.592   8.167  17.519  0.00  0.00    +0.000 N 
ATOM      2  C   UNL     1       2.941   7.101  18.340  0.00  0.00    +0.000 C 
ATOM      3  O   UNL     1       2.558   6.988  19.504  0.00  0.00    +0.000 OA
ATOM      4  H   UNL     1       2.945   8.156  16.559  0.00  0.00    +0.000 HD
ENDROOT
BRANCH   2   5
ATOM      5  C   UNL     1       3.735   5.944  17.730  0.00  0.00    +0.000 C 
ATOM      6  C   UNL     1       3.234   4.591  18.271  0.00  0.00    +0.000 C 
ATOM      7  C   UNL     1       4.209   3.801  19.126  0.00  0.00    +0.000 C 
ATOM      8  O   UNL     1       3.820   2.941  19.912  0.00  0.00    +0.000 OA
ATOM      9  N   UNL     1       5.539   3.986  18.910  0.00  0.00    +0.000 N 
ATOM     10  C   UNL     1       6.002   5.071  18.241  0.00  0.00    +0.000 A 
ATOM     11  N   UNL     1       7.238   5.382  17.963  0.00  0.00    +0.000 NA
ATOM     12  C   UNL     1       7.120   6.570  17.296  0.00  0.00    +0.000 A 
ATOM     13  N   UNL     1       5.869   7.043  17.187  0.00  0.00    +0.000 NA
ATOM     14  N   UNL     1       5.174   6.053  17.783  0.00  0.00    +0.000 N 
ATOM     15  H   UNL     1       6.206   3.366  19.357  0.00  0.00    +0.000 HD
ENDBRANCH   2   5
BRANCH   1  20
ATOM     16  C   UNL     1      -0.772  12.607  19.035  0.00  0.00    +0.000 C 
ATOM     17  C   UNL     1       0.080  11.438  18.635  0.00  0.00    +0.000 A 
ATOM     18  C   UNL     1       1.468  11.557  18.705  0.00  0.00    +0.000 A 
ATOM     19  C   UNL     1       2.302  10.496  18.341  0.00  0.00    +0.000 A 
ATOM     20  C   UNL     1       1.780   9.278  17.892  0.00  0.00    +0.000 A 
ATOM     21  C   UNL     1       0.390   9.146  17.831  0.00  0.00    +0.000 A 
ATOM     22  C   UNL     1      -0.448  10.216  18.194  0.00  0.00    +0.000 A 
ATOM     23 CL   UNL     1      -2.158   9.980  18.069  0.00  0.00    +0.000 Cl
ENDBRANCH   1  20
TORSDOF 2
ENDMDL
