MODEL 1
REMARK VINA RESULT:      -7.7      0.000      0.000
REMARK  Name = 
REMARK  10 active torsions:
REMARK  status: ('A' for Active; 'I' for Inactive)
REMARK    1  A    between atoms: C_1  and  O_2
REMARK    2  A    between atoms: O_2  and  C_3
REMARK    3  A    between atoms: C_8  and  O_9
REMARK    4  A    between atoms: O_9  and  C_10
REMARK    5  A    between atoms: C_10  and  C_11
REMARK    6  A    between atoms: C_11  and  N_12
REMARK    7  A    between atoms: N_12  and  C_13
REMARK    8  A    between atoms: C_13  and  C_14
REMARK    9  A    between atoms: C_18  and  C_19
REMARK   10  A    between atoms: C_18  and  C_25
REMARK                            x       y       z     vdW  Elec       q    Type
REMARK                         _______ _______ _______ _____ _____    ______ ____
ROOT
ATOM      1  C   UNL     1       6.738   5.103  17.895  0.00  0.00    +0.000 C 
ATOM      2  C   UNL     1       6.805   4.705  16.418  0.00  0.00    +0.000 C 
ATOM      3  O   UNL     1       5.558   4.890  15.745  0.00  0.00    +0.000 OA
ATOM      4  C   UNL     1       4.536   4.136  16.423  0.00  0.00    +0.000 C 
ATOM      5  C   UNL     1       4.320   4.634  17.882  0.00  0.00    +0.000 C 
ATOM      6  O   UNL     1       5.589   4.563  18.585  0.00  0.00    +0.000 OA
ENDROOT
BRANCH   5   7
ATOM      7  C   UNL     1       3.382   3.580  18.532  0.00  0.00    +0.000 A 
ATOM      8  C   UNL     1       2.211   3.148  17.879  0.00  0.00    +0.000 A 
ATOM      9  C   UNL     1       1.300   2.305  18.520  0.00  0.00    +0.000 A 
ATOM     10  C   UNL     1       1.543   1.872  19.820  0.00  0.00    +0.000 A 
ATOM     11  C   UNL     1       2.710   2.260  20.472  0.00  0.00    +0.000 A 
ATOM     12  C   UNL     1       3.620   3.106  19.836  0.00  0.00    +0.000 A 
ENDBRANCH   5   7
BRANCH   5  13
ATOM     13  C   UNL     1       3.718   6.054  17.998  0.00  0.00    +0.000 A 
ATOM     14  C   UNL     1       3.872   7.027  16.988  0.00  0.00    +0.000 A 
ATOM     15  C   UNL     1       3.265   8.280  17.083  0.00  0.00    +0.000 A 
ATOM     16  C   UNL     1       2.493   8.597  18.194  0.00  0.00    +0.000 A 
ATOM     17  C   UNL     1       2.341   7.665  19.219  0.00  0.00    +0.000 A 
ATOM     18  C   UNL     1       2.948   6.408  19.124  0.00  0.00    +0.000 A 
ENDBRANCH   5  13
BRANCH   1  19
ATOM     19  C   UNL     1       6.838   6.614  18.186  0.00  0.00    +0.000 C 
BRANCH  19  20
ATOM     20  N   UNL     1       7.602   7.421  17.219  0.00  0.00    +0.000 NA
ATOM     21  H   UNL     1       7.121   7.403  16.322  0.00  0.00    +0.000 HD
BRANCH  20  22
ATOM     22  C   UNL     1       7.680   8.840  17.661  0.00  0.00    +0.000 C 
BRANCH  22  23
ATOM     23  C   UNL     1       8.810   9.110  18.673  0.00  0.00    +0.000 C 
BRANCH  23  24
ATOM     24  O   UNL     1       8.754  10.431  19.207  0.00  0.00    +0.000 OA
BRANCH  24  30
ATOM     25  C   UNL     1       9.342  12.371  17.715  0.00  0.00    +0.000 A 
ATOM     26  C   UNL     1      10.363  13.261  17.335  0.00  0.00    +0.000 A 
ATOM     27  C   UNL     1      11.667  13.089  17.793  0.00  0.00    +0.000 A 
ATOM     28  C   UNL     1      11.958  12.043  18.664  0.00  0.00    +0.000 A 
ATOM     29  C   UNL     1      10.935  11.190  19.094  0.00  0.00    +0.000 A 
ATOM     30  C   UNL     1       9.618  11.350  18.646  0.00  0.00    +0.000 A 
BRANCH  25  32
ATOM     31  C   UNL     1       7.412  13.751  17.653  0.00  0.00    +0.000 C 
ATOM     32  O   UNL     1       8.074  12.558  17.232  0.00  0.00    +0.000 OA
ENDBRANCH  25  32
ENDBRANCH  24  30
ENDBRANCH  23  24
ENDBRANCH  22  23
ENDBRANCH  20  22
ENDBRANCH  19  20
ENDBRANCH   1  19
TORSDOF 9
ENDMDL
MODEL 2
REMARK VINA RESULT:      -7.5      3.771      7.350
REMARK  Name = 
REMARK  10 active torsions:
REMARK  status: ('A' for Active; 'I' for Inactive)
REMARK    1  A    between atoms: C_1  and  O_2
REMARK    2  A    between atoms: O_2  and  C_3
REMARK    3  A    between atoms: C_8  and  O_9
REMARK    4  A    between atoms: O_9  and  C_10
REMARK    5  A    between atoms: C_10  and  C_11
REMARK    6  A    between atoms: C_11  and  N_12
REMARK    7  A    between atoms: N_12  and  C_13
REMARK    8  A    between atoms: C_13  and  C_14
REMARK    9  A    between atoms: C_18  and  C_19
REMARK   10  A    between atoms: C_18  and  C_25
REMARK                            x       y       z     vdW  Elec       q    Type
REMARK                         _______ _______ _______ _____ _____    ______ ____
ROOT
ATOM      1  C   UNL     1       3.240   5.191  17.495  0.00  0.00    +0.000 C 
ATOM      2  C   UNL     1       3.251   3.767  18.057  0.00  0.00    +0.000 C 
ATOM      3  O   UNL     1       4.575   3.249  18.206  0.00  0.00    +0.000 OA
ATOM      4  C   UNL     1       5.248   3.294  16.936  0.00  0.00    +0.000 C 
ATOM      5  C   UNL     1       5.409   4.752  16.415  0.00  0.00    +0.000 C 
ATOM      6  O   UNL     1       4.094   5.363  16.342  0.00  0.00    +0.000 OA
ENDROOT
BRANCH   5   7
ATOM      7  C   UNL     1       5.923   4.605  14.957  0.00  0.00    +0.000 A 
ATOM      8  C   UNL     1       5.208   3.852  14.006  0.00  0.00    +0.000 A 
ATOM      9  C   UNL     1       5.737   3.607  12.737  0.00  0.00    +0.000 A 
ATOM     10  C   UNL     1       6.985   4.117  12.389  0.00  0.00    +0.000 A 
ATOM     11  C   UNL     1       7.694   4.892  13.301  0.00  0.00    +0.000 A 
ATOM     12  C   UNL     1       7.170   5.134  14.573  0.00  0.00    +0.000 A 
ENDBRANCH   5   7
BRANCH   5  13
ATOM     13  C   UNL     1       6.367   5.634  17.250  0.00  0.00    +0.000 A 
ATOM     14  C   UNL     1       7.101   5.130  18.344  0.00  0.00    +0.000 A 
ATOM     15  C   UNL     1       8.010   5.927  19.044  0.00  0.00    +0.000 A 
ATOM     16  C   UNL     1       8.203   7.252  18.672  0.00  0.00    +0.000 A 
ATOM     17  C   UNL     1       7.474   7.785  17.610  0.00  0.00    +0.000 A 
ATOM     18  C   UNL     1       6.565   6.987  16.908  0.00  0.00    +0.000 A 
ENDBRANCH   5  13
BRANCH   1  19
ATOM     19  C   UNL     1       3.532   6.313  18.512  0.00  0.00    +0.000 C 
BRANCH  19  20
ATOM     20  N   UNL     1       3.314   5.989  19.932  0.00  0.00    +0.000 NA
ATOM     21  H   UNL     1       3.931   6.565  20.500  0.00  0.00    +0.000 HD
BRANCH  20  22
ATOM     22  C   UNL     1       1.914   6.293  20.334  0.00  0.00    +0.000 C 
BRANCH  22  23
ATOM     23  C   UNL     1       1.765   7.629  21.089  0.00  0.00    +0.000 C 
BRANCH  23  24
ATOM     24  O   UNL     1       1.118   8.626  20.302  0.00  0.00    +0.000 OA
BRANCH  24  30
ATOM     25  C   UNL     1      -0.050  10.841  20.561  0.00  0.00    +0.000 A 
ATOM     26  C   UNL     1      -0.840  11.631  21.415  0.00  0.00    +0.000 A 
ATOM     27  C   UNL     1      -1.099  11.228  22.723  0.00  0.00    +0.000 A 
ATOM     28  C   UNL     1      -0.599  10.013  23.181  0.00  0.00    +0.000 A 
ATOM     29  C   UNL     1       0.138   9.193  22.317  0.00  0.00    +0.000 A 
ATOM     30  C   UNL     1       0.406   9.582  20.999  0.00  0.00    +0.000 A 
BRANCH  25  32
ATOM     31  C   UNL     1       0.273  12.691  19.110  0.00  0.00    +0.000 C 
ATOM     32  O   UNL     1       0.202  11.276  19.286  0.00  0.00    +0.000 OA
ENDBRANCH  25  32
ENDBRANCH  24  30
ENDBRANCH  23  24
ENDBRANCH  22  23
ENDBRANCH  20  22
ENDBRANCH  19  20
ENDBRANCH   1  19
TORSDOF 9
ENDMDL
MODEL 3
REMARK VINA RESULT:      -7.4      1.070      1.654
REMARK  Name = 
REMARK  10 active torsions:
REMARK  status: ('A' for Active; 'I' for Inactive)
REMARK    1  A    between atoms: C_1  and  O_2
REMARK    2  A    between atoms: O_2  and  C_3
REMARK    3  A    between atoms: C_8  and  O_9
REMARK    4  A    between atoms: O_9  and  C_10
REMARK    5  A    between atoms: C_10  and  C_11
REMARK    6  A    between atoms: C_11  and  N_12
REMARK    7  A    between atoms: N_12  and  C_13
REMARK    8  A    between atoms: C_13  and  C_14
REMARK    9  A    between atoms: C_18  and  C_19
REMARK   10  A    between atoms: C_18  and  C_25
REMARK                            x       y       z     vdW  Elec       q    Type
REMARK                         _______ _______ _______ _____ _____    ______ ____
ROOT
ATOM      1  C   UNL     1       7.033   4.964  18.222  0.00  0.00    +0.000 C 
ATOM      2  C   UNL     1       7.282   4.466  16.796  0.00  0.00    +0.000 C 
ATOM      3  O   UNL     1       6.117   4.560  15.974  0.00  0.00    +0.000 OA
ATOM      4  C   UNL     1       5.044   3.821  16.584  0.00  0.00    +0.000 C 
ATOM      5  C   UNL     1       4.646   4.412  17.968  0.00  0.00    +0.000 C 
ATOM      6  O   UNL     1       5.826   4.435  18.815  0.00  0.00    +0.000 OA
ENDROOT
BRANCH   5   7
ATOM      7  C   UNL     1       3.667   3.375  18.582  0.00  0.00    +0.000 A 
ATOM      8  C   UNL     1       2.600   2.847  17.830  0.00  0.00    +0.000 A 
ATOM      9  C   UNL     1       1.642   2.021  18.421  0.00  0.00    +0.000 A 
ATOM     10  C   UNL     1       1.734   1.698  19.772  0.00  0.00    +0.000 A 
ATOM     11  C   UNL     1       2.799   2.181  20.527  0.00  0.00    +0.000 A 
ATOM     12  C   UNL     1       3.755   3.011  19.939  0.00  0.00    +0.000 A 
ENDBRANCH   5   7
BRANCH   5  13
ATOM     13  C   UNL     1       3.998   5.815  17.910  0.00  0.00    +0.000 A 
ATOM     14  C   UNL     1       3.139   6.296  18.921  0.00  0.00    +0.000 A 
ATOM     15  C   UNL     1       2.617   7.590  18.881  0.00  0.00    +0.000 A 
ATOM     16  C   UNL     1       2.935   8.436  17.825  0.00  0.00    +0.000 A 
ATOM     17  C   UNL     1       3.762   7.981  16.799  0.00  0.00    +0.000 A 
ATOM     18  C   UNL     1       4.286   6.685  16.839  0.00  0.00    +0.000 A 
ENDBRANCH   5  13
BRANCH   1  19
ATOM     19  C   UNL     1       7.059   6.494  18.411  0.00  0.00    +0.000 C 
BRANCH  19  20
ATOM     20  N   UNL     1       7.612   7.286  17.298  0.00  0.00    +0.000 NA
ATOM     21  H   UNL     1       7.062   7.104  16.460  0.00  0.00    +0.000 HD
BRANCH  20  22
ATOM     22  C   UNL     1       7.523   8.742  17.590  0.00  0.00    +0.000 C 
BRANCH  22  23
ATOM     23  C   UNL     1       8.657   9.260  18.497  0.00  0.00    +0.000 C 
BRANCH  23  24
ATOM     24  O   UNL     1       9.320  10.394  17.941  0.00  0.00    +0.000 OA
BRANCH  24  30
ATOM     25  C   UNL     1      10.048  12.724  18.553  0.00  0.00    +0.000 A 
ATOM     26  C   UNL     1      10.248  13.623  19.616  0.00  0.00    +0.000 A 
ATOM     27  C   UNL     1      10.146  13.200  20.939  0.00  0.00    +0.000 A 
ATOM     28  C   UNL     1       9.808  11.879  21.214  0.00  0.00    +0.000 A 
ATOM     29  C   UNL     1       9.548  10.992  20.162  0.00  0.00    +0.000 A 
ATOM     30  C   UNL     1       9.644  11.402  18.826  0.00  0.00    +0.000 A 
BRANCH  25  32
ATOM     31  C   UNL     1      11.511  13.348  16.792  0.00  0.00    +0.000 C 
ATOM     32  O   UNL     1      10.175  13.168  17.264  0.00  0.00    +0.000 OA
ENDBRANCH  25  32
ENDBRANCH  24  30
ENDBRANCH  23  24
ENDBRANCH  22  23
ENDBRANCH  20  22
ENDBRANCH  19  20
ENDBRANCH   1  19
TORSDOF 9
ENDMDL
MODEL 4
REMARK VINA RESULT:      -7.4      3.688      7.624
REMARK  Name = 
REMARK  10 active torsions:
REMARK  status: ('A' for Active; 'I' for Inactive)
REMARK    1  A    between atoms: C_1  and  O_2
REMARK    2  A    between atoms: O_2  and  C_3
REMARK    3  A    between atoms: C_8  and  O_9
REMARK    4  A    between atoms: O_9  and  C_10
REMARK    5  A    between atoms: C_10  and  C_11
REMARK    6  A    between atoms: C_11  and  N_12
REMARK    7  A    between atoms: N_12  and  C_13
REMARK    8  A    between atoms: C_13  and  C_14
REMARK    9  A    between atoms: C_18  and  C_19
REMARK   10  A    between atoms: C_18  and  C_25
REMARK                            x       y       z     vdW  Elec       q    Type
REMARK                         _______ _______ _______ _____ _____    ______ ____
ROOT
ATOM      1  C   UNL     1       3.298   5.338  17.649  0.00  0.00    +0.000 C 
ATOM      2  C   UNL     1       3.293   3.968  18.332  0.00  0.00    +0.000 C 
ATOM      3  O   UNL     1       4.611   3.450  18.526  0.00  0.00    +0.000 OA
ATOM      4  C   UNL     1       5.284   3.376  17.256  0.00  0.00    +0.000 C 
ATOM      5  C   UNL     1       5.461   4.782  16.611  0.00  0.00    +0.000 C 
ATOM      6  O   UNL     1       4.152   5.399  16.485  0.00  0.00    +0.000 OA
ENDROOT
BRANCH   5   7
ATOM      7  C   UNL     1       5.971   4.503  15.172  0.00  0.00    +0.000 A 
ATOM      8  C   UNL     1       7.215   4.997  14.731  0.00  0.00    +0.000 A 
ATOM      9  C   UNL     1       7.612   4.862  13.399  0.00  0.00    +0.000 A 
ATOM     10  C   UNL     1       6.781   4.225  12.483  0.00  0.00    +0.000 A 
ATOM     11  C   UNL     1       5.563   3.699  12.903  0.00  0.00    +0.000 A 
ATOM     12  C   UNL     1       5.161   3.837  14.233  0.00  0.00    +0.000 A 
ENDBRANCH   5   7
BRANCH   5  13
ATOM     13  C   UNL     1       6.429   5.722  17.367  0.00  0.00    +0.000 A 
ATOM     14  C   UNL     1       7.196   5.292  18.470  0.00  0.00    +0.000 A 
ATOM     15  C   UNL     1       8.113   6.139  19.096  0.00  0.00    +0.000 A 
ATOM     16  C   UNL     1       8.283   7.441  18.640  0.00  0.00    +0.000 A 
ATOM     17  C   UNL     1       7.522   7.901  17.567  0.00  0.00    +0.000 A 
ATOM     18  C   UNL     1       6.604   7.053  16.938  0.00  0.00    +0.000 A 
ENDBRANCH   5  13
BRANCH   1  19
ATOM     19  C   UNL     1       3.604   6.541  18.564  0.00  0.00    +0.000 C 
BRANCH  19  20
ATOM     20  N   UNL     1       2.472   7.424  18.893  0.00  0.00    +0.000 NA
ATOM     21  H   UNL     1       2.734   8.017  19.677  0.00  0.00    +0.000 HD
BRANCH  20  22
ATOM     22  C   UNL     1       2.145   8.312  17.744  0.00  0.00    +0.000 C 
BRANCH  22  23
ATOM     23  C   UNL     1       1.697   9.726  18.164  0.00  0.00    +0.000 C 
BRANCH  23  24
ATOM     24  O   UNL     1       0.714   9.698  19.197  0.00  0.00    +0.000 OA
BRANCH  24  30
ATOM     25  C   UNL     1      -1.179  11.279  19.700  0.00  0.00    +0.000 A 
ATOM     26  C   UNL     1      -2.343  11.878  19.186  0.00  0.00    +0.000 A 
ATOM     27  C   UNL     1      -2.864  11.486  17.956  0.00  0.00    +0.000 A 
ATOM     28  C   UNL     1      -2.208  10.512  17.209  0.00  0.00    +0.000 A 
ATOM     29  C   UNL     1      -1.016   9.954  17.687  0.00  0.00    +0.000 A 
ATOM     30  C   UNL     1      -0.477  10.339  18.921  0.00  0.00    +0.000 A 
BRANCH  25  32
ATOM     31  C   UNL     1       0.191  12.788  20.916  0.00  0.00    +0.000 C 
ATOM     32  O   UNL     1      -0.703  11.674  20.923  0.00  0.00    +0.000 OA
ENDBRANCH  25  32
ENDBRANCH  24  30
ENDBRANCH  23  24
ENDBRANCH  22  23
ENDBRANCH  20  22
ENDBRANCH  19  20
ENDBRANCH   1  19
TORSDOF 9
ENDMDL
MODEL 5
REMARK VINA RESULT:      -7.4      3.733      7.631
REMARK  Name = 
REMARK  10 active torsions:
REMARK  status: ('A' for Active; 'I' for Inactive)
REMARK    1  A    between atoms: C_1  and  O_2
REMARK    2  A    between atoms: O_2  and  C_3
REMARK    3  A    between atoms: C_8  and  O_9
REMARK    4  A    between atoms: O_9  and  C_10
REMARK    5  A    between atoms: C_10  and  C_11
REMARK    6  A    between atoms: C_11  and  N_12
REMARK    7  A    between atoms: N_12  and  C_13
REMARK    8  A    between atoms: C_13  and  C_14
REMARK    9  A    between atoms: C_18  and  C_19
REMARK   10  A    between atoms: C_18  and  C_25
REMARK                            x       y       z     vdW  Elec       q    Type
REMARK                         _______ _______ _______ _____ _____    ______ ____
ROOT
ATOM      1  C   UNL     1       3.283   5.220  17.711  0.00  0.00    +0.000 C 
ATOM      2  C   UNL     1       3.295   3.835  18.362  0.00  0.00    +0.000 C 
ATOM      3  O   UNL     1       4.618   3.323  18.533  0.00  0.00    +0.000 OA
ATOM      4  C   UNL     1       5.279   3.283  17.256  0.00  0.00    +0.000 C 
ATOM      5  C   UNL     1       5.441   4.704  16.641  0.00  0.00    +0.000 C 
ATOM      6  O   UNL     1       4.126   5.314  16.541  0.00  0.00    +0.000 OA
ENDROOT
BRANCH   5   7
ATOM      7  C   UNL     1       5.940   4.462  15.191  0.00  0.00    +0.000 A 
ATOM      8  C   UNL     1       7.186   4.955  14.758  0.00  0.00    +0.000 A 
ATOM      9  C   UNL     1       7.574   4.855  13.420  0.00  0.00    +0.000 A 
ATOM     10  C   UNL     1       6.732   4.253  12.491  0.00  0.00    +0.000 A 
ATOM     11  C   UNL     1       5.510   3.727  12.903  0.00  0.00    +0.000 A 
ATOM     12  C   UNL     1       5.118   3.831  14.238  0.00  0.00    +0.000 A 
ENDBRANCH   5   7
BRANCH   5  13
ATOM     13  C   UNL     1       6.409   5.634  17.409  0.00  0.00    +0.000 A 
ATOM     14  C   UNL     1       7.178   5.189  18.505  0.00  0.00    +0.000 A 
ATOM     15  C   UNL     1       8.095   6.027  19.142  0.00  0.00    +0.000 A 
ATOM     16  C   UNL     1       8.262   7.336  18.705  0.00  0.00    +0.000 A 
ATOM     17  C   UNL     1       7.500   7.811  17.640  0.00  0.00    +0.000 A 
ATOM     18  C   UNL     1       6.582   6.971  17.000  0.00  0.00    +0.000 A 
ENDBRANCH   5  13
BRANCH   1  19
ATOM     19  C   UNL     1       3.589   6.404  18.650  0.00  0.00    +0.000 C 
BRANCH  19  20
ATOM     20  N   UNL     1       2.761   6.513  19.864  0.00  0.00    +0.000 NA
ATOM     21  H   UNL     1       3.371   6.511  20.679  0.00  0.00    +0.000 HD
BRANCH  20  22
ATOM     22  C   UNL     1       2.001   7.792  19.871  0.00  0.00    +0.000 C 
BRANCH  22  23
ATOM     23  C   UNL     1       1.504   8.207  21.270  0.00  0.00    +0.000 C 
BRANCH  23  24
ATOM     24  O   UNL     1       0.084   8.330  21.326  0.00  0.00    +0.000 OA
BRANCH  24  30
ATOM     25  C   UNL     1      -0.729  10.511  20.367  0.00  0.00    +0.000 A 
ATOM     26  C   UNL     1      -1.308  11.756  20.673  0.00  0.00    +0.000 A 
ATOM     27  C   UNL     1      -1.485  12.156  21.995  0.00  0.00    +0.000 A 
ATOM     28  C   UNL     1      -1.115  11.301  23.028  0.00  0.00    +0.000 A 
ATOM     29  C   UNL     1      -0.593  10.035  22.732  0.00  0.00    +0.000 A 
ATOM     30  C   UNL     1      -0.411   9.616  21.408  0.00  0.00    +0.000 A 
BRANCH  25  32
ATOM     31  C   UNL     1      -1.433  10.771  18.116  0.00  0.00    +0.000 C 
ATOM     32  O   UNL     1      -0.551  10.156  19.056  0.00  0.00    +0.000 OA
ENDBRANCH  25  32
ENDBRANCH  24  30
ENDBRANCH  23  24
ENDBRANCH  22  23
ENDBRANCH  20  22
ENDBRANCH  19  20
ENDBRANCH   1  19
TORSDOF 9
ENDMDL
MODEL 6
REMARK VINA RESULT:      -7.4      3.699      7.671
REMARK  Name = 
REMARK  10 active torsions:
REMARK  status: ('A' for Active; 'I' for Inactive)
REMARK    1  A    between atoms: C_1  and  O_2
REMARK    2  A    between atoms: O_2  and  C_3
REMARK    3  A    between atoms: C_8  and  O_9
REMARK    4  A    between atoms: O_9  and  C_10
REMARK    5  A    between atoms: C_10  and  C_11
REMARK    6  A    between atoms: C_11  and  N_12
REMARK    7  A    between atoms: N_12  and  C_13
REMARK    8  A    between atoms: C_13  and  C_14
REMARK    9  A    between atoms: C_18  and  C_19
REMARK   10  A    between atoms: C_18  and  C_25
REMARK                            x       y       z     vdW  Elec       q    Type
REMARK                         _______ _______ _______ _____ _____    ______ ____
ROOT
ATOM      1  C   UNL     1       3.264   5.305  17.574  0.00  0.00    +0.000 C 
ATOM      2  C   UNL     1       3.235   3.924  18.236  0.00  0.00    +0.000 C 
ATOM      3  O   UNL     1       4.544   3.390  18.442  0.00  0.00    +0.000 OA
ATOM      4  C   UNL     1       5.235   3.327  17.182  0.00  0.00    +0.000 C 
ATOM      5  C   UNL     1       5.437   4.740  16.560  0.00  0.00    +0.000 C 
ATOM      6  O   UNL     1       4.137   5.373  16.424  0.00  0.00    +0.000 OA
ENDROOT
BRANCH   5   7
ATOM      7  C   UNL     1       5.967   4.477  15.125  0.00  0.00    +0.000 A 
ATOM      8  C   UNL     1       7.190   5.021  14.689  0.00  0.00    +0.000 A 
ATOM      9  C   UNL     1       7.600   4.897  13.359  0.00  0.00    +0.000 A 
ATOM     10  C   UNL     1       6.801   4.221  12.441  0.00  0.00    +0.000 A 
ATOM     11  C   UNL     1       5.604   3.646  12.857  0.00  0.00    +0.000 A 
ATOM     12  C   UNL     1       5.190   3.773  14.185  0.00  0.00    +0.000 A 
ENDBRANCH   5   7
BRANCH   5  13
ATOM     13  C   UNL     1       6.403   5.659  17.344  0.00  0.00    +0.000 A 
ATOM     14  C   UNL     1       7.152   5.203  18.450  0.00  0.00    +0.000 A 
ATOM     15  C   UNL     1       8.068   6.031  19.102  0.00  0.00    +0.000 A 
ATOM     16  C   UNL     1       8.255   7.339  18.670  0.00  0.00    +0.000 A 
ATOM     17  C   UNL     1       7.513   7.824  17.595  0.00  0.00    +0.000 A 
ATOM     18  C   UNL     1       6.596   6.995  16.940  0.00  0.00    +0.000 A 
ENDBRANCH   5  13
BRANCH   1  19
ATOM     19  C   UNL     1       3.569   6.490  18.511  0.00  0.00    +0.000 C 
BRANCH  19  20
ATOM     20  N   UNL     1       2.481   7.461  18.721  0.00  0.00    +0.000 NA
ATOM     21  H   UNL     1       2.583   7.873  19.646  0.00  0.00    +0.000 HD
BRANCH  20  22
ATOM     22  C   UNL     1       2.557   8.562  17.724  0.00  0.00    +0.000 C 
BRANCH  22  23
ATOM     23  C   UNL     1       1.630   9.751  18.046  0.00  0.00    +0.000 C 
BRANCH  23  24
ATOM     24  O   UNL     1       0.433   9.343  18.703  0.00  0.00    +0.000 OA
BRANCH  24  30
ATOM     25  C   UNL     1      -1.622  10.630  18.027  0.00  0.00    +0.000 A 
ATOM     26  C   UNL     1      -2.546  11.612  18.426  0.00  0.00    +0.000 A 
ATOM     27  C   UNL     1      -2.349  12.347  19.592  0.00  0.00    +0.000 A 
ATOM     28  C   UNL     1      -1.240  12.083  20.392  0.00  0.00    +0.000 A 
ATOM     29  C   UNL     1      -0.348  11.065  20.032  0.00  0.00    +0.000 A 
ATOM     30  C   UNL     1      -0.534  10.316  18.864  0.00  0.00    +0.000 A 
BRANCH  25  32
ATOM     31  C   UNL     1      -2.669  10.582  15.897  0.00  0.00    +0.000 C 
ATOM     32  O   UNL     1      -1.837   9.939  16.863  0.00  0.00    +0.000 OA
ENDBRANCH  25  32
ENDBRANCH  24  30
ENDBRANCH  23  24
ENDBRANCH  22  23
ENDBRANCH  20  22
ENDBRANCH  19  20
ENDBRANCH   1  19
TORSDOF 9
ENDMDL
MODEL 7
REMARK VINA RESULT:      -7.4      1.391      1.884
REMARK  Name = 
REMARK  10 active torsions:
REMARK  status: ('A' for Active; 'I' for Inactive)
REMARK    1  A    between atoms: C_1  and  O_2
REMARK    2  A    between atoms: O_2  and  C_3
REMARK    3  A    between atoms: C_8  and  O_9
REMARK    4  A    between atoms: O_9  and  C_10
REMARK    5  A    between atoms: C_10  and  C_11
REMARK    6  A    between atoms: C_11  and  N_12
REMARK    7  A    between atoms: N_12  and  C_13
REMARK    8  A    between atoms: C_13  and  C_14
REMARK    9  A    between atoms: C_18  and  C_19
REMARK   10  A    between atoms: C_18  and  C_25
REMARK                            x       y       z     vdW  Elec       q    Type
REMARK                         _______ _______ _______ _____ _____    ______ ____
ROOT
ATOM      1  C   UNL     1       5.988   5.300  18.052  0.00  0.00    +0.000 C 
ATOM      2  C   UNL     1       5.779   4.705  16.656  0.00  0.00    +0.000 C 
ATOM      3  O   UNL     1       4.429   4.832  16.205  0.00  0.00    +0.000 OA
ATOM      4  C   UNL     1       3.550   4.203  17.156  0.00  0.00    +0.000 C 
ATOM      5  C   UNL     1       3.609   4.898  18.548  0.00  0.00    +0.000 C 
ATOM      6  O   UNL     1       4.986   4.888  19.009  0.00  0.00    +0.000 OA
ENDROOT
BRANCH   5   7
ATOM      7  C   UNL     1       2.807   3.966  19.497  0.00  0.00    +0.000 A 
ATOM      8  C   UNL     1       1.428   3.748  19.308  0.00  0.00    +0.000 A 
ATOM      9  C   UNL     1       0.681   3.022  20.238  0.00  0.00    +0.000 A 
ATOM     10  C   UNL     1       1.295   2.491  21.368  0.00  0.00    +0.000 A 
ATOM     11  C   UNL     1       2.663   2.666  21.558  0.00  0.00    +0.000 A 
ATOM     12  C   UNL     1       3.412   3.396  20.633  0.00  0.00    +0.000 A 
ENDBRANCH   5   7
BRANCH   5  13
ATOM     13  C   UNL     1       3.041   6.336  18.577  0.00  0.00    +0.000 A 
ATOM     14  C   UNL     1       3.024   7.167  17.437  0.00  0.00    +0.000 A 
ATOM     15  C   UNL     1       2.446   8.437  17.468  0.00  0.00    +0.000 A 
ATOM     16  C   UNL     1       1.876   8.914  18.643  0.00  0.00    +0.000 A 
ATOM     17  C   UNL     1       1.898   8.125  19.792  0.00  0.00    +0.000 A 
ATOM     18  C   UNL     1       2.476   6.851  19.761  0.00  0.00    +0.000 A 
ENDBRANCH   5  13
BRANCH   1  19
ATOM     19  C   UNL     1       6.142   6.833  18.110  0.00  0.00    +0.000 C 
BRANCH  19  20
ATOM     20  N   UNL     1       7.202   7.420  17.272  0.00  0.00    +0.000 NA
ATOM     21  H   UNL     1       6.788   8.121  16.661  0.00  0.00    +0.000 HD
BRANCH  20  22
ATOM     22  C   UNL     1       8.224   8.100  18.112  0.00  0.00    +0.000 C 
BRANCH  22  23
ATOM     23  C   UNL     1       8.203   9.636  17.989  0.00  0.00    +0.000 C 
BRANCH  23  24
ATOM     24  O   UNL     1       9.476  10.219  18.259  0.00  0.00    +0.000 OA
BRANCH  24  30
ATOM     25  C   UNL     1       9.287  12.007  20.021  0.00  0.00    +0.000 A 
ATOM     26  C   UNL     1       9.396  13.386  20.276  0.00  0.00    +0.000 A 
ATOM     27  C   UNL     1       9.581  14.291  19.235  0.00  0.00    +0.000 A 
ATOM     28  C   UNL     1       9.694  13.825  17.929  0.00  0.00    +0.000 A 
ATOM     29  C   UNL     1       9.647  12.449  17.674  0.00  0.00    +0.000 A 
ATOM     30  C   UNL     1       9.463  11.524  18.710  0.00  0.00    +0.000 A 
BRANCH  25  32
ATOM     31  C   UNL     1       8.500  11.708  22.240  0.00  0.00    +0.000 C 
ATOM     32  O   UNL     1       9.086  11.144  21.067  0.00  0.00    +0.000 OA
ENDBRANCH  25  32
ENDBRANCH  24  30
ENDBRANCH  23  24
ENDBRANCH  22  23
ENDBRANCH  20  22
ENDBRANCH  19  20
ENDBRANCH   1  19
TORSDOF 9
ENDMDL
MODEL 8
REMARK VINA RESULT:      -7.4      3.754      7.262
REMARK  Name = 
REMARK  10 active torsions:
REMARK  status: ('A' for Active; 'I' for Inactive)
REMARK    1  A    between atoms: C_1  and  O_2
REMARK    2  A    between atoms: O_2  and  C_3
REMARK    3  A    between atoms: C_8  and  O_9
REMARK    4  A    between atoms: O_9  and  C_10
REMARK    5  A    between atoms: C_10  and  C_11
REMARK    6  A    between atoms: C_11  and  N_12
REMARK    7  A    between atoms: N_12  and  C_13
REMARK    8  A    between atoms: C_13  and  C_14
REMARK    9  A    between atoms: C_18  and  C_19
REMARK   10  A    between atoms: C_18  and  C_25
REMARK                            x       y       z     vdW  Elec       q    Type
REMARK                         _______ _______ _______ _____ _____    ______ ____
ROOT
ATOM      1  C   UNL     1       3.298   5.090  17.493  0.00  0.00    +0.000 C 
ATOM      2  C   UNL     1       3.352   3.659  18.034  0.00  0.00    +0.000 C 
ATOM      3  O   UNL     1       4.689   3.175  18.165  0.00  0.00    +0.000 OA
ATOM      4  C   UNL     1       5.349   3.254  16.888  0.00  0.00    +0.000 C 
ATOM      5  C   UNL     1       5.468   4.723  16.386  0.00  0.00    +0.000 C 
ATOM      6  O   UNL     1       4.136   5.299  16.334  0.00  0.00    +0.000 OA
ENDROOT
BRANCH   5   7
ATOM      7  C   UNL     1       5.971   4.608  14.922  0.00  0.00    +0.000 A 
ATOM      8  C   UNL     1       5.271   3.843  13.969  0.00  0.00    +0.000 A 
ATOM      9  C   UNL     1       5.795   3.630  12.692  0.00  0.00    +0.000 A 
ATOM     10  C   UNL     1       7.021   4.183  12.338  0.00  0.00    +0.000 A 
ATOM     11  C   UNL     1       7.715   4.971  13.252  0.00  0.00    +0.000 A 
ATOM     12  C   UNL     1       7.196   5.181  14.531  0.00  0.00    +0.000 A 
ENDBRANCH   5   7
BRANCH   5  13
ATOM     13  C   UNL     1       6.410   5.618  17.225  0.00  0.00    +0.000 A 
ATOM     14  C   UNL     1       7.170   5.117  18.302  0.00  0.00    +0.000 A 
ATOM     15  C   UNL     1       8.065   5.928  19.004  0.00  0.00    +0.000 A 
ATOM     16  C   UNL     1       8.217   7.264  18.651  0.00  0.00    +0.000 A 
ATOM     17  C   UNL     1       7.462   7.793  17.606  0.00  0.00    +0.000 A 
ATOM     18  C   UNL     1       6.566   6.981  16.901  0.00  0.00    +0.000 A 
ENDBRANCH   5  13
BRANCH   1  19
ATOM     19  C   UNL     1       3.571   6.206  18.522  0.00  0.00    +0.000 C 
BRANCH  19  20
ATOM     20  N   UNL     1       3.405   5.848  19.941  0.00  0.00    +0.000 NA
ATOM     21  H   UNL     1       3.735   6.620  20.516  0.00  0.00    +0.000 HD
BRANCH  20  22
ATOM     22  C   UNL     1       1.970   5.626  20.264  0.00  0.00    +0.000 C 
BRANCH  22  23
ATOM     23  C   UNL     1       1.344   6.754  21.108  0.00  0.00    +0.000 C 
BRANCH  23  24
ATOM     24  O   UNL     1       1.903   8.030  20.805  0.00  0.00    +0.000 OA
BRANCH  24  30
ATOM     25  C   UNL     1      -0.031   9.641  20.791  0.00  0.00    +0.000 A 
ATOM     26  C   UNL     1      -0.722  10.600  20.030  0.00  0.00    +0.000 A 
ATOM     27  C   UNL     1      -0.414  10.803  18.687  0.00  0.00    +0.000 A 
ATOM     28  C   UNL     1       0.613  10.071  18.098  0.00  0.00    +0.000 A 
ATOM     29  C   UNL     1       1.346   9.158  18.866  0.00  0.00    +0.000 A 
ATOM     30  C   UNL     1       1.051   8.944  20.218  0.00  0.00    +0.000 A 
BRANCH  25  32
ATOM     31  C   UNL     1      -0.757  10.625  22.826  0.00  0.00    +0.000 C 
ATOM     32  O   UNL     1      -0.371   9.453  22.105  0.00  0.00    +0.000 OA
ENDBRANCH  25  32
ENDBRANCH  24  30
ENDBRANCH  23  24
ENDBRANCH  22  23
ENDBRANCH  20  22
ENDBRANCH  19  20
ENDBRANCH   1  19
TORSDOF 9
ENDMDL
MODEL 9
REMARK VINA RESULT:      -7.4      3.665      7.053
REMARK  Name = 
REMARK  10 active torsions:
REMARK  status: ('A' for Active; 'I' for Inactive)
REMARK    1  A    between atoms: C_1  and  O_2
REMARK    2  A    between atoms: O_2  and  C_3
REMARK    3  A    between atoms: C_8  and  O_9
REMARK    4  A    between atoms: O_9  and  C_10
REMARK    5  A    between atoms: C_10  and  C_11
REMARK    6  A    between atoms: C_11  and  N_12
REMARK    7  A    between atoms: N_12  and  C_13
REMARK    8  A    between atoms: C_13  and  C_14
REMARK    9  A    between atoms: C_18  and  C_19
REMARK   10  A    between atoms: C_18  and  C_25
REMARK                            x       y       z     vdW  Elec       q    Type
REMARK                         _______ _______ _______ _____ _____    ______ ____
ROOT
ATOM      1  C   UNL     1       3.253   5.089  17.678  0.00  0.00    +0.000 C 
ATOM      2  C   UNL     1       3.289   3.652  18.206  0.00  0.00    +0.000 C 
ATOM      3  O   UNL     1       4.619   3.137  18.297  0.00  0.00    +0.000 OA
ATOM      4  C   UNL     1       5.247   3.213  17.005  0.00  0.00    +0.000 C 
ATOM      5  C   UNL     1       5.384   4.684  16.513  0.00  0.00    +0.000 C 
ATOM      6  O   UNL     1       4.065   5.290  16.500  0.00  0.00    +0.000 OA
ENDROOT
BRANCH   5   7
ATOM      7  C   UNL     1       5.847   4.573  15.035  0.00  0.00    +0.000 A 
ATOM      8  C   UNL     1       5.071   3.889  14.079  0.00  0.00    +0.000 A 
ATOM      9  C   UNL     1       5.550   3.672  12.785  0.00  0.00    +0.000 A 
ATOM     10  C   UNL     1       6.808   4.141  12.417  0.00  0.00    +0.000 A 
ATOM     11  C   UNL     1       7.578   4.849  13.335  0.00  0.00    +0.000 A 
ATOM     12  C   UNL     1       7.104   5.062  14.631  0.00  0.00    +0.000 A 
ENDBRANCH   5   7
BRANCH   5  13
ATOM     13  C   UNL     1       6.367   5.551  17.334  0.00  0.00    +0.000 A 
ATOM     14  C   UNL     1       7.114   5.033  18.413  0.00  0.00    +0.000 A 
ATOM     15  C   UNL     1       8.045   5.816  19.099  0.00  0.00    +0.000 A 
ATOM     16  C   UNL     1       8.249   7.140  18.728  0.00  0.00    +0.000 A 
ATOM     17  C   UNL     1       7.508   7.686  17.681  0.00  0.00    +0.000 A 
ATOM     18  C   UNL     1       6.577   6.902  16.992  0.00  0.00    +0.000 A 
ENDBRANCH   5  13
BRANCH   1  19
ATOM     19  C   UNL     1       3.577   6.188  18.710  0.00  0.00    +0.000 C 
BRANCH  19  20
ATOM     20  N   UNL     1       2.567   7.246  18.884  0.00  0.00    +0.000 NA
ATOM     21  H   UNL     1       2.715   7.697  19.785  0.00  0.00    +0.000 HD
BRANCH  20  22
ATOM     22  C   UNL     1       2.704   8.286  17.830  0.00  0.00    +0.000 C 
BRANCH  22  23
ATOM     23  C   UNL     1       1.523   9.276  17.781  0.00  0.00    +0.000 C 
BRANCH  23  24
ATOM     24  O   UNL     1       1.428  10.066  18.965  0.00  0.00    +0.000 OA
BRANCH  24  30
ATOM     25  C   UNL     1      -0.637  11.499  18.828  0.00  0.00    +0.000 A 
ATOM     26  C   UNL     1      -1.118  12.819  18.782  0.00  0.00    +0.000 A 
ATOM     27  C   UNL     1      -0.242  13.894  18.655  0.00  0.00    +0.000 A 
ATOM     28  C   UNL     1       1.129  13.663  18.606  0.00  0.00    +0.000 A 
ATOM     29  C   UNL     1       1.619  12.355  18.713  0.00  0.00    +0.000 A 
ATOM     30  C   UNL     1       0.752  11.263  18.844  0.00  0.00    +0.000 A 
BRANCH  25  32
ATOM     31  C   UNL     1      -2.235  10.121  17.743  0.00  0.00    +0.000 C 
ATOM     32  O   UNL     1      -1.526  10.462  18.935  0.00  0.00    +0.000 OA
ENDBRANCH  25  32
ENDBRANCH  24  30
ENDBRANCH  23  24
ENDBRANCH  22  23
ENDBRANCH  20  22
ENDBRANCH  19  20
ENDBRANCH   1  19
TORSDOF 9
ENDMDL
