MODEL 1
REMARK VINA RESULT:      -8.0      0.000      0.000
REMARK  Name = 
REMARK  6 active torsions:
REMARK  status: ('A' for Active; 'I' for Inactive)
REMARK    1  A    between atoms: C_1  and  O_2
REMARK    2  A    between atoms: O_2  and  C_3
REMARK    3  A    between atoms: C_6  and  C_7
REMARK    4  A    between atoms: C_7  and  N_8
REMARK    5  A    between atoms: C_9  and  C_11
REMARK    6  A    between atoms: C_11  and  C_13
REMARK                            x       y       z     vdW  Elec       q    Type
REMARK                         _______ _______ _______ _____ _____    ______ ____
ROOT
ATOM      1  N   UNL     1       3.523   5.276  18.523  0.00  0.00    +0.000 N 
ATOM      2  C   UNL     1       4.733   4.578  18.477  0.00  0.00    +0.000 C 
ATOM      3  O   UNL     1       5.536   4.493  19.387  0.00  0.00    +0.000 OA
ATOM      4  H   UNL     1       2.912   5.142  17.721  0.00  0.00    +0.000 HD
ENDROOT
BRANCH   2   5
ATOM      5  C   UNL     1       4.978   3.901  17.102  0.00  0.00    +0.000 C 
ATOM      6  O   UNL     1       4.287   2.880  16.946  0.00  0.00    +0.000 OA
BRANCH   5   7
ATOM      7  C   UNL     1       5.933   4.292  16.048  0.00  0.00    +0.000 A 
ATOM      8  C   UNL     1       7.099   4.946  16.431  0.00  0.00    +0.000 A 
ATOM      9  N   UNL     1       7.572   5.616  15.351  0.00  0.00    +0.000 N 
ATOM     10  C   UNL     1       7.172   4.950  14.236  0.00  0.00    +0.000 A 
ATOM     11  C   UNL     1       7.712   5.002  12.939  0.00  0.00    +0.000 A 
ATOM     12  C   UNL     1       7.125   4.212  11.961  0.00  0.00    +0.000 A 
ATOM     13  C   UNL     1       5.978   3.480  12.257  0.00  0.00    +0.000 A 
ATOM     14  C   UNL     1       5.422   3.461  13.555  0.00  0.00    +0.000 A 
ATOM     15  C   UNL     1       6.073   4.152  14.608  0.00  0.00    +0.000 A 
ATOM     16  H   UNL     1       8.218   6.392  15.366  0.00  0.00    +0.000 HD
ENDBRANCH   5   7
ENDBRANCH   2   5
BRANCH   1  17
ATOM     17  C   UNL     1       3.000   5.934  19.698  0.00  0.00    +0.000 C 
BRANCH  17  21
ATOM     18  C   UNL     1       1.131   9.814  18.994  0.00  0.00    +0.000 A 
ATOM     19  C   UNL     1       1.043   9.192  20.240  0.00  0.00    +0.000 A 
ATOM     20  C   UNL     1       1.618   7.930  20.451  0.00  0.00    +0.000 A 
ATOM     21  C   UNL     1       2.279   7.246  19.413  0.00  0.00    +0.000 A 
ATOM     22  C   UNL     1       2.339   7.877  18.162  0.00  0.00    +0.000 A 
ATOM     23  C   UNL     1       1.767   9.145  17.953  0.00  0.00    +0.000 A 
BRANCH  18  25
ATOM     24  C   UNL     1       1.423  12.161  18.738  0.00  0.00    +0.000 C 
ATOM     25  O   UNL     1       0.546  11.049  18.914  0.00  0.00    +0.000 OA
ENDBRANCH  18  25
ENDBRANCH  17  21
ENDBRANCH   1  17
TORSDOF 5
ENDMDL
MODEL 2
REMARK VINA RESULT:      -7.9      3.009      5.113
REMARK  Name = 
REMARK  6 active torsions:
REMARK  status: ('A' for Active; 'I' for Inactive)
REMARK    1  A    between atoms: C_1  and  O_2
REMARK    2  A    between atoms: O_2  and  C_3
REMARK    3  A    between atoms: C_6  and  C_7
REMARK    4  A    between atoms: C_7  and  N_8
REMARK    5  A    between atoms: C_9  and  C_11
REMARK    6  A    between atoms: C_11  and  C_13
REMARK                            x       y       z     vdW  Elec       q    Type
REMARK                         _______ _______ _______ _____ _____    ______ ____
ROOT
ATOM      1  N   UNL     1       3.411   6.905  17.690  0.00  0.00    +0.000 N 
ATOM      2  C   UNL     1       4.397   6.354  16.866  0.00  0.00    +0.000 C 
ATOM      3  O   UNL     1       4.945   6.922  15.940  0.00  0.00    +0.000 OA
ATOM      4  H   UNL     1       3.151   6.340  18.494  0.00  0.00    +0.000 HD
ENDROOT
BRANCH   2   5
ATOM      5  C   UNL     1       4.740   4.888  17.246  0.00  0.00    +0.000 C 
ATOM      6  O   UNL     1       5.398   4.311  16.364  0.00  0.00    +0.000 OA
BRANCH   5   7
ATOM      7  C   UNL     1       4.340   4.138  18.452  0.00  0.00    +0.000 A 
ATOM      8  C   UNL     1       5.335   3.505  19.189  0.00  0.00    +0.000 A 
ATOM      9  N   UNL     1       4.749   2.526  19.921  0.00  0.00    +0.000 N 
ATOM     10  C   UNL     1       3.467   2.901  20.171  0.00  0.00    +0.000 A 
ATOM     11  C   UNL     1       2.599   2.450  21.181  0.00  0.00    +0.000 A 
ATOM     12  C   UNL     1       1.326   2.998  21.233  0.00  0.00    +0.000 A 
ATOM     13  C   UNL     1       0.912   3.888  20.246  0.00  0.00    +0.000 A 
ATOM     14  C   UNL     1       1.780   4.309  19.214  0.00  0.00    +0.000 A 
ATOM     15  C   UNL     1       3.128   3.870  19.207  0.00  0.00    +0.000 A 
ATOM     16  H   UNL     1       5.211   1.726  20.327  0.00  0.00    +0.000 HD
ENDBRANCH   5   7
ENDBRANCH   2   5
BRANCH   1  17
ATOM     17  C   UNL     1       2.955   8.273  17.618  0.00  0.00    +0.000 C 
BRANCH  17  21
ATOM     18  C   UNL     1       0.184   9.470  20.770  0.00  0.00    +0.000 A 
ATOM     19  C   UNL     1       1.070   8.409  20.960  0.00  0.00    +0.000 A 
ATOM     20  C   UNL     1       1.936   8.008  19.932  0.00  0.00    +0.000 A 
ATOM     21  C   UNL     1       1.923   8.646  18.677  0.00  0.00    +0.000 A 
ATOM     22  C   UNL     1       1.011   9.695  18.497  0.00  0.00    +0.000 A 
ATOM     23  C   UNL     1       0.147  10.100  19.530  0.00  0.00    +0.000 A 
BRANCH  18  25
ATOM     24  C   UNL     1      -0.049   9.500  23.138  0.00  0.00    +0.000 C 
ATOM     25  O   UNL     1      -0.598   9.779  21.850  0.00  0.00    +0.000 OA
ENDBRANCH  18  25
ENDBRANCH  17  21
ENDBRANCH   1  17
TORSDOF 5
ENDMDL
MODEL 3
REMARK VINA RESULT:      -7.9      0.580      1.157
REMARK  Name = 
REMARK  6 active torsions:
REMARK  status: ('A' for Active; 'I' for Inactive)
REMARK    1  A    between atoms: C_1  and  O_2
REMARK    2  A    between atoms: O_2  and  C_3
REMARK    3  A    between atoms: C_6  and  C_7
REMARK    4  A    between atoms: C_7  and  N_8
REMARK    5  A    between atoms: C_9  and  C_11
REMARK    6  A    between atoms: C_11  and  C_13
REMARK                            x       y       z     vdW  Elec       q    Type
REMARK                         _______ _______ _______ _____ _____    ______ ____
ROOT
ATOM      1  N   UNL     1       3.324   5.543  18.454  0.00  0.00    +0.000 N 
ATOM      2  C   UNL     1       4.427   4.688  18.381  0.00  0.00    +0.000 C 
ATOM      3  O   UNL     1       5.178   4.421  19.301  0.00  0.00    +0.000 OA
ATOM      4  H   UNL     1       2.730   5.558  17.629  0.00  0.00    +0.000 HD
ENDROOT
BRANCH   2   5
ATOM      5  C   UNL     1       4.627   4.093  16.962  0.00  0.00    +0.000 C 
ATOM      6  O   UNL     1       3.793   3.212  16.695  0.00  0.00    +0.000 OA
BRANCH   5   7
ATOM      7  C   UNL     1       5.680   4.409  15.978  0.00  0.00    +0.000 A 
ATOM      8  C   UNL     1       6.852   5.000  16.439  0.00  0.00    +0.000 A 
ATOM      9  N   UNL     1       7.443   5.623  15.391  0.00  0.00    +0.000 N 
ATOM     10  C   UNL     1       7.087   4.963  14.257  0.00  0.00    +0.000 A 
ATOM     11  C   UNL     1       7.724   4.961  13.003  0.00  0.00    +0.000 A 
ATOM     12  C   UNL     1       7.165   4.191  11.994  0.00  0.00    +0.000 A 
ATOM     13  C   UNL     1       5.958   3.532  12.211  0.00  0.00    +0.000 A 
ATOM     14  C   UNL     1       5.307   3.568  13.464  0.00  0.00    +0.000 A 
ATOM     15  C   UNL     1       5.918   4.237  14.555  0.00  0.00    +0.000 A 
ATOM     16  H   UNL     1       8.131   6.359  15.444  0.00  0.00    +0.000 HD
ENDBRANCH   5   7
ENDBRANCH   2   5
BRANCH   1  17
ATOM     17  C   UNL     1       2.853   6.173  19.666  0.00  0.00    +0.000 C 
BRANCH  17  21
ATOM     18  C   UNL     1       0.803   9.957  18.948  0.00  0.00    +0.000 A 
ATOM     19  C   UNL     1       1.512   9.322  17.928  0.00  0.00    +0.000 A 
ATOM     20  C   UNL     1       2.196   8.122  18.173  0.00  0.00    +0.000 A 
ATOM     21  C   UNL     1       2.206   7.536  19.453  0.00  0.00    +0.000 A 
ATOM     22  C   UNL     1       1.506   8.200  20.471  0.00  0.00    +0.000 A 
ATOM     23  C   UNL     1       0.816   9.400  20.223  0.00  0.00    +0.000 A 
BRANCH  18  25
ATOM     24  C   UNL     1      -0.750  11.662  19.533  0.00  0.00    +0.000 C 
ATOM     25  O   UNL     1       0.163  11.111  18.584  0.00  0.00    +0.000 OA
ENDBRANCH  18  25
ENDBRANCH  17  21
ENDBRANCH   1  17
TORSDOF 5
ENDMDL
MODEL 4
REMARK VINA RESULT:      -7.8      3.271      7.648
REMARK  Name = 
REMARK  6 active torsions:
REMARK  status: ('A' for Active; 'I' for Inactive)
REMARK    1  A    between atoms: C_1  and  O_2
REMARK    2  A    between atoms: O_2  and  C_3
REMARK    3  A    between atoms: C_6  and  C_7
REMARK    4  A    between atoms: C_7  and  N_8
REMARK    5  A    between atoms: C_9  and  C_11
REMARK    6  A    between atoms: C_11  and  C_13
REMARK                            x       y       z     vdW  Elec       q    Type
REMARK                         _______ _______ _______ _____ _____    ______ ____
ROOT
ATOM      1  N   UNL     1       6.779   5.643  16.617  0.00  0.00    +0.000 N 
ATOM      2  C   UNL     1       7.251   4.875  17.685  0.00  0.00    +0.000 C 
ATOM      3  O   UNL     1       8.223   4.143  17.656  0.00  0.00    +0.000 OA
ATOM      4  H   UNL     1       6.033   6.295  16.846  0.00  0.00    +0.000 HD
ENDROOT
BRANCH   2   5
ATOM      5  C   UNL     1       6.384   5.034  18.963  0.00  0.00    +0.000 C 
ATOM      6  O   UNL     1       7.069   5.239  19.979  0.00  0.00    +0.000 OA
BRANCH   5   7
ATOM      7  C   UNL     1       4.919   4.919  19.094  0.00  0.00    +0.000 A 
ATOM      8  C   UNL     1       4.192   6.077  19.354  0.00  0.00    +0.000 A 
ATOM      9  N   UNL     1       3.006   5.708  19.896  0.00  0.00    +0.000 N 
ATOM     10  C   UNL     1       2.697   4.470  19.427  0.00  0.00    +0.000 A 
ATOM     11  C   UNL     1       1.442   3.839  19.369  0.00  0.00    +0.000 A 
ATOM     12  C   UNL     1       1.384   2.561  18.831  0.00  0.00    +0.000 A 
ATOM     13  C   UNL     1       2.558   1.910  18.463  0.00  0.00    +0.000 A 
ATOM     14  C   UNL     1       3.819   2.539  18.557  0.00  0.00    +0.000 A 
ATOM     15  C   UNL     1       3.899   3.891  18.978  0.00  0.00    +0.000 A 
ATOM     16  H   UNL     1       2.392   6.293  20.443  0.00  0.00    +0.000 HD
ENDBRANCH   5   7
ENDBRANCH   2   5
BRANCH   1  17
ATOM     17  C   UNL     1       7.434   5.752  15.334  0.00  0.00    +0.000 C 
BRANCH  17  21
ATOM     18  C   UNL     1       5.755   3.147  12.262  0.00  0.00    +0.000 A 
ATOM     19  C   UNL     1       7.004   3.743  12.091  0.00  0.00    +0.000 A 
ATOM     20  C   UNL     1       7.525   4.605  13.067  0.00  0.00    +0.000 A 
ATOM     21  C   UNL     1       6.798   4.911  14.233  0.00  0.00    +0.000 A 
ATOM     22  C   UNL     1       5.535   4.320  14.378  0.00  0.00    +0.000 A 
ATOM     23  C   UNL     1       5.016   3.451  13.401  0.00  0.00    +0.000 A 
BRANCH  18  25
ATOM     24  C   UNL     1       6.148   1.141  11.045  0.00  0.00    +0.000 C 
ATOM     25  O   UNL     1       5.361   2.313  11.250  0.00  0.00    +0.000 OA
ENDBRANCH  18  25
ENDBRANCH  17  21
ENDBRANCH   1  17
TORSDOF 5
ENDMDL
MODEL 5
REMARK VINA RESULT:      -7.8      3.274      7.534
REMARK  Name = 
REMARK  6 active torsions:
REMARK  status: ('A' for Active; 'I' for Inactive)
REMARK    1  A    between atoms: C_1  and  O_2
REMARK    2  A    between atoms: O_2  and  C_3
REMARK    3  A    between atoms: C_6  and  C_7
REMARK    4  A    between atoms: C_7  and  N_8
REMARK    5  A    between atoms: C_9  and  C_11
REMARK    6  A    between atoms: C_11  and  C_13
REMARK                            x       y       z     vdW  Elec       q    Type
REMARK                         _______ _______ _______ _____ _____    ______ ____
ROOT
ATOM      1  N   UNL     1       6.721   5.746  16.639  0.00  0.00    +0.000 N 
ATOM      2  C   UNL     1       7.186   4.929  17.674  0.00  0.00    +0.000 C 
ATOM      3  O   UNL     1       8.156   4.196  17.615  0.00  0.00    +0.000 OA
ATOM      4  H   UNL     1       5.977   6.390  16.894  0.00  0.00    +0.000 HD
ENDROOT
BRANCH   2   5
ATOM      5  C   UNL     1       6.317   5.037  18.955  0.00  0.00    +0.000 C 
ATOM      6  O   UNL     1       6.998   5.234  19.976  0.00  0.00    +0.000 OA
BRANCH   5   7
ATOM      7  C   UNL     1       4.855   4.883  19.084  0.00  0.00    +0.000 A 
ATOM      8  C   UNL     1       4.126   5.955  19.588  0.00  0.00    +0.000 A 
ATOM      9  N   UNL     1       2.952   5.470  20.062  0.00  0.00    +0.000 N 
ATOM     10  C   UNL     1       2.643   4.353  19.353  0.00  0.00    +0.000 A 
ATOM     11  C   UNL     1       1.391   3.735  19.186  0.00  0.00    +0.000 A 
ATOM     12  C   UNL     1       1.331   2.595  18.398  0.00  0.00    +0.000 A 
ATOM     13  C   UNL     1       2.502   2.045  17.884  0.00  0.00    +0.000 A 
ATOM     14  C   UNL     1       3.760   2.653  18.086  0.00  0.00    +0.000 A 
ATOM     15  C   UNL     1       3.840   3.890  18.775  0.00  0.00    +0.000 A 
ATOM     16  H   UNL     1       2.344   5.925  20.727  0.00  0.00    +0.000 HD
ENDBRANCH   5   7
ENDBRANCH   2   5
BRANCH   1  17
ATOM     17  C   UNL     1       7.380   5.907  15.363  0.00  0.00    +0.000 C 
BRANCH  17  21
ATOM     18  C   UNL     1       5.896   3.244  12.241  0.00  0.00    +0.000 A 
ATOM     19  C   UNL     1       5.274   3.301  13.489  0.00  0.00    +0.000 A 
ATOM     20  C   UNL     1       5.775   4.136  14.499  0.00  0.00    +0.000 A 
ATOM     21  C   UNL     1       6.926   4.920  14.295  0.00  0.00    +0.000 A 
ATOM     22  C   UNL     1       7.551   4.832  13.043  0.00  0.00    +0.000 A 
ATOM     23  C   UNL     1       7.045   4.000  12.028  0.00  0.00    +0.000 A 
BRANCH  18  25
ATOM     24  C   UNL     1       5.921   1.132  11.146  0.00  0.00    +0.000 C 
ATOM     25  O   UNL     1       5.307   2.407  11.332  0.00  0.00    +0.000 OA
ENDBRANCH  18  25
ENDBRANCH  17  21
ENDBRANCH   1  17
TORSDOF 5
ENDMDL
MODEL 6
REMARK VINA RESULT:      -7.7      3.195      5.336
REMARK  Name = 
REMARK  6 active torsions:
REMARK  status: ('A' for Active; 'I' for Inactive)
REMARK    1  A    between atoms: C_1  and  O_2
REMARK    2  A    between atoms: O_2  and  C_3
REMARK    3  A    between atoms: C_6  and  C_7
REMARK    4  A    between atoms: C_7  and  N_8
REMARK    5  A    between atoms: C_9  and  C_11
REMARK    6  A    between atoms: C_11  and  C_13
REMARK                            x       y       z     vdW  Elec       q    Type
REMARK                         _______ _______ _______ _____ _____    ______ ____
ROOT
ATOM      1  N   UNL     1       2.951   7.051  17.550  0.00  0.00    +0.000 N 
ATOM      2  C   UNL     1       4.236   6.538  17.349  0.00  0.00    +0.000 C 
ATOM      3  O   UNL     1       5.262   7.192  17.313  0.00  0.00    +0.000 OA
ATOM      4  H   UNL     1       2.221   6.357  17.679  0.00  0.00    +0.000 HD
ENDROOT
BRANCH   2   5
ATOM      5  C   UNL     1       4.240   4.998  17.160  0.00  0.00    +0.000 C 
ATOM      6  O   UNL     1       4.984   4.636  16.233  0.00  0.00    +0.000 OA
BRANCH   5   7
ATOM      7  C   UNL     1       3.453   3.985  17.889  0.00  0.00    +0.000 A 
ATOM      8  C   UNL     1       3.242   2.754  17.275  0.00  0.00    +0.000 A 
ATOM      9  N   UNL     1       2.155   2.185  17.851  0.00  0.00    +0.000 N 
ATOM     10  C   UNL     1       2.068   2.645  19.127  0.00  0.00    +0.000 A 
ATOM     11  C   UNL     1       1.389   2.080  20.221  0.00  0.00    +0.000 A 
ATOM     12  C   UNL     1       1.459   2.742  21.439  0.00  0.00    +0.000 A 
ATOM     13  C   UNL     1       2.102   3.974  21.523  0.00  0.00    +0.000 A 
ATOM     14  C   UNL     1       2.753   4.550  20.410  0.00  0.00    +0.000 A 
ATOM     15  C   UNL     1       2.813   3.838  19.185  0.00  0.00    +0.000 A 
ATOM     16  H   UNL     1       1.586   1.451  17.457  0.00  0.00    +0.000 HD
ENDBRANCH   5   7
ENDBRANCH   2   5
BRANCH   1  17
ATOM     17  C   UNL     1       2.657   8.437  17.833  0.00  0.00    +0.000 C 
BRANCH  17  21
ATOM     18  C   UNL     1       0.310   9.140  21.444  0.00  0.00    +0.000 A 
ATOM     19  C   UNL     1       1.109   8.003  21.319  0.00  0.00    +0.000 A 
ATOM     20  C   UNL     1       1.836   7.766  20.144  0.00  0.00    +0.000 A 
ATOM     21  C   UNL     1       1.766   8.651  19.051  0.00  0.00    +0.000 A 
ATOM     22  C   UNL     1       0.941   9.777  19.187  0.00  0.00    +0.000 A 
ATOM     23  C   UNL     1       0.217  10.017  20.368  0.00  0.00    +0.000 A 
BRANCH  18  25
ATOM     24  C   UNL     1      -0.889  10.555  22.935  0.00  0.00    +0.000 C 
ATOM     25  O   UNL     1      -0.338   9.271  22.643  0.00  0.00    +0.000 OA
ENDBRANCH  18  25
ENDBRANCH  17  21
ENDBRANCH   1  17
TORSDOF 5
ENDMDL
MODEL 7
REMARK VINA RESULT:      -7.7      2.529      7.516
REMARK  Name = 
REMARK  6 active torsions:
REMARK  status: ('A' for Active; 'I' for Inactive)
REMARK    1  A    between atoms: C_1  and  O_2
REMARK    2  A    between atoms: O_2  and  C_3
REMARK    3  A    between atoms: C_6  and  C_7
REMARK    4  A    between atoms: C_7  and  N_8
REMARK    5  A    between atoms: C_9  and  C_11
REMARK    6  A    between atoms: C_11  and  C_13
REMARK                            x       y       z     vdW  Elec       q    Type
REMARK                         _______ _______ _______ _____ _____    ______ ____
ROOT
ATOM      1  N   UNL     1       5.550   6.068  17.634  0.00  0.00    +0.000 N 
ATOM      2  C   UNL     1       4.682   6.882  16.901  0.00  0.00    +0.000 C 
ATOM      3  O   UNL     1       4.888   7.306  15.779  0.00  0.00    +0.000 OA
ATOM      4  H   UNL     1       5.171   5.699  18.502  0.00  0.00    +0.000 HD
ENDROOT
BRANCH   2   5
ATOM      5  C   UNL     1       3.382   7.220  17.678  0.00  0.00    +0.000 C 
ATOM      6  O   UNL     1       2.957   8.359  17.421  0.00  0.00    +0.000 OA
BRANCH   5   7
ATOM      7  C   UNL     1       2.673   6.396  18.675  0.00  0.00    +0.000 A 
ATOM      8  C   UNL     1       2.279   7.001  19.864  0.00  0.00    +0.000 A 
ATOM      9  N   UNL     1       2.101   6.025  20.788  0.00  0.00    +0.000 N 
ATOM     10  C   UNL     1       1.749   4.888  20.132  0.00  0.00    +0.000 A 
ATOM     11  C   UNL     1       1.090   3.751  20.633  0.00  0.00    +0.000 A 
ATOM     12  C   UNL     1       0.832   2.711  19.752  0.00  0.00    +0.000 A 
ATOM     13  C   UNL     1       1.310   2.773  18.446  0.00  0.00    +0.000 A 
ATOM     14  C   UNL     1       2.001   3.905  17.960  0.00  0.00    +0.000 A 
ATOM     15  C   UNL     1       2.166   5.039  18.796  0.00  0.00    +0.000 A 
ATOM     16  H   UNL     1       2.097   6.144  21.790  0.00  0.00    +0.000 HD
ENDBRANCH   5   7
ENDBRANCH   2   5
BRANCH   1  17
ATOM     17  C   UNL     1       6.794   5.533  17.130  0.00  0.00    +0.000 C 
BRANCH  17  21
ATOM     18  C   UNL     1       6.252   3.729  13.194  0.00  0.00    +0.000 A 
ATOM     19  C   UNL     1       5.515   3.286  14.292  0.00  0.00    +0.000 A 
ATOM     20  C   UNL     1       5.717   3.848  15.561  0.00  0.00    +0.000 A 
ATOM     21  C   UNL     1       6.678   4.855  15.770  0.00  0.00    +0.000 A 
ATOM     22  C   UNL     1       7.425   5.272  14.659  0.00  0.00    +0.000 A 
ATOM     23  C   UNL     1       7.218   4.712  13.385  0.00  0.00    +0.000 A 
BRANCH  18  25
ATOM     24  C   UNL     1       4.603   3.207  11.560  0.00  0.00    +0.000 C 
ATOM     25  O   UNL     1       5.956   3.118  12.005  0.00  0.00    +0.000 OA
ENDBRANCH  18  25
ENDBRANCH  17  21
ENDBRANCH   1  17
TORSDOF 5
ENDMDL
MODEL 8
REMARK VINA RESULT:      -7.7      3.620      5.745
REMARK  Name = 
REMARK  6 active torsions:
REMARK  status: ('A' for Active; 'I' for Inactive)
REMARK    1  A    between atoms: C_1  and  O_2
REMARK    2  A    between atoms: O_2  and  C_3
REMARK    3  A    between atoms: C_6  and  C_7
REMARK    4  A    between atoms: C_7  and  N_8
REMARK    5  A    between atoms: C_9  and  C_11
REMARK    6  A    between atoms: C_11  and  C_13
REMARK                            x       y       z     vdW  Elec       q    Type
REMARK                         _______ _______ _______ _____ _____    ______ ____
ROOT
ATOM      1  N   UNL     1       0.771   9.606  19.153  0.00  0.00    +0.000 N 
ATOM      2  C   UNL     1       1.701   8.882  18.401  0.00  0.00    +0.000 C 
ATOM      3  O   UNL     1       2.106   9.186  17.294  0.00  0.00    +0.000 OA
ATOM      4  H   UNL     1       0.637   9.282  20.107  0.00  0.00    +0.000 HD
ENDROOT
BRANCH   2   5
ATOM      5  C   UNL     1       2.184   7.598  19.126  0.00  0.00    +0.000 C 
ATOM      6  O   UNL     1       2.084   7.684  20.362  0.00  0.00    +0.000 OA
BRANCH   5   7
ATOM      7  C   UNL     1       2.768   6.379  18.535  0.00  0.00    +0.000 A 
ATOM      8  C   UNL     1       4.043   6.465  17.984  0.00  0.00    +0.000 A 
ATOM      9  N   UNL     1       4.186   5.438  17.110  0.00  0.00    +0.000 N 
ATOM     10  C   UNL     1       3.393   4.418  17.530  0.00  0.00    +0.000 A 
ATOM     11  C   UNL     1       3.481   3.049  17.217  0.00  0.00    +0.000 A 
ATOM     12  C   UNL     1       2.547   2.194  17.785  0.00  0.00    +0.000 A 
ATOM     13  C   UNL     1       1.508   2.713  18.553  0.00  0.00    +0.000 A 
ATOM     14  C   UNL     1       1.408   4.093  18.833  0.00  0.00    +0.000 A 
ATOM     15  C   UNL     1       2.419   4.978  18.378  0.00  0.00    +0.000 A 
ATOM     16  H   UNL     1       4.858   5.383  16.359  0.00  0.00    +0.000 HD
ENDBRANCH   5   7
ENDBRANCH   2   5
BRANCH   1  17
ATOM     17  C   UNL     1       0.214  10.880  18.762  0.00  0.00    +0.000 C 
BRANCH  17  21
ATOM     18  C   UNL     1      -3.992  10.958  17.603  0.00  0.00    +0.000 A 
ATOM     19  C   UNL     1      -3.518  11.772  18.632  0.00  0.00    +0.000 A 
ATOM     20  C   UNL     1      -2.171  11.719  19.022  0.00  0.00    +0.000 A 
ATOM     21  C   UNL     1      -1.267  10.833  18.406  0.00  0.00    +0.000 A 
ATOM     22  C   UNL     1      -1.767  10.008  17.388  0.00  0.00    +0.000 A 
ATOM     23  C   UNL     1      -3.116  10.065  16.994  0.00  0.00    +0.000 A 
BRANCH  18  25
ATOM     24  C   UNL     1      -6.244  10.912  18.370  0.00  0.00    +0.000 C 
ATOM     25  O   UNL     1      -5.319  11.110  17.301  0.00  0.00    +0.000 OA
ENDBRANCH  18  25
ENDBRANCH  17  21
ENDBRANCH   1  17
TORSDOF 5
ENDMDL
MODEL 9
REMARK VINA RESULT:      -7.6      3.068      5.307
REMARK  Name = 
REMARK  6 active torsions:
REMARK  status: ('A' for Active; 'I' for Inactive)
REMARK    1  A    between atoms: C_1  and  O_2
REMARK    2  A    between atoms: O_2  and  C_3
REMARK    3  A    between atoms: C_6  and  C_7
REMARK    4  A    between atoms: C_7  and  N_8
REMARK    5  A    between atoms: C_9  and  C_11
REMARK    6  A    between atoms: C_11  and  C_13
REMARK                            x       y       z     vdW  Elec       q    Type
REMARK                         _______ _______ _______ _____ _____    ______ ____
ROOT
ATOM      1  N   UNL     1       3.188   6.840  17.492  0.00  0.00    +0.000 N 
ATOM      2  C   UNL     1       4.482   6.355  17.281  0.00  0.00    +0.000 C 
ATOM      3  O   UNL     1       5.478   7.038  17.131  0.00  0.00    +0.000 OA
ATOM      4  H   UNL     1       2.492   6.136  17.723  0.00  0.00    +0.000 HD
ENDROOT
BRANCH   2   5
ATOM      5  C   UNL     1       4.538   4.804  17.241  0.00  0.00    +0.000 C 
ATOM      6  O   UNL     1       5.422   4.381  16.476  0.00  0.00    +0.000 OA
BRANCH   5   7
ATOM      7  C   UNL     1       3.665   3.840  17.935  0.00  0.00    +0.000 A 
ATOM      8  C   UNL     1       3.435   2.610  17.327  0.00  0.00    +0.000 A 
ATOM      9  N   UNL     1       2.291   2.099  17.844  0.00  0.00    +0.000 N 
ATOM     10  C   UNL     1       2.149   2.583  19.106  0.00  0.00    +0.000 A 
ATOM     11  C   UNL     1       1.381   2.067  20.165  0.00  0.00    +0.000 A 
ATOM     12  C   UNL     1       1.408   2.745  21.375  0.00  0.00    +0.000 A 
ATOM     13  C   UNL     1       2.100   3.948  21.481  0.00  0.00    +0.000 A 
ATOM     14  C   UNL     1       2.842   4.477  20.401  0.00  0.00    +0.000 A 
ATOM     15  C   UNL     1       2.943   3.743  19.192  0.00  0.00    +0.000 A 
ATOM     16  H   UNL     1       1.714   1.384  17.426  0.00  0.00    +0.000 HD
ENDBRANCH   5   7
ENDBRANCH   2   5
BRANCH   1  17
ATOM     17  C   UNL     1       2.852   8.235  17.654  0.00  0.00    +0.000 C 
BRANCH  17  21
ATOM     18  C   UNL     1       0.234   8.995  21.062  0.00  0.00    +0.000 A 
ATOM     19  C   UNL     1       0.232   9.843  19.955  0.00  0.00    +0.000 A 
ATOM     20  C   UNL     1       1.099   9.612  18.876  0.00  0.00    +0.000 A 
ATOM     21  C   UNL     1       2.007   8.537  18.887  0.00  0.00    +0.000 A 
ATOM     22  C   UNL     1       2.010   7.708  20.017  0.00  0.00    +0.000 A 
ATOM     23  C   UNL     1       1.137   7.937  21.096  0.00  0.00    +0.000 A 
BRANCH  18  25
ATOM     24  C   UNL     1      -0.126   9.663  23.317  0.00  0.00    +0.000 C 
ATOM     25  O   UNL     1      -0.666   9.312  22.044  0.00  0.00    +0.000 OA
ENDBRANCH  18  25
ENDBRANCH  17  21
ENDBRANCH   1  17
TORSDOF 5
ENDMDL
